# generated using pymatgen
data_ZnBr2
_symmetry_space_group_name_H-M   'P 1'
_cell_length_a   11.83130200
_cell_length_b   11.83130200
_cell_length_c   22.33391000
_cell_angle_alpha   90.00000000
_cell_angle_beta   90.00000000
_cell_angle_gamma   90.00000000
_symmetry_Int_Tables_number   1
_chemical_formula_structural   ZnBr2
_chemical_formula_sum   'Zn32 Br64'
_cell_volume   3126.29417830
_cell_formula_units_Z   32
loop_
 _symmetry_equiv_pos_site_id
 _symmetry_equiv_pos_as_xyz
  1  'x, y, z'
loop_
 _atom_site_type_symbol
 _atom_site_label
 _atom_site_symmetry_multiplicity
 _atom_site_fract_x
 _atom_site_fract_y
 _atom_site_fract_z
 _atom_site_occupancy
  Zn  Zn0  1  0.87502550  0.89070650  0.06196050  1
  Zn  Zn1  1  0.60929350  0.12497450  0.31196050  1
  Zn  Zn2  1  0.37502550  0.60929350  0.06196050  1
  Zn  Zn3  1  0.89070650  0.62497450  0.31196050  1
  Zn  Zn4  1  0.37502550  0.10929350  0.18803950  1
  Zn  Zn5  1  0.89070650  0.87502550  0.43803950  1
  Zn  Zn6  1  0.62497450  0.89070650  0.18803950  1
  Zn  Zn7  1  0.10929350  0.12497450  0.43803950  1
  Zn  Zn8  1  0.12497450  0.10929350  0.06196050  1
  Zn  Zn9  1  0.39070650  0.87502550  0.31196050  1
  Zn  Zn10  1  0.12497450  0.60929350  0.18803950  1
  Zn  Zn11  1  0.39070650  0.62497450  0.43803950  1
  Zn  Zn12  1  0.60929350  0.37502550  0.43803950  1
  Zn  Zn13  1  0.87502550  0.39070650  0.18803950  1
  Zn  Zn14  1  0.10929350  0.37502550  0.31196050  1
  Zn  Zn15  1  0.62497450  0.39070650  0.06196050  1
  Zn  Zn16  1  0.37502550  0.39070650  0.56196050  1
  Zn  Zn17  1  0.10929350  0.62497450  0.81196050  1
  Zn  Zn18  1  0.87502550  0.10929350  0.56196050  1
  Zn  Zn19  1  0.39070650  0.12497450  0.81196050  1
  Zn  Zn20  1  0.87502550  0.60929350  0.68803950  1
  Zn  Zn21  1  0.39070650  0.37502550  0.93803950  1
  Zn  Zn22  1  0.12497450  0.39070650  0.68803950  1
  Zn  Zn23  1  0.60929350  0.62497450  0.93803950  1
  Zn  Zn24  1  0.62497450  0.60929350  0.56196050  1
  Zn  Zn25  1  0.89070650  0.37502550  0.81196050  1
  Zn  Zn26  1  0.62497450  0.10929350  0.68803950  1
  Zn  Zn27  1  0.89070650  0.12497450  0.93803950  1
  Zn  Zn28  1  0.10929350  0.87502550  0.93803950  1
  Zn  Zn29  1  0.37502550  0.89070650  0.68803950  1
  Zn  Zn30  1  0.60929350  0.87502550  0.81196050  1
  Zn  Zn31  1  0.12497450  0.89070650  0.56196050  1
  Br  Br32  1  0.25000000  0.72494700  0.12500000  1
  Br  Br33  1  0.51434750  0.25892750  0.00076650  1
  Br  Br34  1  0.24107250  0.48565250  0.25076650  1
  Br  Br35  1  0.50000000  0.50000000  0.12699300  1
  Br  Br36  1  0.48565250  0.74107250  0.00076650  1
  Br  Br37  1  0.48565250  0.24107250  0.24923350  1
  Br  Br38  1  0.24107250  0.01434750  0.49923350  1
  Br  Br39  1  0.00000000  0.00000000  0.12699300  1
  Br  Br40  1  0.25892750  0.51434750  0.49923350  1
  Br  Br41  1  0.74107250  0.01434750  0.25076650  1
  Br  Br42  1  0.50000000  0.00000000  0.12300700  1
  Br  Br43  1  0.27505300  0.75000000  0.37500000  1
  Br  Br44  1  0.98565250  0.75892750  0.00076650  1
  Br  Br45  1  0.25000000  0.22494700  0.12500000  1
  Br  Br46  1  0.00000000  0.50000000  0.12300700  1
  Br  Br47  1  0.72494700  0.25000000  0.37500000  1
  Br  Br48  1  0.22494700  0.25000000  0.37500000  1
  Br  Br49  1  0.75000000  0.77505300  0.12500000  1
  Br  Br50  1  0.75892750  0.98565250  0.49923350  1
  Br  Br51  1  0.01434750  0.24107250  0.00076650  1
  Br  Br52  1  0.50000000  0.00000000  0.37699300  1
  Br  Br53  1  0.75892750  0.51434750  0.25076650  1
  Br  Br54  1  0.01434750  0.74107250  0.24923350  1
  Br  Br55  1  0.98565250  0.25892750  0.24923350  1
  Br  Br56  1  0.00000000  0.50000000  0.37699300  1
  Br  Br57  1  0.25892750  0.98565250  0.25076650  1
  Br  Br58  1  0.75000000  0.27505300  0.12500000  1
  Br  Br59  1  0.50000000  0.50000000  0.37300700  1
  Br  Br60  1  0.51434750  0.75892750  0.24923350  1
  Br  Br61  1  0.77505300  0.75000000  0.37500000  1
  Br  Br62  1  0.00000000  0.00000000  0.37300700  1
  Br  Br63  1  0.74107250  0.48565250  0.49923350  1
  Br  Br64  1  0.75000000  0.22494700  0.62500000  1
  Br  Br65  1  0.01434750  0.75892750  0.50076650  1
  Br  Br66  1  0.74107250  0.98565250  0.75076650  1
  Br  Br67  1  0.00000000  0.00000000  0.62699300  1
  Br  Br68  1  0.98565250  0.24107250  0.50076650  1
  Br  Br69  1  0.98565250  0.74107250  0.74923350  1
  Br  Br70  1  0.74107250  0.51434750  0.99923350  1
  Br  Br71  1  0.50000000  0.50000000  0.62699300  1
  Br  Br72  1  0.75892750  0.01434750  0.99923350  1
  Br  Br73  1  0.24107250  0.51434750  0.75076650  1
  Br  Br74  1  0.00000000  0.50000000  0.62300700  1
  Br  Br75  1  0.77505300  0.25000000  0.87500000  1
  Br  Br76  1  0.48565250  0.25892750  0.50076650  1
  Br  Br77  1  0.75000000  0.72494700  0.62500000  1
  Br  Br78  1  0.50000000  0.00000000  0.62300700  1
  Br  Br79  1  0.22494700  0.75000000  0.87500000  1
  Br  Br80  1  0.72494700  0.75000000  0.87500000  1
  Br  Br81  1  0.25000000  0.27505300  0.62500000  1
  Br  Br82  1  0.25892750  0.48565250  0.99923350  1
  Br  Br83  1  0.51434750  0.74107250  0.50076650  1
  Br  Br84  1  0.00000000  0.50000000  0.87699300  1
  Br  Br85  1  0.25892750  0.01434750  0.75076650  1
  Br  Br86  1  0.51434750  0.24107250  0.74923350  1
  Br  Br87  1  0.48565250  0.75892750  0.74923350  1
  Br  Br88  1  0.50000000  0.00000000  0.87699300  1
  Br  Br89  1  0.75892750  0.48565250  0.75076650  1
  Br  Br90  1  0.25000000  0.77505300  0.62500000  1
  Br  Br91  1  0.00000000  0.00000000  0.87300700  1
  Br  Br92  1  0.01434750  0.25892750  0.74923350  1
  Br  Br93  1  0.27505300  0.25000000  0.87500000  1
  Br  Br94  1  0.50000000  0.50000000  0.87300700  1
  Br  Br95  1  0.24107250  0.98565250  0.99923350  1
