# generated using pymatgen
data_P6N7Cl9
_symmetry_space_group_name_H-M   'P 1'
_cell_length_a   20.31224000
_cell_length_b   6.59397000
_cell_length_c   30.65109899
_cell_angle_alpha   90.00000000
_cell_angle_beta   99.37623285
_cell_angle_gamma   90.00000000
_symmetry_Int_Tables_number   1
_chemical_formula_structural   P6N7Cl9
_chemical_formula_sum   'P48 N56 Cl72'
_cell_volume   4050.50785966
_cell_formula_units_Z   8
loop_
 _symmetry_equiv_pos_site_id
 _symmetry_equiv_pos_as_xyz
  1  'x, y, z'
loop_
 _atom_site_type_symbol
 _atom_site_label
 _atom_site_symmetry_multiplicity
 _atom_site_fract_x
 _atom_site_fract_y
 _atom_site_fract_z
 _atom_site_occupancy
  P  P0  1  0.90596400  0.57724700  0.11183600  1
  P  P1  1  0.52072000  0.95753300  0.07655300  1
  P  P2  1  0.85157550  0.50461650  0.35833300  1
  P  P3  1  0.86017950  0.40064150  0.94840700  1
  P  P4  1  0.59403600  0.92275300  0.88816400  1
  P  P5  1  0.63439550  0.10479250  0.22842900  1
  P  P6  1  0.64842450  0.99538350  0.64166700  1
  P  P7  1  0.98347200  0.46261000  0.32594200  1
  P  P8  1  0.98347200  0.53739000  0.82594200  1
  P  P9  1  0.51652800  0.03739000  0.67405800  1
  P  P10  1  0.63982050  0.09935850  0.05159300  1
  P  P11  1  0.51652800  0.96261000  0.17405800  1
  P  P12  1  0.97928000  0.54246700  0.92344700  1
  P  P13  1  0.90596400  0.42275300  0.61183600  1
  P  P14  1  0.85157550  0.49538350  0.85833300  1
  P  P15  1  0.86560450  0.60479250  0.27157100  1
  P  P16  1  0.63982050  0.90064150  0.55159300  1
  P  P17  1  0.59403600  0.07724700  0.38816400  1
  P  P18  1  0.63439550  0.89520750  0.72842900  1
  P  P19  1  0.86560450  0.39520750  0.77157100  1
  P  P20  1  0.64842450  0.00461650  0.14166700  1
  P  P21  1  0.86017950  0.59935850  0.44840700  1
  P  P22  1  0.97928000  0.45753300  0.42344700  1
  P  P23  1  0.52072000  0.04246700  0.57655300  1
  P  P24  1  0.40596400  0.07724700  0.11183600  1
  P  P25  1  0.02072000  0.45753300  0.07655300  1
  P  P26  1  0.35157550  0.00461650  0.35833300  1
  P  P27  1  0.36017950  0.90064150  0.94840700  1
  P  P28  1  0.09403600  0.42275300  0.88816400  1
  P  P29  1  0.13439550  0.60479250  0.22842900  1
  P  P30  1  0.14842450  0.49538350  0.64166700  1
  P  P31  1  0.48347200  0.96261000  0.32594200  1
  P  P32  1  0.48347200  0.03739000  0.82594200  1
  P  P33  1  0.01652800  0.53739000  0.67405800  1
  P  P34  1  0.13982050  0.59935850  0.05159300  1
  P  P35  1  0.01652800  0.46261000  0.17405800  1
  P  P36  1  0.47928000  0.04246700  0.92344700  1
  P  P37  1  0.40596400  0.92275300  0.61183600  1
  P  P38  1  0.35157550  0.99538350  0.85833300  1
  P  P39  1  0.36560450  0.10479250  0.27157100  1
  P  P40  1  0.13982050  0.40064150  0.55159300  1
  P  P41  1  0.09403600  0.57724700  0.38816400  1
  P  P42  1  0.13439550  0.39520750  0.72842900  1
  P  P43  1  0.36560450  0.89520750  0.77157100  1
  P  P44  1  0.14842450  0.50461650  0.14166700  1
  P  P45  1  0.36017950  0.09935850  0.44840700  1
  P  P46  1  0.47928000  0.95753300  0.42344700  1
  P  P47  1  0.02072000  0.54246700  0.57655300  1
  N  N48  1  0.82416250  0.60697450  0.39841700  1
  N  N49  1  0.94662000  0.53642500  0.07288200  1
  N  N50  1  0.55338000  0.96357500  0.92711800  1
  N  N51  1  0.55338000  0.03642500  0.42711800  1
  N  N52  1  0.67170700  0.12038600  0.18683000  1
  N  N53  1  0.94662000  0.46357500  0.57288200  1
  N  N54  1  0.67583750  0.10697450  0.10158300  1
  N  N55  1  0.82829300  0.37961400  0.81317000  1
  N  N56  1  0.93827350  0.43656450  0.95654600  1
  N  N57  1  0.55390150  0.06854050  0.33922100  1
  N  N58  1  0.56198000  0.01948700  0.63069900  1
  N  N59  1  0.94176000  0.54256800  0.28161300  1
  N  N60  1  0.55824000  0.04256800  0.21838700  1
  N  N61  1  0.82829300  0.62038600  0.31317000  1
  N  N62  1  0.67170700  0.87961400  0.68683000  1
  N  N63  1  0.94609850  0.56854050  0.16077900  1
  N  N64  1  0.93827350  0.56343550  0.45654600  1
  N  N65  1  0.93802000  0.48051300  0.36930100  1
  N  N66  1  0.94609850  0.43145950  0.66077900  1
  N  N67  1  0.56172650  0.06343550  0.04345400  1
  N  N68  1  0.55390150  0.93145950  0.83922100  1
  N  N69  1  0.56172650  0.93656450  0.54345400  1
  N  N70  1  0.67583750  0.89302550  0.60158300  1
  N  N71  1  0.55824000  0.95743200  0.71838700  1
  N  N72  1  0.56198000  0.98051300  0.13069900  1
  N  N73  1  0.82416250  0.39302550  0.89841700  1
  N  N74  1  0.93802000  0.51948700  0.86930100  1
  N  N75  1  0.94176000  0.45743200  0.78161300  1
  N  N76  1  0.32416250  0.10697450  0.39841700  1
  N  N77  1  0.44662000  0.03642500  0.07288200  1
  N  N78  1  0.05338000  0.46357500  0.92711800  1
  N  N79  1  0.05338000  0.53642500  0.42711800  1
  N  N80  1  0.17170700  0.62038600  0.18683000  1
  N  N81  1  0.44662000  0.96357500  0.57288200  1
  N  N82  1  0.17583750  0.60697450  0.10158300  1
  N  N83  1  0.32829300  0.87961400  0.81317000  1
  N  N84  1  0.43827350  0.93656450  0.95654600  1
  N  N85  1  0.05390150  0.56854050  0.33922100  1
  N  N86  1  0.06198000  0.51948700  0.63069900  1
  N  N87  1  0.44176000  0.04256800  0.28161300  1
  N  N88  1  0.05824000  0.54256800  0.21838700  1
  N  N89  1  0.32829300  0.12038600  0.31317000  1
  N  N90  1  0.17170700  0.37961400  0.68683000  1
  N  N91  1  0.44609850  0.06854050  0.16077900  1
  N  N92  1  0.43827350  0.06343550  0.45654600  1
  N  N93  1  0.43802000  0.98051300  0.36930100  1
  N  N94  1  0.44609850  0.93145950  0.66077900  1
  N  N95  1  0.06172650  0.56343550  0.04345400  1
  N  N96  1  0.05390150  0.43145950  0.83922100  1
  N  N97  1  0.06172650  0.43656450  0.54345400  1
  N  N98  1  0.17583750  0.39302550  0.60158300  1
  N  N99  1  0.05824000  0.45743200  0.71838700  1
  N  N100  1  0.06198000  0.48051300  0.13069900  1
  N  N101  1  0.32416250  0.89302550  0.89841700  1
  N  N102  1  0.43802000  0.01948700  0.86930100  1
  N  N103  1  0.44176000  0.95743200  0.78161300  1
  Cl  Cl104  1  0.99847250  0.83993950  0.81855900  1
  Cl  Cl105  1  0.84068050  0.14388650  0.97883900  1
  Cl  Cl106  1  0.98181550  0.84542150  0.93639800  1
  Cl  Cl107  1  0.68612750  0.89360050  0.01785100  1
  Cl  Cl108  1  0.86119200  0.84969300  0.10287800  1
  Cl  Cl109  1  0.67477900  0.89287000  0.39467800  1
  Cl  Cl110  1  0.68430650  0.91720050  0.27428400  1
  Cl  Cl111  1  0.50152750  0.33993950  0.68144100  1
  Cl  Cl112  1  0.68430650  0.08279950  0.77428400  1
  Cl  Cl113  1  0.81918350  0.78848350  0.85231800  1
  Cl  Cl114  1  0.84068050  0.85611350  0.47883900  1
  Cl  Cl115  1  0.67477900  0.10713000  0.89467800  1
  Cl  Cl116  1  0.85561150  0.87004350  0.23914600  1
  Cl  Cl117  1  0.65931950  0.35611350  0.02116100  1
  Cl  Cl118  1  0.81569350  0.58279950  0.72571600  1
  Cl  Cl119  1  0.64438850  0.62995650  0.76085400  1
  Cl  Cl120  1  0.99847250  0.16006050  0.31855900  1
  Cl  Cl121  1  0.81387250  0.39360050  0.48214900  1
  Cl  Cl122  1  0.64438850  0.37004350  0.26085400  1
  Cl  Cl123  1  0.82522100  0.39287000  0.10532200  1
  Cl  Cl124  1  0.81569350  0.41720050  0.22571600  1
  Cl  Cl125  1  0.85561150  0.12995650  0.73914600  1
  Cl  Cl126  1  0.98181550  0.15457850  0.43639800  1
  Cl  Cl127  1  0.63880800  0.65030700  0.89712200  1
  Cl  Cl128  1  0.63880800  0.34969300  0.39712200  1
  Cl  Cl129  1  0.81918350  0.21151650  0.35231800  1
  Cl  Cl130  1  0.81387250  0.60639950  0.98214900  1
  Cl  Cl131  1  0.51818450  0.34542150  0.56360200  1
  Cl  Cl132  1  0.50152750  0.66006050  0.18144100  1
  Cl  Cl133  1  0.68081650  0.28848350  0.64768200  1
  Cl  Cl134  1  0.51818450  0.65457850  0.06360200  1
  Cl  Cl135  1  0.68081650  0.71151650  0.14768200  1
  Cl  Cl136  1  0.82522100  0.60713000  0.60532200  1
  Cl  Cl137  1  0.65931950  0.64388650  0.52116100  1
  Cl  Cl138  1  0.86119200  0.15030700  0.60287800  1
  Cl  Cl139  1  0.68612750  0.10639950  0.51785100  1
  Cl  Cl140  1  0.49847250  0.33993950  0.81855900  1
  Cl  Cl141  1  0.34068050  0.64388650  0.97883900  1
  Cl  Cl142  1  0.48181550  0.34542150  0.93639800  1
  Cl  Cl143  1  0.18612750  0.39360050  0.01785100  1
  Cl  Cl144  1  0.36119200  0.34969300  0.10287800  1
  Cl  Cl145  1  0.17477900  0.39287000  0.39467800  1
  Cl  Cl146  1  0.18430650  0.41720050  0.27428400  1
  Cl  Cl147  1  0.00152750  0.83993950  0.68144100  1
  Cl  Cl148  1  0.18430650  0.58279950  0.77428400  1
  Cl  Cl149  1  0.31918350  0.28848350  0.85231800  1
  Cl  Cl150  1  0.34068050  0.35611350  0.47883900  1
  Cl  Cl151  1  0.17477900  0.60713000  0.89467800  1
  Cl  Cl152  1  0.35561150  0.37004350  0.23914600  1
  Cl  Cl153  1  0.15931950  0.85611350  0.02116100  1
  Cl  Cl154  1  0.31569350  0.08279950  0.72571600  1
  Cl  Cl155  1  0.14438850  0.12995650  0.76085400  1
  Cl  Cl156  1  0.49847250  0.66006050  0.31855900  1
  Cl  Cl157  1  0.31387250  0.89360050  0.48214900  1
  Cl  Cl158  1  0.14438850  0.87004350  0.26085400  1
  Cl  Cl159  1  0.32522100  0.89287000  0.10532200  1
  Cl  Cl160  1  0.31569350  0.91720050  0.22571600  1
  Cl  Cl161  1  0.35561150  0.62995650  0.73914600  1
  Cl  Cl162  1  0.48181550  0.65457850  0.43639800  1
  Cl  Cl163  1  0.13880800  0.15030700  0.89712200  1
  Cl  Cl164  1  0.13880800  0.84969300  0.39712200  1
  Cl  Cl165  1  0.31918350  0.71151650  0.35231800  1
  Cl  Cl166  1  0.31387250  0.10639950  0.98214900  1
  Cl  Cl167  1  0.01818450  0.84542150  0.56360200  1
  Cl  Cl168  1  0.00152750  0.16006050  0.18144100  1
  Cl  Cl169  1  0.18081650  0.78848350  0.64768200  1
  Cl  Cl170  1  0.01818450  0.15457850  0.06360200  1
  Cl  Cl171  1  0.18081650  0.21151650  0.14768200  1
  Cl  Cl172  1  0.32522100  0.10713000  0.60532200  1
  Cl  Cl173  1  0.15931950  0.14388650  0.52116100  1
  Cl  Cl174  1  0.36119200  0.65030700  0.60287800  1
  Cl  Cl175  1  0.18612750  0.60639950  0.51785100  1
