# generated using pymatgen
data_Sr(H8O5)2
_symmetry_space_group_name_H-M   'P 1'
_cell_length_a   6.32329800
_cell_length_b   6.45624768
_cell_length_c   11.40508132
_cell_angle_alpha   88.70972004
_cell_angle_beta   87.52532153
_cell_angle_gamma   87.80141389
_symmetry_Int_Tables_number   1
_chemical_formula_structural   Sr(H8O5)2
_chemical_formula_sum   'Sr2 H32 O20'
_cell_volume   464.73175793
_cell_formula_units_Z   2
loop_
 _symmetry_equiv_pos_site_id
 _symmetry_equiv_pos_as_xyz
  1  'x, y, z'
loop_
 _atom_site_type_symbol
 _atom_site_label
 _atom_site_symmetry_multiplicity
 _atom_site_fract_x
 _atom_site_fract_y
 _atom_site_fract_z
 _atom_site_occupancy
  Sr  Sr0  1  0.00031800  0.99412700  0.75867800  1
  Sr  Sr1  1  0.98352500  0.00405800  0.23819300  1
  H  H2  1  0.99495700  0.34748300  0.61769700  1
  H  H3  1  0.73257000  0.39086100  0.64852300  1
  H  H4  1  0.03054800  0.60150500  0.64237500  1
  H  H5  1  0.28741500  0.59562000  0.64876100  1
  H  H6  1  0.40704600  0.19732900  0.64966800  1
  H  H7  1  0.31137600  0.13369900  0.52957500  1
  H  H8  1  0.63023000  0.72247300  0.65618100  1
  H  H9  1  0.70521800  0.87717500  0.55290100  1
  H  H10  1  0.26763600  0.38549600  0.14331100  1
  H  H11  1  0.14274800  0.31798600  0.03037500  1
  H  H12  1  0.96319800  0.54561800  0.12999500  1
  H  H13  1  0.72218100  0.60846700  0.15139200  1
  H  H14  1  0.59593400  0.26293300  0.14463400  1
  H  H15  1  0.67583800  0.13565200  0.03058600  1
  H  H16  1  0.38507700  0.72067700  0.14917700  1
  H  H17  1  0.45358800  0.95504800  0.12902600  1
  H  H18  1  0.26951900  0.62317200  0.35499700  1
  H  H19  1  0.13269800  0.71400800  0.46147400  1
  H  H20  1  0.72429700  0.37233600  0.35271500  1
  H  H21  1  0.86437400  0.29704200  0.45601700  1
  H  H22  1  0.64309100  0.73108400  0.37145800  1
  H  H23  1  0.56435600  0.96985300  0.38680400  1
  H  H24  1  0.40916400  0.30198400  0.33444700  1
  H  H25  1  0.28821400  0.97524300  0.38459200  1
  H  H26  1  0.72090000  0.60619500  0.85567800  1
  H  H27  1  0.85109000  0.68089100  0.96645700  1
  H  H28  1  0.03427500  0.45508600  0.87388300  1
  H  H29  1  0.27881800  0.39196100  0.85232500  1
  H  H30  1  0.39959800  0.72595000  0.85346300  1
  H  H31  1  0.31771800  0.85855600  0.96463500  1
  H  H32  1  0.54673500  0.04337100  0.87234000  1
  H  H33  1  0.60624900  0.28344000  0.85722800  1
  O  O34  1  0.52298400  0.50746700  0.68759200  1
  O  O35  1  0.48337300  0.47979600  0.18720400  1
  O  O36  1  0.46639600  0.45291400  0.31670200  1
  O  O37  1  0.51007800  0.50468200  0.81890800  1
  O  O38  1  0.85385200  0.29138500  0.61580400  1
  O  O39  1  0.15576100  0.68025600  0.62279400  1
  O  O40  1  0.27451800  0.15699400  0.61704900  1
  O  O41  1  0.71159700  0.85400500  0.63824700  1
  O  O42  1  0.12903600  0.32903500  0.11791600  1
  O  O43  1  0.86084000  0.66775300  0.12425600  1
  O  O44  1  0.66248900  0.12447600  0.11877100  1
  O  O45  1  0.33175800  0.86200300  0.12162100  1
  O  O46  1  0.16142900  0.73475500  0.37634200  1
  O  O47  1  0.86605100  0.31060900  0.36912400  1
  O  O48  1  0.69946400  0.86704800  0.38406100  1
  O  O49  1  0.37110400  0.10096100  0.39430200  1
  O  O50  1  0.86096200  0.66725900  0.87960800  1
  O  O51  1  0.13643000  0.33270600  0.87666900  1
  O  O52  1  0.33246500  0.86638300  0.87743300  1
  O  O53  1  0.66396100  0.13920900  0.88337800  1
