# generated using pymatgen
data_AlBiTeCl4
_symmetry_space_group_name_H-M   'P 1'
_cell_length_a   12.58518000
_cell_length_b   12.58518000
_cell_length_c   11.73097400
_cell_angle_alpha   90.00000000
_cell_angle_beta   90.00000000
_cell_angle_gamma   90.00000000
_symmetry_Int_Tables_number   1
_chemical_formula_structural   AlBiTeCl4
_chemical_formula_sum   'Al8 Bi8 Te8 Cl32'
_cell_volume   1858.03091227
_cell_formula_units_Z   8
loop_
 _symmetry_equiv_pos_site_id
 _symmetry_equiv_pos_as_xyz
  1  'x, y, z'
loop_
 _atom_site_type_symbol
 _atom_site_label
 _atom_site_symmetry_multiplicity
 _atom_site_fract_x
 _atom_site_fract_y
 _atom_site_fract_z
 _atom_site_occupancy
  Al  Al0  1  0.30046400  0.07324200  0.03945300  1
  Al  Al1  1  0.42675800  0.80046400  0.46054700  1
  Al  Al2  1  0.07324200  0.69953600  0.96054700  1
  Al  Al3  1  0.19953600  0.42675800  0.53945300  1
  Al  Al4  1  0.80046400  0.57324200  0.53945300  1
  Al  Al5  1  0.92675800  0.30046400  0.96054700  1
  Al  Al6  1  0.57324200  0.19953600  0.46054700  1
  Al  Al7  1  0.69953600  0.92675800  0.03945300  1
  Bi  Bi8  1  0.16215450  0.05648050  0.37546950  1
  Bi  Bi9  1  0.94351950  0.16215450  0.62453050  1
  Bi  Bi10  1  0.55648050  0.33784550  0.12453050  1
  Bi  Bi11  1  0.33784550  0.44351950  0.87546950  1
  Bi  Bi12  1  0.66215450  0.55648050  0.87546950  1
  Bi  Bi13  1  0.44351950  0.66215450  0.12453050  1
  Bi  Bi14  1  0.05648050  0.83784550  0.62453050  1
  Bi  Bi15  1  0.83784550  0.94351950  0.37546950  1
  Te  Te16  1  0.15534450  0.05439250  0.63574250  1
  Te  Te17  1  0.55439250  0.34465550  0.86425750  1
  Te  Te18  1  0.34465550  0.44560750  0.13574250  1
  Te  Te19  1  0.94560750  0.15534450  0.36425750  1
  Te  Te20  1  0.65534450  0.55439250  0.13574250  1
  Te  Te21  1  0.05439250  0.84465550  0.36425750  1
  Te  Te22  1  0.84465550  0.94560750  0.63574250  1
  Te  Te23  1  0.44560750  0.65534450  0.86425750  1
  Cl  Cl24  1  0.61153700  0.85279400  0.17736700  1
  Cl  Cl25  1  0.38846300  0.14720600  0.17736700  1
  Cl  Cl26  1  0.31752750  0.79588050  0.60312150  1
  Cl  Cl27  1  0.64720600  0.11153700  0.32263300  1
  Cl  Cl28  1  0.54909150  0.35745050  0.38765650  1
  Cl  Cl29  1  0.29588050  0.18247250  0.89687850  1
  Cl  Cl30  1  0.86392300  0.42525100  0.48257900  1
  Cl  Cl31  1  0.07474900  0.36392300  0.01742100  1
  Cl  Cl32  1  0.20411950  0.31752750  0.39687850  1
  Cl  Cl33  1  0.14254950  0.04909150  0.11234350  1
  Cl  Cl34  1  0.18247250  0.70411950  0.10312150  1
  Cl  Cl35  1  0.42525100  0.13607700  0.51742100  1
  Cl  Cl36  1  0.85745050  0.95090850  0.11234350  1
  Cl  Cl37  1  0.45090850  0.64254950  0.38765650  1
  Cl  Cl38  1  0.35279400  0.88846300  0.32263300  1
  Cl  Cl39  1  0.63607700  0.07474900  0.98257900  1
  Cl  Cl40  1  0.11153700  0.35279400  0.67736700  1
  Cl  Cl41  1  0.88846300  0.64720600  0.67736700  1
  Cl  Cl42  1  0.81752750  0.29588050  0.10312150  1
  Cl  Cl43  1  0.14720600  0.61153700  0.82263300  1
  Cl  Cl44  1  0.04909150  0.85745050  0.88765650  1
  Cl  Cl45  1  0.79588050  0.68247250  0.39687850  1
  Cl  Cl46  1  0.36392300  0.92525100  0.98257900  1
  Cl  Cl47  1  0.57474900  0.86392300  0.51742100  1
  Cl  Cl48  1  0.70411950  0.81752750  0.89687850  1
  Cl  Cl49  1  0.64254950  0.54909150  0.61234350  1
  Cl  Cl50  1  0.68247250  0.20411950  0.60312150  1
  Cl  Cl51  1  0.92525100  0.63607700  0.01742100  1
  Cl  Cl52  1  0.35745050  0.45090850  0.61234350  1
  Cl  Cl53  1  0.95090850  0.14254950  0.88765650  1
  Cl  Cl54  1  0.85279400  0.38846300  0.82263300  1
  Cl  Cl55  1  0.13607700  0.57474900  0.48257900  1
