# generated using pymatgen
data_Rb2U2Mo3O16
_symmetry_space_group_name_H-M   'P 1'
_cell_length_a   8.49418400
_cell_length_b   9.88120900
_cell_length_c   20.46415000
_cell_angle_alpha   90.00000000
_cell_angle_beta   90.00000000
_cell_angle_gamma   90.00000000
_symmetry_Int_Tables_number   1
_chemical_formula_structural   Rb2U2Mo3O16
_chemical_formula_sum   'Rb8 U8 Mo12 O64'
_cell_volume   1717.61356032
_cell_formula_units_Z   4
loop_
 _symmetry_equiv_pos_site_id
 _symmetry_equiv_pos_as_xyz
  1  'x, y, z'
loop_
 _atom_site_type_symbol
 _atom_site_label
 _atom_site_symmetry_multiplicity
 _atom_site_fract_x
 _atom_site_fract_y
 _atom_site_fract_z
 _atom_site_occupancy
  Rb  Rb0  1  0.48571100  0.89270500  0.39156300  1
  Rb  Rb1  1  0.69596400  0.93708200  0.14464100  1
  Rb  Rb2  1  0.51428900  0.39270500  0.60843700  1
  Rb  Rb3  1  0.30403600  0.43708200  0.85535900  1
  Rb  Rb4  1  0.19596400  0.43708200  0.35535900  1
  Rb  Rb5  1  0.01428900  0.89270500  0.89156300  1
  Rb  Rb6  1  0.80403600  0.93708200  0.64464100  1
  Rb  Rb7  1  0.98571100  0.39270500  0.10843700  1
  U  U8  1  0.82741500  0.17689500  0.47571800  1
  U  U9  1  0.78107400  0.59327400  0.78244400  1
  U  U10  1  0.21892600  0.09327400  0.21755600  1
  U  U11  1  0.67258500  0.17689500  0.97571800  1
  U  U12  1  0.32741500  0.67689500  0.02428200  1
  U  U13  1  0.28107400  0.09327400  0.71755600  1
  U  U14  1  0.71892600  0.59327400  0.28244400  1
  U  U15  1  0.17258500  0.67689500  0.52428200  1
  Mo  Mo16  1  0.51386100  0.37617600  0.13454100  1
  Mo  Mo17  1  0.48613900  0.87617600  0.86545900  1
  Mo  Mo18  1  0.24487400  0.06164900  0.03107800  1
  Mo  Mo19  1  0.74487400  0.56164900  0.46892200  1
  Mo  Mo20  1  0.75512600  0.56164900  0.96892200  1
  Mo  Mo21  1  0.98613900  0.37617600  0.63454100  1
  Mo  Mo22  1  0.25512600  0.06164900  0.53107800  1
  Mo  Mo23  1  0.92444800  0.23499400  0.80928600  1
  Mo  Mo24  1  0.42444800  0.73499400  0.69071400  1
  Mo  Mo25  1  0.07555200  0.73499400  0.19071400  1
  Mo  Mo26  1  0.01386100  0.87617600  0.36545900  1
  Mo  Mo27  1  0.57555200  0.23499400  0.30928600  1
  O  O28  1  0.35885600  0.77442200  0.91553900  1
  O  O29  1  0.88487000  0.77766500  0.31442800  1
  O  O30  1  0.67355300  0.65292500  0.53538700  1
  O  O31  1  0.04260600  0.07420300  0.53191800  1
  O  O32  1  0.17829900  0.57721600  0.98170900  1
  O  O33  1  0.68390900  0.18495700  0.24080200  1
  O  O34  1  0.07236300  0.22172700  0.23577400  1
  O  O35  1  0.83393200  0.63512300  0.89342400  1
  O  O36  1  0.85885600  0.27442200  0.58446100  1
  O  O37  1  0.18390900  0.68495700  0.25919800  1
  O  O38  1  0.32641500  0.67214000  0.61806900  1
  O  O39  1  0.57236300  0.72172700  0.26422600  1
  O  O40  1  0.89122600  0.97543800  0.41820300  1
  O  O41  1  0.54260600  0.57420300  0.96808200  1
  O  O42  1  0.31609100  0.68495700  0.75919800  1
  O  O43  1  0.95739400  0.57420300  0.46808200  1
  O  O44  1  0.17355300  0.15292500  0.96461300  1
  O  O45  1  0.18672000  0.88540100  0.01995100  1
  O  O46  1  0.04401100  0.91801700  0.18801100  1
  O  O47  1  0.67829900  0.07721600  0.51829100  1
  O  O48  1  0.88438200  0.65376300  0.19290900  1
  O  O49  1  0.36338000  0.98243700  0.81651400  1
  O  O50  1  0.61561800  0.65376300  0.69290900  1
  O  O51  1  0.11513000  0.27766500  0.68557200  1
  O  O52  1  0.54401100  0.41801700  0.31198900  1
  O  O53  1  0.38487000  0.27766500  0.18557200  1
  O  O54  1  0.82644700  0.65292500  0.03538700  1
  O  O55  1  0.95598900  0.41801700  0.81198900  1
  O  O56  1  0.81328000  0.38540100  0.98004900  1
  O  O57  1  0.82170100  0.07721600  0.01829100  1
  O  O58  1  0.12762000  0.97159600  0.69675900  1
  O  O59  1  0.61513000  0.77766500  0.81442800  1
  O  O60  1  0.67358500  0.17214000  0.38193100  1
  O  O61  1  0.45739400  0.07420300  0.03191800  1
  O  O62  1  0.60877400  0.97543800  0.91820300  1
  O  O63  1  0.11561800  0.15376300  0.80709100  1
  O  O64  1  0.62762000  0.47159600  0.80324100  1
  O  O65  1  0.10877400  0.47543800  0.58179700  1
  O  O66  1  0.17358500  0.67214000  0.11806900  1
  O  O67  1  0.82641500  0.17214000  0.88193100  1
  O  O68  1  0.13662000  0.98243700  0.31651400  1
  O  O69  1  0.63662000  0.48243700  0.18348600  1
  O  O70  1  0.14114400  0.77442200  0.41553900  1
  O  O71  1  0.66606800  0.63512300  0.39342400  1
  O  O72  1  0.38438200  0.15376300  0.30709100  1
  O  O73  1  0.45598900  0.91801700  0.68801100  1
  O  O74  1  0.47920300  0.77118600  0.06670600  1
  O  O75  1  0.42763700  0.22172700  0.73577400  1
  O  O76  1  0.02079700  0.77118600  0.56670600  1
  O  O77  1  0.86338000  0.48243700  0.68348600  1
  O  O78  1  0.52079700  0.27118600  0.93329400  1
  O  O79  1  0.97920300  0.27118600  0.43329400  1
  O  O80  1  0.32170100  0.57721600  0.48170900  1
  O  O81  1  0.68672000  0.38540100  0.48004900  1
  O  O82  1  0.39122600  0.47543800  0.08179700  1
  O  O83  1  0.32644700  0.15292500  0.46461300  1
  O  O84  1  0.16606800  0.13512300  0.10657600  1
  O  O85  1  0.92763700  0.72172700  0.76422600  1
  O  O86  1  0.37238000  0.97159600  0.19675900  1
  O  O87  1  0.87238000  0.47159600  0.30324100  1
  O  O88  1  0.64114400  0.27442200  0.08446100  1
  O  O89  1  0.31328000  0.88540100  0.51995100  1
  O  O90  1  0.81609100  0.18495700  0.74080200  1
  O  O91  1  0.33393200  0.13512300  0.60657600  1
