# generated using pymatgen
data_TaAg7S6
_symmetry_space_group_name_H-M   'P 1'
_cell_length_a   7.70615900
_cell_length_b   7.44677100
_cell_length_c   13.09831019
_cell_angle_alpha   90.00000000
_cell_angle_beta   125.48838729
_cell_angle_gamma   90.00000000
_symmetry_Int_Tables_number   1
_chemical_formula_structural   TaAg7S6
_chemical_formula_sum   'Ta2 Ag14 S12'
_cell_volume   612.02623803
_cell_formula_units_Z   2
loop_
 _symmetry_equiv_pos_site_id
 _symmetry_equiv_pos_as_xyz
  1  'x, y, z'
loop_
 _atom_site_type_symbol
 _atom_site_label
 _atom_site_symmetry_multiplicity
 _atom_site_fract_x
 _atom_site_fract_y
 _atom_site_fract_z
 _atom_site_occupancy
  Ta  Ta0  1  0.99906600  0.74751400  0.99658400  1
  Ta  Ta1  1  0.99906600  0.25248600  0.49658400  1
  Ag  Ag2  1  0.44909800  0.35338000  0.15113000  1
  Ag  Ag3  1  0.90447800  0.08739300  0.19751700  1
  Ag  Ag4  1  0.05785300  0.53042000  0.76361000  1
  Ag  Ag5  1  0.98955700  0.28774700  0.02990200  1
  Ag  Ag6  1  0.36569200  0.88011900  0.28792700  1
  Ag  Ag7  1  0.44909800  0.64662000  0.65113000  1
  Ag  Ag8  1  0.26372600  0.95968200  0.47924500  1
  Ag  Ag9  1  0.36569200  0.11988100  0.78792700  1
  Ag  Ag10  1  0.52821800  0.42981700  0.45469500  1
  Ag  Ag11  1  0.26372600  0.04031800  0.97924500  1
  Ag  Ag12  1  0.98955700  0.71225300  0.52990200  1
  Ag  Ag13  1  0.90447800  0.91260700  0.69751700  1
  Ag  Ag14  1  0.52821800  0.57018300  0.95469500  1
  Ag  Ag15  1  0.05785300  0.46958000  0.26361000  1
  S  S16  1  0.28610200  0.22939500  0.26140800  1
  S  S17  1  0.84024300  0.48778300  0.35454000  1
  S  S18  1  0.55390600  0.75934500  0.51043800  1
  S  S19  1  0.84024300  0.51221700  0.85454000  1
  S  S20  1  0.55390600  0.24065500  0.01043800  1
  S  S21  1  0.36761800  0.73925500  0.11133100  1
  S  S22  1  0.88090600  0.25155700  0.62383300  1
  S  S23  1  0.88090600  0.74844300  0.12383300  1
  S  S24  1  0.86153500  0.00433100  0.87484000  1
  S  S25  1  0.28610200  0.77060500  0.76140800  1
  S  S26  1  0.36761800  0.26074500  0.61133100  1
  S  S27  1  0.86153500  0.99566900  0.37484000  1
