# generated using pymatgen
data_SiO2
_symmetry_space_group_name_H-M   'P 1'
_cell_length_a   5.28232200
_cell_length_b   34.58005400
_cell_length_c   21.66865100
_cell_angle_alpha   90.00000000
_cell_angle_beta   90.00000000
_cell_angle_gamma   90.00000000
_symmetry_Int_Tables_number   1
_chemical_formula_structural   SiO2
_chemical_formula_sum   'Si64 O128'
_cell_volume   3958.06036436
_cell_formula_units_Z   64
loop_
 _symmetry_equiv_pos_site_id
 _symmetry_equiv_pos_as_xyz
  1  'x, y, z'
loop_
 _atom_site_type_symbol
 _atom_site_label
 _atom_site_symmetry_multiplicity
 _atom_site_fract_x
 _atom_site_fract_y
 _atom_site_fract_z
 _atom_site_occupancy
  Si  Si0  1  0.00000000  0.06346000  0.48080100  1
  Si  Si1  1  0.50000000  0.43654000  0.51919900  1
  Si  Si2  1  0.00000000  0.06346000  0.01919900  1
  Si  Si3  1  0.50000000  0.43654000  0.98080100  1
  Si  Si4  1  0.50000000  0.19905900  0.49287900  1
  Si  Si5  1  0.00000000  0.30094100  0.50712100  1
  Si  Si6  1  0.50000000  0.19905900  0.00712100  1
  Si  Si7  1  0.00000000  0.30094100  0.99287900  1
  Si  Si8  1  0.00000000  0.38010500  0.36010900  1
  Si  Si9  1  0.50000000  0.11989500  0.63989100  1
  Si  Si10  1  0.00000000  0.38010500  0.13989100  1
  Si  Si11  1  0.50000000  0.11989500  0.86010900  1
  Si  Si12  1  0.50000000  0.27717100  0.43182300  1
  Si  Si13  1  0.00000000  0.22282900  0.56817700  1
  Si  Si14  1  0.50000000  0.27717100  0.06817700  1
  Si  Si15  1  0.00000000  0.22282900  0.93182300  1
  Si  Si16  1  0.00000000  0.01451100  0.89879600  1
  Si  Si17  1  0.50000000  0.48548900  0.10120400  1
  Si  Si18  1  0.00000000  0.01451100  0.60120400  1
  Si  Si19  1  0.50000000  0.48548900  0.39879600  1
  Si  Si20  1  0.00000000  0.38893100  0.50833200  1
  Si  Si21  1  0.50000000  0.11106900  0.49166800  1
  Si  Si22  1  0.00000000  0.38893100  0.99166800  1
  Si  Si23  1  0.50000000  0.11106900  0.00833200  1
  Si  Si24  1  0.50000000  0.33138600  0.32309400  1
  Si  Si25  1  0.00000000  0.16861400  0.67690600  1
  Si  Si26  1  0.50000000  0.33138600  0.17690600  1
  Si  Si27  1  0.00000000  0.16861400  0.82309400  1
  Si  Si28  1  0.00000000  0.46742800  0.32126100  1
  Si  Si29  1  0.50000000  0.03257200  0.67873900  1
  Si  Si30  1  0.00000000  0.46742800  0.17873900  1
  Si  Si31  1  0.50000000  0.03257200  0.82126100  1
  Si  Si32  1  0.50000000  0.56346000  0.48080100  1
  Si  Si33  1  0.00000000  0.93654000  0.51919900  1
  Si  Si34  1  0.50000000  0.56346000  0.01919900  1
  Si  Si35  1  0.00000000  0.93654000  0.98080100  1
  Si  Si36  1  0.00000000  0.69905900  0.49287900  1
  Si  Si37  1  0.50000000  0.80094100  0.50712100  1
  Si  Si38  1  0.00000000  0.69905900  0.00712100  1
  Si  Si39  1  0.50000000  0.80094100  0.99287900  1
  Si  Si40  1  0.50000000  0.88010500  0.36010900  1
  Si  Si41  1  0.00000000  0.61989500  0.63989100  1
  Si  Si42  1  0.50000000  0.88010500  0.13989100  1
  Si  Si43  1  0.00000000  0.61989500  0.86010900  1
  Si  Si44  1  0.00000000  0.77717100  0.43182300  1
  Si  Si45  1  0.50000000  0.72282900  0.56817700  1
  Si  Si46  1  0.00000000  0.77717100  0.06817700  1
  Si  Si47  1  0.50000000  0.72282900  0.93182300  1
  Si  Si48  1  0.50000000  0.51451100  0.89879600  1
  Si  Si49  1  0.00000000  0.98548900  0.10120400  1
  Si  Si50  1  0.50000000  0.51451100  0.60120400  1
  Si  Si51  1  0.00000000  0.98548900  0.39879600  1
  Si  Si52  1  0.50000000  0.88893100  0.50833200  1
  Si  Si53  1  0.00000000  0.61106900  0.49166800  1
  Si  Si54  1  0.50000000  0.88893100  0.99166800  1
  Si  Si55  1  0.00000000  0.61106900  0.00833200  1
  Si  Si56  1  0.00000000  0.83138600  0.32309400  1
  Si  Si57  1  0.50000000  0.66861400  0.67690600  1
  Si  Si58  1  0.00000000  0.83138600  0.17690600  1
  Si  Si59  1  0.50000000  0.66861400  0.82309400  1
  Si  Si60  1  0.50000000  0.96742800  0.32126100  1
  Si  Si61  1  0.00000000  0.53257200  0.67873900  1
  Si  Si62  1  0.50000000  0.96742800  0.17873900  1
  Si  Si63  1  0.00000000  0.53257200  0.82126100  1
  O  O64  1  0.00000000  0.05101700  0.55345500  1
  O  O65  1  0.50000000  0.44898300  0.44654500  1
  O  O66  1  0.00000000  0.05101700  0.94654500  1
  O  O67  1  0.50000000  0.44898300  0.05345500  1
  O  O68  1  0.74975450  0.08905950  0.46602500  1
  O  O69  1  0.24975450  0.41094050  0.53397500  1
  O  O70  1  0.25024550  0.08905950  0.03397500  1
  O  O71  1  0.75024550  0.41094050  0.96602500  1
  O  O72  1  0.75024550  0.41094050  0.53397500  1
  O  O73  1  0.25024550  0.08905950  0.46602500  1
  O  O74  1  0.24975450  0.41094050  0.96602500  1
  O  O75  1  0.74975450  0.08905950  0.03397500  1
  O  O76  1  0.00000000  0.02548100  0.43744900  1
  O  O77  1  0.50000000  0.47451900  0.56255100  1
  O  O78  1  0.00000000  0.02548100  0.06255100  1
  O  O79  1  0.50000000  0.47451900  0.93744900  1
  O  O80  1  0.75005400  0.20532700  0.53495300  1
  O  O81  1  0.25005400  0.29467300  0.46504700  1
  O  O82  1  0.24994600  0.20532700  0.96504700  1
  O  O83  1  0.74994600  0.29467300  0.03495300  1
  O  O84  1  0.74994600  0.29467300  0.46504700  1
  O  O85  1  0.24994600  0.20532700  0.53495300  1
  O  O86  1  0.25005400  0.29467300  0.03495300  1
  O  O87  1  0.75005400  0.20532700  0.96504700  1
  O  O88  1  0.50000000  0.23007800  0.43619000  1
  O  O89  1  0.00000000  0.26992200  0.56381000  1
  O  O90  1  0.50000000  0.23007800  0.06381000  1
  O  O91  1  0.00000000  0.26992200  0.93619000  1
  O  O92  1  0.50000000  0.15537200  0.46569600  1
  O  O93  1  0.00000000  0.34462800  0.53430400  1
  O  O94  1  0.50000000  0.15537200  0.03430400  1
  O  O95  1  0.00000000  0.34462800  0.96569600  1
  O  O96  1  0.00000000  0.42044500  0.32209700  1
  O  O97  1  0.50000000  0.07955500  0.67790300  1
  O  O98  1  0.00000000  0.42044500  0.17790300  1
  O  O99  1  0.50000000  0.07955500  0.82209700  1
  O  O100  1  0.75000550  0.35577350  0.34180000  1
  O  O101  1  0.25000550  0.14422650  0.65820000  1
  O  O102  1  0.24999450  0.35577350  0.15820000  1
  O  O103  1  0.74999450  0.14422650  0.84180000  1
  O  O104  1  0.74999450  0.14422650  0.65820000  1
  O  O105  1  0.24999450  0.35577350  0.34180000  1
  O  O106  1  0.25000550  0.14422650  0.84180000  1
  O  O107  1  0.75000550  0.35577350  0.15820000  1
  O  O108  1  0.00000000  0.38918900  0.43349900  1
  O  O109  1  0.50000000  0.11081100  0.56650100  1
  O  O110  1  0.00000000  0.38918900  0.06650100  1
  O  O111  1  0.50000000  0.11081100  0.93349900  1
  O  O112  1  0.50000000  0.29022600  0.36002000  1
  O  O113  1  0.00000000  0.20977400  0.63998000  1
  O  O114  1  0.50000000  0.29022600  0.13998000  1
  O  O115  1  0.00000000  0.20977400  0.86002000  1
  O  O116  1  0.75012050  0.01622350  0.85579100  1
  O  O117  1  0.25012050  0.48377650  0.14420900  1
  O  O118  1  0.24987950  0.01622350  0.64420900  1
  O  O119  1  0.74987950  0.48377650  0.35579100  1
  O  O120  1  0.74987950  0.48377650  0.14420900  1
  O  O121  1  0.24987950  0.01622350  0.85579100  1
  O  O122  1  0.25012050  0.48377650  0.35579100  1
  O  O123  1  0.75012050  0.01622350  0.64420900  1
  O  O124  1  0.50000000  0.32203200  0.25000000  1
  O  O125  1  0.00000000  0.17796800  0.75000000  1
  O  O126  1  0.00000000  0.48220400  0.25000000  1
  O  O127  1  0.50000000  0.01779600  0.75000000  1
  O  O128  1  0.50000000  0.55101700  0.55345500  1
  O  O129  1  0.00000000  0.94898300  0.44654500  1
  O  O130  1  0.50000000  0.55101700  0.94654500  1
  O  O131  1  0.00000000  0.94898300  0.05345500  1
  O  O132  1  0.24975450  0.58905950  0.46602500  1
  O  O133  1  0.74975450  0.91094050  0.53397500  1
  O  O134  1  0.75024550  0.58905950  0.03397500  1
  O  O135  1  0.25024550  0.91094050  0.96602500  1
  O  O136  1  0.25024550  0.91094050  0.53397500  1
  O  O137  1  0.75024550  0.58905950  0.46602500  1
  O  O138  1  0.74975450  0.91094050  0.96602500  1
  O  O139  1  0.24975450  0.58905950  0.03397500  1
  O  O140  1  0.50000000  0.52548100  0.43744900  1
  O  O141  1  0.00000000  0.97451900  0.56255100  1
  O  O142  1  0.50000000  0.52548100  0.06255100  1
  O  O143  1  0.00000000  0.97451900  0.93744900  1
  O  O144  1  0.25005400  0.70532700  0.53495300  1
  O  O145  1  0.75005400  0.79467300  0.46504700  1
  O  O146  1  0.74994600  0.70532700  0.96504700  1
  O  O147  1  0.24994600  0.79467300  0.03495300  1
  O  O148  1  0.24994600  0.79467300  0.46504700  1
  O  O149  1  0.74994600  0.70532700  0.53495300  1
  O  O150  1  0.75005400  0.79467300  0.03495300  1
  O  O151  1  0.25005400  0.70532700  0.96504700  1
  O  O152  1  0.00000000  0.73007800  0.43619000  1
  O  O153  1  0.50000000  0.76992200  0.56381000  1
  O  O154  1  0.00000000  0.73007800  0.06381000  1
  O  O155  1  0.50000000  0.76992200  0.93619000  1
  O  O156  1  0.00000000  0.65537200  0.46569600  1
  O  O157  1  0.50000000  0.84462800  0.53430400  1
  O  O158  1  0.00000000  0.65537200  0.03430400  1
  O  O159  1  0.50000000  0.84462800  0.96569600  1
  O  O160  1  0.50000000  0.92044500  0.32209700  1
  O  O161  1  0.00000000  0.57955500  0.67790300  1
  O  O162  1  0.50000000  0.92044500  0.17790300  1
  O  O163  1  0.00000000  0.57955500  0.82209700  1
  O  O164  1  0.25000550  0.85577350  0.34180000  1
  O  O165  1  0.75000550  0.64422650  0.65820000  1
  O  O166  1  0.74999450  0.85577350  0.15820000  1
  O  O167  1  0.24999450  0.64422650  0.84180000  1
  O  O168  1  0.24999450  0.64422650  0.65820000  1
  O  O169  1  0.74999450  0.85577350  0.34180000  1
  O  O170  1  0.75000550  0.64422650  0.84180000  1
  O  O171  1  0.25000550  0.85577350  0.15820000  1
  O  O172  1  0.50000000  0.88918900  0.43349900  1
  O  O173  1  0.00000000  0.61081100  0.56650100  1
  O  O174  1  0.50000000  0.88918900  0.06650100  1
  O  O175  1  0.00000000  0.61081100  0.93349900  1
  O  O176  1  0.00000000  0.79022600  0.36002000  1
  O  O177  1  0.50000000  0.70977400  0.63998000  1
  O  O178  1  0.00000000  0.79022600  0.13998000  1
  O  O179  1  0.50000000  0.70977400  0.86002000  1
  O  O180  1  0.25012050  0.51622350  0.85579100  1
  O  O181  1  0.75012050  0.98377650  0.14420900  1
  O  O182  1  0.74987950  0.51622350  0.64420900  1
  O  O183  1  0.24987950  0.98377650  0.35579100  1
  O  O184  1  0.24987950  0.98377650  0.14420900  1
  O  O185  1  0.74987950  0.51622350  0.85579100  1
  O  O186  1  0.75012050  0.98377650  0.35579100  1
  O  O187  1  0.25012050  0.51622350  0.64420900  1
  O  O188  1  0.00000000  0.82203200  0.25000000  1
  O  O189  1  0.50000000  0.67796800  0.75000000  1
  O  O190  1  0.50000000  0.98220400  0.25000000  1
  O  O191  1  0.00000000  0.51779600  0.75000000  1
