# generated using pymatgen
data_K2MgH8(SO6)2
_symmetry_space_group_name_H-M   'P 1'
_cell_length_a   22.24671200
_cell_length_b   9.65469200
_cell_length_c   11.88054042
_cell_angle_alpha   90.00000000
_cell_angle_beta   116.83733644
_cell_angle_gamma   90.00000000
_symmetry_Int_Tables_number   1
_chemical_formula_structural   K2MgH8(SO6)2
_chemical_formula_sum   'K16 Mg8 H64 S16 O96'
_cell_volume   2276.91785485
_cell_formula_units_Z   8
loop_
 _symmetry_equiv_pos_site_id
 _symmetry_equiv_pos_as_xyz
  1  'x, y, z'
loop_
 _atom_site_type_symbol
 _atom_site_label
 _atom_site_symmetry_multiplicity
 _atom_site_fract_x
 _atom_site_fract_y
 _atom_site_fract_z
 _atom_site_occupancy
  K  K0  1  0.37806500  0.51706500  0.29615600  1
  K  K1  1  0.37806500  0.48293500  0.79615600  1
  K  K2  1  0.12193500  0.98293500  0.70384400  1
  K  K3  1  0.12193500  0.01706500  0.20384400  1
  K  K4  1  0.12879500  0.48965500  0.21008400  1
  K  K5  1  0.12879500  0.51034500  0.71008400  1
  K  K6  1  0.37120500  0.01034500  0.78991600  1
  K  K7  1  0.37120500  0.98965500  0.28991600  1
  K  K8  1  0.87806500  0.01706500  0.29615600  1
  K  K9  1  0.87806500  0.98293500  0.79615600  1
  K  K10  1  0.62193500  0.48293500  0.70384400  1
  K  K11  1  0.62193500  0.51706500  0.20384400  1
  K  K12  1  0.62879500  0.98965500  0.21008400  1
  K  K13  1  0.62879500  0.01034500  0.71008400  1
  K  K14  1  0.87120500  0.51034500  0.78991600  1
  K  K15  1  0.87120500  0.48965500  0.28991600  1
  Mg  Mg16  1  0.00000000  0.74860600  0.25000000  1
  Mg  Mg17  1  0.00000000  0.25139400  0.75000000  1
  Mg  Mg18  1  0.25000000  0.25000000  0.50000000  1
  Mg  Mg19  1  0.25000000  0.75000000  0.00000000  1
  Mg  Mg20  1  0.50000000  0.24860600  0.25000000  1
  Mg  Mg21  1  0.50000000  0.75139400  0.75000000  1
  Mg  Mg22  1  0.75000000  0.75000000  0.50000000  1
  Mg  Mg23  1  0.75000000  0.25000000  0.00000000  1
  H  H24  1  0.30343800  0.51906300  0.97194100  1
  H  H25  1  0.30343800  0.48093700  0.47194100  1
  H  H26  1  0.19656200  0.98093700  0.02805900  1
  H  H27  1  0.19656200  0.01906300  0.52805900  1
  H  H28  1  0.36575550  0.61906250  0.03243100  1
  H  H29  1  0.36575550  0.38093750  0.53243100  1
  H  H30  1  0.13424450  0.88093750  0.96756900  1
  H  H31  1  0.13424450  0.11906250  0.46756900  1
  H  H32  1  0.30321050  0.99559850  0.97774400  1
  H  H33  1  0.30321050  0.00440150  0.47774400  1
  H  H34  1  0.19678950  0.50440150  0.02225600  1
  H  H35  1  0.19678950  0.49559850  0.52225600  1
  H  H36  1  0.36331350  0.88749150  0.02996300  1
  H  H37  1  0.36331350  0.11250850  0.52996300  1
  H  H38  1  0.13668650  0.61250850  0.97003700  1
  H  H39  1  0.13668650  0.38749150  0.47003700  1
  H  H40  1  0.48045400  0.52798800  0.17363700  1
  H  H41  1  0.48045400  0.47201200  0.67363700  1
  H  H42  1  0.01954600  0.97201200  0.82636300  1
  H  H43  1  0.01954600  0.02798800  0.32636300  1
  H  H44  1  0.48099000  0.96960100  0.17380600  1
  H  H45  1  0.48099000  0.03039900  0.67380600  1
  H  H46  1  0.01901000  0.53039900  0.82619400  1
  H  H47  1  0.01901000  0.46960100  0.32619400  1
  H  H48  1  0.36719400  0.22748400  0.04104500  1
  H  H49  1  0.36719400  0.77251600  0.54104500  1
  H  H50  1  0.13280600  0.27251600  0.95895500  1
  H  H51  1  0.13280600  0.72748400  0.45895500  1
  H  H52  1  0.36329150  0.25753650  0.16749700  1
  H  H53  1  0.36329150  0.74246350  0.66749700  1
  H  H54  1  0.13670850  0.24246350  0.83250300  1
  H  H55  1  0.13670850  0.75753650  0.33250300  1
  H  H56  1  0.80343800  0.01906300  0.97194100  1
  H  H57  1  0.80343800  0.98093700  0.47194100  1
  H  H58  1  0.69656200  0.48093700  0.02805900  1
  H  H59  1  0.69656200  0.51906300  0.52805900  1
  H  H60  1  0.86575550  0.11906250  0.03243100  1
  H  H61  1  0.86575550  0.88093750  0.53243100  1
  H  H62  1  0.63424450  0.38093750  0.96756900  1
  H  H63  1  0.63424450  0.61906250  0.46756900  1
  H  H64  1  0.80321050  0.49559850  0.97774400  1
  H  H65  1  0.80321050  0.50440150  0.47774400  1
  H  H66  1  0.69678950  0.00440150  0.02225600  1
  H  H67  1  0.69678950  0.99559850  0.52225600  1
  H  H68  1  0.86331350  0.38749150  0.02996300  1
  H  H69  1  0.86331350  0.61250850  0.52996300  1
  H  H70  1  0.63668650  0.11250850  0.97003700  1
  H  H71  1  0.63668650  0.88749150  0.47003700  1
  H  H72  1  0.98045400  0.02798800  0.17363700  1
  H  H73  1  0.98045400  0.97201200  0.67363700  1
  H  H74  1  0.51954600  0.47201200  0.82636300  1
  H  H75  1  0.51954600  0.52798800  0.32636300  1
  H  H76  1  0.98099000  0.46960100  0.17380600  1
  H  H77  1  0.98099000  0.53039900  0.67380600  1
  H  H78  1  0.51901000  0.03039900  0.82619400  1
  H  H79  1  0.51901000  0.96960100  0.32619400  1
  H  H80  1  0.86719400  0.72748400  0.04104500  1
  H  H81  1  0.86719400  0.27251600  0.54104500  1
  H  H82  1  0.63280600  0.77251600  0.95895500  1
  H  H83  1  0.63280600  0.22748400  0.45895500  1
  H  H84  1  0.86329150  0.75753650  0.16749700  1
  H  H85  1  0.86329150  0.24246350  0.66749700  1
  H  H86  1  0.63670850  0.74246350  0.83250300  1
  H  H87  1  0.63670850  0.25753650  0.33250300  1
  S  S88  1  0.47736900  0.75026400  0.02201300  1
  S  S89  1  0.47736900  0.24973600  0.52201300  1
  S  S90  1  0.02263100  0.74973600  0.97798700  1
  S  S91  1  0.02263100  0.25026400  0.47798700  1
  S  S92  1  0.25950250  0.26038150  0.79957000  1
  S  S93  1  0.25950250  0.73961850  0.29957000  1
  S  S94  1  0.24049750  0.23961850  0.20043000  1
  S  S95  1  0.24049750  0.76038150  0.70043000  1
  S  S96  1  0.97736900  0.25026400  0.02201300  1
  S  S97  1  0.97736900  0.74973600  0.52201300  1
  S  S98  1  0.52263100  0.24973600  0.97798700  1
  S  S99  1  0.52263100  0.75026400  0.47798700  1
  S  S100  1  0.75950250  0.76038150  0.79957000  1
  S  S101  1  0.75950250  0.23961850  0.29957000  1
  S  S102  1  0.74049750  0.73961850  0.20043000  1
  S  S103  1  0.74049750  0.26038150  0.70043000  1
  O  O104  1  0.05714950  0.12231250  0.46313000  1
  O  O105  1  0.05714950  0.87768750  0.96313000  1
  O  O106  1  0.44285050  0.37768750  0.53687000  1
  O  O107  1  0.44285050  0.62231250  0.03687000  1
  O  O108  1  0.44132250  0.87627150  0.03582000  1
  O  O109  1  0.44132250  0.12372850  0.53582000  1
  O  O110  1  0.05867750  0.62372850  0.96418000  1
  O  O111  1  0.05867750  0.37627150  0.46418000  1
  O  O112  1  0.30141600  0.15938000  0.90055500  1
  O  O113  1  0.30141600  0.84062000  0.40055500  1
  O  O114  1  0.19858400  0.34062000  0.09944500  1
  O  O115  1  0.19858400  0.65938000  0.59944500  1
  O  O116  1  0.27265850  0.40426450  0.85009500  1
  O  O117  1  0.27265850  0.59573550  0.35009500  1
  O  O118  1  0.22734150  0.09573550  0.14990500  1
  O  O119  1  0.22734150  0.90426450  0.64990500  1
  O  O120  1  0.02840050  0.75156050  0.10759900  1
  O  O121  1  0.02840050  0.24843950  0.60759900  1
  O  O122  1  0.47159950  0.74843950  0.89240100  1
  O  O123  1  0.47159950  0.25156050  0.39240100  1
  O  O124  1  0.04831400  0.25330600  0.11823100  1
  O  O125  1  0.04831400  0.74669400  0.61823100  1
  O  O126  1  0.45168600  0.24669400  0.88176900  1
  O  O127  1  0.45168600  0.75330600  0.38176900  1
  O  O128  1  0.21988650  0.25140550  0.30383400  1
  O  O129  1  0.21988650  0.74859450  0.80383400  1
  O  O130  1  0.28011350  0.24859450  0.69616600  1
  O  O131  1  0.28011350  0.75140550  0.19616600  1
  O  O132  1  0.18639100  0.77015600  0.24999000  1
  O  O133  1  0.18639100  0.22984400  0.74999000  1
  O  O134  1  0.31360900  0.72984400  0.75001000  1
  O  O135  1  0.31360900  0.27015600  0.25001000  1
  O  O136  1  0.32259700  0.59524300  0.03475700  1
  O  O137  1  0.32259700  0.40475700  0.53475700  1
  O  O138  1  0.17740300  0.90475700  0.96524300  1
  O  O139  1  0.17740300  0.09524300  0.46524300  1
  O  O140  1  0.31920200  0.91026100  0.02894700  1
  O  O141  1  0.31920200  0.08973900  0.52894700  1
  O  O142  1  0.18079800  0.58973900  0.97105300  1
  O  O143  1  0.18079800  0.41026100  0.47105300  1
  O  O144  1  0.00000000  0.96785500  0.25000000  1
  O  O145  1  0.00000000  0.03214500  0.75000000  1
  O  O146  1  0.00000000  0.52999900  0.25000000  1
  O  O147  1  0.00000000  0.47000100  0.75000000  1
  O  O148  1  0.39541400  0.25176700  0.13086400  1
  O  O149  1  0.39541400  0.74823300  0.63086400  1
  O  O150  1  0.10458600  0.24823300  0.86913600  1
  O  O151  1  0.10458600  0.75176700  0.36913600  1
  O  O152  1  0.55714950  0.62231250  0.46313000  1
  O  O153  1  0.55714950  0.37768750  0.96313000  1
  O  O154  1  0.94285050  0.87768750  0.53687000  1
  O  O155  1  0.94285050  0.12231250  0.03687000  1
  O  O156  1  0.94132250  0.37627150  0.03582000  1
  O  O157  1  0.94132250  0.62372850  0.53582000  1
  O  O158  1  0.55867750  0.12372850  0.96418000  1
  O  O159  1  0.55867750  0.87627150  0.46418000  1
  O  O160  1  0.80141600  0.65938000  0.90055500  1
  O  O161  1  0.80141600  0.34062000  0.40055500  1
  O  O162  1  0.69858400  0.84062000  0.09944500  1
  O  O163  1  0.69858400  0.15938000  0.59944500  1
  O  O164  1  0.77265850  0.90426450  0.85009500  1
  O  O165  1  0.77265850  0.09573550  0.35009500  1
  O  O166  1  0.72734150  0.59573550  0.14990500  1
  O  O167  1  0.72734150  0.40426450  0.64990500  1
  O  O168  1  0.52840050  0.25156050  0.10759900  1
  O  O169  1  0.52840050  0.74843950  0.60759900  1
  O  O170  1  0.97159950  0.24843950  0.89240100  1
  O  O171  1  0.97159950  0.75156050  0.39240100  1
  O  O172  1  0.54831400  0.75330600  0.11823100  1
  O  O173  1  0.54831400  0.24669400  0.61823100  1
  O  O174  1  0.95168600  0.74669400  0.88176900  1
  O  O175  1  0.95168600  0.25330600  0.38176900  1
  O  O176  1  0.71988650  0.75140550  0.30383400  1
  O  O177  1  0.71988650  0.24859450  0.80383400  1
  O  O178  1  0.78011350  0.74859450  0.69616600  1
  O  O179  1  0.78011350  0.25140550  0.19616600  1
  O  O180  1  0.68639100  0.27015600  0.24999000  1
  O  O181  1  0.68639100  0.72984400  0.74999000  1
  O  O182  1  0.81360900  0.22984400  0.75001000  1
  O  O183  1  0.81360900  0.77015600  0.25001000  1
  O  O184  1  0.82259700  0.09524300  0.03475700  1
  O  O185  1  0.82259700  0.90475700  0.53475700  1
  O  O186  1  0.67740300  0.40475700  0.96524300  1
  O  O187  1  0.67740300  0.59524300  0.46524300  1
  O  O188  1  0.81920200  0.41026100  0.02894700  1
  O  O189  1  0.81920200  0.58973900  0.52894700  1
  O  O190  1  0.68079800  0.08973900  0.97105300  1
  O  O191  1  0.68079800  0.91026100  0.47105300  1
  O  O192  1  0.50000000  0.46785500  0.25000000  1
  O  O193  1  0.50000000  0.53214500  0.75000000  1
  O  O194  1  0.50000000  0.02999900  0.25000000  1
  O  O195  1  0.50000000  0.97000100  0.75000000  1
  O  O196  1  0.89541400  0.75176700  0.13086400  1
  O  O197  1  0.89541400  0.24823300  0.63086400  1
  O  O198  1  0.60458600  0.74823300  0.86913600  1
  O  O199  1  0.60458600  0.25176700  0.36913600  1
