# generated using pymatgen
data_LiH2IO
_symmetry_space_group_name_H-M   'P 1'
_cell_length_a   5.67330700
_cell_length_b   4.39002200
_cell_length_c   6.34950663
_cell_angle_alpha   90.00000000
_cell_angle_beta   90.18648326
_cell_angle_gamma   90.00000000
_symmetry_Int_Tables_number   1
_chemical_formula_structural   LiH2IO
_chemical_formula_sum   'Li2 H4 I2 O2'
_cell_volume   158.13960971
_cell_formula_units_Z   2
loop_
 _symmetry_equiv_pos_site_id
 _symmetry_equiv_pos_as_xyz
  1  'x, y, z'
loop_
 _atom_site_type_symbol
 _atom_site_label
 _atom_site_symmetry_multiplicity
 _atom_site_fract_x
 _atom_site_fract_y
 _atom_site_fract_z
 _atom_site_occupancy
  Li  Li0  1  0.50000000  0.50000000  0.00000000  1
  Li  Li1  1  0.50000000  0.50000000  0.50000000  1
  H  H2  1  0.85762300  0.32362900  0.25027600  1
  H  H3  1  0.85762300  0.67637100  0.25027600  1
  H  H4  1  0.14237700  0.32362900  0.74972400  1
  H  H5  1  0.14237700  0.67637100  0.74972400  1
  I  I6  1  0.24928000  0.00000000  0.24924900  1
  I  I7  1  0.75072000  0.00000000  0.75075100  1
  O  O8  1  0.74860300  0.50000000  0.25040400  1
  O  O9  1  0.25139700  0.50000000  0.74959600  1
