# generated using pymatgen
data_Ce2Dy2O7
_symmetry_space_group_name_H-M   'P 1'
_cell_length_a   3.76034000
_cell_length_b   7.79039800
_cell_length_c   10.90326100
_cell_angle_alpha   90.00000000
_cell_angle_beta   90.00000000
_cell_angle_gamma   90.00000000
_symmetry_Int_Tables_number   1
_chemical_formula_structural   Ce2Dy2O7
_chemical_formula_sum   'Ce4 Dy4 O14'
_cell_volume   319.40607236
_cell_formula_units_Z   2
loop_
 _symmetry_equiv_pos_site_id
 _symmetry_equiv_pos_as_xyz
  1  'x, y, z'
loop_
 _atom_site_type_symbol
 _atom_site_label
 _atom_site_symmetry_multiplicity
 _atom_site_fract_x
 _atom_site_fract_y
 _atom_site_fract_z
 _atom_site_occupancy
  Ce  Ce0  1  0.00000000  0.25000000  0.74584400  1
  Ce  Ce1  1  0.00000000  0.75000000  0.25415600  1
  Ce  Ce2  1  0.50000000  0.50000000  0.00000000  1
  Ce  Ce3  1  0.50000000  0.00000000  0.00000000  1
  Dy  Dy4  1  0.00000000  0.25000000  0.23177100  1
  Dy  Dy5  1  0.50000000  0.50000000  0.50000000  1
  Dy  Dy6  1  0.00000000  0.75000000  0.76822900  1
  Dy  Dy7  1  0.50000000  0.00000000  0.50000000  1
  O  O8  1  0.50000000  0.25000000  0.60822300  1
  O  O9  1  0.00000000  0.45758500  0.37467600  1
  O  O10  1  0.50000000  0.25000000  0.12886200  1
  O  O11  1  0.50000000  0.75000000  0.13310700  1
  O  O12  1  0.00000000  0.51079400  0.12252600  1
  O  O13  1  0.00000000  0.48920600  0.87747400  1
  O  O14  1  0.00000000  0.01079400  0.87747400  1
  O  O15  1  0.50000000  0.75000000  0.87113800  1
  O  O16  1  0.50000000  0.25000000  0.86689300  1
  O  O17  1  0.00000000  0.95758500  0.62532400  1
  O  O18  1  0.00000000  0.04241500  0.37467600  1
  O  O19  1  0.00000000  0.54241500  0.62532400  1
  O  O20  1  0.50000000  0.75000000  0.39177700  1
  O  O21  1  0.00000000  0.98920600  0.12252600  1
