# generated using pymatgen
data_SbHO3
_symmetry_space_group_name_H-M   'P 1'
_cell_length_a   7.62492400
_cell_length_b   7.62492400
_cell_length_c   10.02079400
_cell_angle_alpha   90.00000000
_cell_angle_beta   90.00000000
_cell_angle_gamma   90.00000000
_symmetry_Int_Tables_number   1
_chemical_formula_structural   SbHO3
_chemical_formula_sum   'Sb8 H8 O24'
_cell_volume   582.60361211
_cell_formula_units_Z   8
loop_
 _symmetry_equiv_pos_site_id
 _symmetry_equiv_pos_as_xyz
  1  'x, y, z'
loop_
 _atom_site_type_symbol
 _atom_site_label
 _atom_site_symmetry_multiplicity
 _atom_site_fract_x
 _atom_site_fract_y
 _atom_site_fract_z
 _atom_site_occupancy
  Sb  Sb0  1  0.25000000  0.50000000  0.37500000  1
  Sb  Sb1  1  0.00000000  0.25000000  0.12500000  1
  Sb  Sb2  1  0.00000000  0.75000000  0.12500000  1
  Sb  Sb3  1  0.75000000  0.50000000  0.37500000  1
  Sb  Sb4  1  0.75000000  0.00000000  0.87500000  1
  Sb  Sb5  1  0.50000000  0.75000000  0.62500000  1
  Sb  Sb6  1  0.50000000  0.25000000  0.62500000  1
  Sb  Sb7  1  0.25000000  0.00000000  0.87500000  1
  H  H8  1  0.00000000  0.00000000  0.69235800  1
  H  H9  1  0.00000000  0.00000000  0.30764200  1
  H  H10  1  0.50000000  0.00000000  0.05764200  1
  H  H11  1  0.50000000  0.00000000  0.44235800  1
  H  H12  1  0.50000000  0.50000000  0.19235800  1
  H  H13  1  0.50000000  0.50000000  0.80764200  1
  H  H14  1  0.00000000  0.50000000  0.55764200  1
  H  H15  1  0.00000000  0.50000000  0.94235800  1
  O  O16  1  0.68837500  0.31162500  0.50000000  1
  O  O17  1  0.31162500  0.68837500  0.50000000  1
  O  O18  1  0.18837500  0.18837500  0.00000000  1
  O  O19  1  0.31162500  0.31162500  0.50000000  1
  O  O20  1  0.00000000  0.00000000  0.78977500  1
  O  O21  1  0.00000000  0.00000000  0.21022500  1
  O  O22  1  0.81162500  0.68837500  0.25000000  1
  O  O23  1  0.18837500  0.31162500  0.25000000  1
  O  O24  1  0.81162500  0.31162500  0.25000000  1
  O  O25  1  0.18837500  0.68837500  0.25000000  1
  O  O26  1  0.00000000  0.50000000  0.46022500  1
  O  O27  1  0.00000000  0.50000000  0.03977500  1
  O  O28  1  0.18837500  0.81162500  0.00000000  1
  O  O29  1  0.81162500  0.18837500  0.00000000  1
  O  O30  1  0.68837500  0.68837500  0.50000000  1
  O  O31  1  0.81162500  0.81162500  0.00000000  1
  O  O32  1  0.50000000  0.50000000  0.28977500  1
  O  O33  1  0.50000000  0.50000000  0.71022500  1
  O  O34  1  0.31162500  0.18837500  0.75000000  1
  O  O35  1  0.68837500  0.81162500  0.75000000  1
  O  O36  1  0.31162500  0.81162500  0.75000000  1
  O  O37  1  0.68837500  0.18837500  0.75000000  1
  O  O38  1  0.50000000  0.00000000  0.96022500  1
  O  O39  1  0.50000000  0.00000000  0.53977500  1
