# generated using pymatgen
data_SiO2
_symmetry_space_group_name_H-M   'P 1'
_cell_length_a   8.67126800
_cell_length_b   19.26388400
_cell_length_c   23.56083000
_cell_angle_alpha   90.00000000
_cell_angle_beta   90.00000000
_cell_angle_gamma   90.00000000
_symmetry_Int_Tables_number   1
_chemical_formula_structural   SiO2
_chemical_formula_sum   'Si64 O128'
_cell_volume   3935.65525396
_cell_formula_units_Z   64
loop_
 _symmetry_equiv_pos_site_id
 _symmetry_equiv_pos_as_xyz
  1  'x, y, z'
loop_
 _atom_site_type_symbol
 _atom_site_label
 _atom_site_symmetry_multiplicity
 _atom_site_fract_x
 _atom_site_fract_y
 _atom_site_fract_z
 _atom_site_occupancy
  Si  Si0  1  0.18356750  0.35857850  0.22707350  1
  Si  Si1  1  0.68180750  0.50000000  0.25653450  1
  Si  Si2  1  0.18356750  0.64142150  0.22707350  1
  Si  Si3  1  0.31559550  0.76690350  0.16392950  1
  Si  Si4  1  0.81643250  0.64142150  0.22707350  1
  Si  Si5  1  0.18531750  0.85661450  0.93409450  1
  Si  Si6  1  0.68180750  0.50000000  0.74346550  1
  Si  Si7  1  0.68440450  0.23309650  0.83607050  1
  Si  Si8  1  0.81643250  0.35857850  0.77292650  1
  Si  Si9  1  0.81468250  0.85661450  0.06590550  1
  Si  Si10  1  0.18531750  0.14338550  0.93409450  1
  Si  Si11  1  0.18531750  0.85661450  0.06590550  1
  Si  Si12  1  0.81643250  0.64142150  0.77292650  1
  Si  Si13  1  0.68440450  0.76690350  0.83607050  1
  Si  Si14  1  0.81468250  0.85661450  0.93409450  1
  Si  Si15  1  0.81468250  0.14338550  0.06590550  1
  Si  Si16  1  0.68440450  0.76690350  0.16392950  1
  Si  Si17  1  0.31819250  0.50000000  0.25653450  1
  Si  Si18  1  0.31559550  0.76690350  0.83607050  1
  Si  Si19  1  0.18356750  0.64142150  0.77292650  1
  Si  Si20  1  0.81468250  0.14338550  0.93409450  1
  Si  Si21  1  0.18430150  0.50000000  0.61808450  1
  Si  Si22  1  0.68440450  0.23309650  0.16392950  1
  Si  Si23  1  0.31819250  0.50000000  0.74346550  1
  Si  Si24  1  0.31559550  0.23309650  0.83607050  1
  Si  Si25  1  0.18356750  0.35857850  0.77292650  1
  Si  Si26  1  0.81569850  0.50000000  0.38191550  1
  Si  Si27  1  0.81643250  0.35857850  0.22707350  1
  Si  Si28  1  0.18531750  0.14338550  0.06590550  1
  Si  Si29  1  0.31559550  0.23309650  0.16392950  1
  Si  Si30  1  0.81569850  0.50000000  0.61808450  1
  Si  Si31  1  0.18430150  0.50000000  0.38191550  1
  Si  Si32  1  0.68356750  0.85857850  0.72707350  1
  Si  Si33  1  0.18180750  0.00000000  0.75653450  1
  Si  Si34  1  0.68356750  0.14142150  0.72707350  1
  Si  Si35  1  0.81559550  0.26690350  0.66392950  1
  Si  Si36  1  0.31643250  0.14142150  0.72707350  1
  Si  Si37  1  0.68531750  0.35661450  0.43409450  1
  Si  Si38  1  0.18180750  0.00000000  0.24346550  1
  Si  Si39  1  0.18440450  0.73309650  0.33607050  1
  Si  Si40  1  0.31643250  0.85857850  0.27292650  1
  Si  Si41  1  0.31468250  0.35661450  0.56590550  1
  Si  Si42  1  0.68531750  0.64338550  0.43409450  1
  Si  Si43  1  0.68531750  0.35661450  0.56590550  1
  Si  Si44  1  0.31643250  0.14142150  0.27292650  1
  Si  Si45  1  0.18440450  0.26690350  0.33607050  1
  Si  Si46  1  0.31468250  0.35661450  0.43409450  1
  Si  Si47  1  0.31468250  0.64338550  0.56590550  1
  Si  Si48  1  0.18440450  0.26690350  0.66392950  1
  Si  Si49  1  0.81819250  0.00000000  0.75653450  1
  Si  Si50  1  0.81559550  0.26690350  0.33607050  1
  Si  Si51  1  0.68356750  0.14142150  0.27292650  1
  Si  Si52  1  0.31468250  0.64338550  0.43409450  1
  Si  Si53  1  0.68430150  0.00000000  0.11808450  1
  Si  Si54  1  0.18440450  0.73309650  0.66392950  1
  Si  Si55  1  0.81819250  0.00000000  0.24346550  1
  Si  Si56  1  0.81559550  0.73309650  0.33607050  1
  Si  Si57  1  0.68356750  0.85857850  0.27292650  1
  Si  Si58  1  0.31569850  0.00000000  0.88191550  1
  Si  Si59  1  0.31643250  0.85857850  0.72707350  1
  Si  Si60  1  0.68531750  0.64338550  0.56590550  1
  Si  Si61  1  0.81559550  0.73309650  0.66392950  1
  Si  Si62  1  0.31569850  0.00000000  0.11808450  1
  Si  Si63  1  0.68430150  0.00000000  0.88191550  1
  O  O64  1  0.72240950  0.56908750  0.21931850  1
  O  O65  1  0.00000000  0.62533550  0.77351550  1
  O  O66  1  0.23298400  0.32329400  0.28765700  1
  O  O67  1  0.22765850  0.69360850  0.17515850  1
  O  O68  1  0.00000000  0.62533550  0.22648450  1
  O  O69  1  0.23864950  0.15108750  0.00000000  1
  O  O70  1  0.26889850  0.79535550  0.89813550  1
  O  O71  1  0.00000000  0.37466450  0.77351550  1
  O  O72  1  0.00000000  0.37466450  0.22648450  1
  O  O73  1  0.26302800  0.43193800  0.41042400  1
  O  O74  1  0.73110150  0.20464450  0.10186450  1
  O  O75  1  0.26889850  0.20464450  0.10186450  1
  O  O76  1  0.22765850  0.30639150  0.17515850  1
  O  O77  1  0.27759050  0.43091250  0.78068150  1
  O  O78  1  0.50000000  0.24712400  0.83369200  1
  O  O79  1  0.26302800  0.43193800  0.58957600  1
  O  O80  1  0.27759050  0.56908750  0.78068150  1
  O  O81  1  0.73697200  0.56806200  0.41042400  1
  O  O82  1  0.00000000  0.85118550  0.07125050  1
  O  O83  1  0.72240950  0.43091250  0.21931850  1
  O  O84  1  0.77234150  0.30639150  0.17515850  1
  O  O85  1  0.73697200  0.43193800  0.58957600  1
  O  O86  1  0.76701600  0.67670600  0.28765700  1
  O  O87  1  0.21423400  0.50000000  0.31407300  1
  O  O88  1  0.00000000  0.85118550  0.92874950  1
  O  O89  1  0.76135050  0.84891250  0.00000000  1
  O  O90  1  0.22765850  0.30639150  0.82484150  1
  O  O91  1  0.77234150  0.30639150  0.82484150  1
  O  O92  1  0.23298400  0.32329400  0.71234300  1
  O  O93  1  0.72240950  0.43091250  0.78068150  1
  O  O94  1  0.72240950  0.56908750  0.78068150  1
  O  O95  1  0.26302800  0.56806200  0.41042400  1
  O  O96  1  0.76701600  0.32329400  0.28765700  1
  O  O97  1  0.21423400  0.50000000  0.68592700  1
  O  O98  1  0.27759050  0.43091250  0.21931850  1
  O  O99  1  0.50000000  0.75287600  0.83369200  1
  O  O100  1  0.73697200  0.43193800  0.41042400  1
  O  O101  1  0.26889850  0.20464450  0.89813550  1
  O  O102  1  0.76135050  0.15108750  0.00000000  1
  O  O103  1  0.50000000  0.24712400  0.16630800  1
  O  O104  1  0.76701600  0.67670600  0.71234300  1
  O  O105  1  0.73697200  0.56806200  0.58957600  1
  O  O106  1  0.00000000  0.14881450  0.92874950  1
  O  O107  1  0.26889850  0.79535550  0.10186450  1
  O  O108  1  0.23298400  0.67670600  0.71234300  1
  O  O109  1  0.50000000  0.50000000  0.27304600  1
  O  O110  1  0.77234150  0.69360850  0.82484150  1
  O  O111  1  0.00000000  0.14881450  0.07125050  1
  O  O112  1  0.77234150  0.69360850  0.17515850  1
  O  O113  1  0.73110150  0.20464450  0.89813550  1
  O  O114  1  0.00000000  0.50000000  0.39356800  1
  O  O115  1  0.26302800  0.56806200  0.58957600  1
  O  O116  1  0.00000000  0.50000000  0.60643200  1
  O  O117  1  0.73110150  0.79535550  0.89813550  1
  O  O118  1  0.73110150  0.79535550  0.10186450  1
  O  O119  1  0.27759050  0.56908750  0.21931850  1
  O  O120  1  0.50000000  0.75287600  0.16630800  1
  O  O121  1  0.22765850  0.69360850  0.82484150  1
  O  O122  1  0.23298400  0.67670600  0.28765700  1
  O  O123  1  0.50000000  0.50000000  0.72695400  1
  O  O124  1  0.78576600  0.50000000  0.31407300  1
  O  O125  1  0.78576600  0.50000000  0.68592700  1
  O  O126  1  0.76701600  0.32329400  0.71234300  1
  O  O127  1  0.23864950  0.84891250  0.00000000  1
  O  O128  1  0.22240950  0.06908750  0.71931850  1
  O  O129  1  0.50000000  0.12533550  0.27351550  1
  O  O130  1  0.73298400  0.82329400  0.78765700  1
  O  O131  1  0.72765850  0.19360850  0.67515850  1
  O  O132  1  0.50000000  0.12533550  0.72648450  1
  O  O133  1  0.73864950  0.65108750  0.50000000  1
  O  O134  1  0.76889850  0.29535550  0.39813550  1
  O  O135  1  0.50000000  0.87466450  0.27351550  1
  O  O136  1  0.50000000  0.87466450  0.72648450  1
  O  O137  1  0.76302800  0.93193800  0.91042400  1
  O  O138  1  0.23110150  0.70464450  0.60186450  1
  O  O139  1  0.76889850  0.70464450  0.60186450  1
  O  O140  1  0.72765850  0.80639150  0.67515850  1
  O  O141  1  0.77759050  0.93091250  0.28068150  1
  O  O142  1  0.00000000  0.74712400  0.33369200  1
  O  O143  1  0.76302800  0.93193800  0.08957600  1
  O  O144  1  0.77759050  0.06908750  0.28068150  1
  O  O145  1  0.23697200  0.06806200  0.91042400  1
  O  O146  1  0.50000000  0.35118550  0.57125050  1
  O  O147  1  0.22240950  0.93091250  0.71931850  1
  O  O148  1  0.27234150  0.80639150  0.67515850  1
  O  O149  1  0.23697200  0.93193800  0.08957600  1
  O  O150  1  0.26701600  0.17670600  0.78765700  1
  O  O151  1  0.71423400  0.00000000  0.81407300  1
  O  O152  1  0.50000000  0.35118550  0.42874950  1
  O  O153  1  0.26135050  0.34891250  0.50000000  1
  O  O154  1  0.72765850  0.80639150  0.32484150  1
  O  O155  1  0.27234150  0.80639150  0.32484150  1
  O  O156  1  0.73298400  0.82329400  0.21234300  1
  O  O157  1  0.22240950  0.93091250  0.28068150  1
  O  O158  1  0.22240950  0.06908750  0.28068150  1
  O  O159  1  0.76302800  0.06806200  0.91042400  1
  O  O160  1  0.26701600  0.82329400  0.78765700  1
  O  O161  1  0.71423400  0.00000000  0.18592700  1
  O  O162  1  0.77759050  0.93091250  0.71931850  1
  O  O163  1  0.00000000  0.25287600  0.33369200  1
  O  O164  1  0.23697200  0.93193800  0.91042400  1
  O  O165  1  0.76889850  0.70464450  0.39813550  1
  O  O166  1  0.26135050  0.65108750  0.50000000  1
  O  O167  1  0.00000000  0.74712400  0.66630800  1
  O  O168  1  0.26701600  0.17670600  0.21234300  1
  O  O169  1  0.23697200  0.06806200  0.08957600  1
  O  O170  1  0.50000000  0.64881450  0.42874950  1
  O  O171  1  0.76889850  0.29535550  0.60186450  1
  O  O172  1  0.73298400  0.17670600  0.21234300  1
  O  O173  1  0.00000000  0.00000000  0.77304600  1
  O  O174  1  0.27234150  0.19360850  0.32484150  1
  O  O175  1  0.50000000  0.64881450  0.57125050  1
  O  O176  1  0.27234150  0.19360850  0.67515850  1
  O  O177  1  0.23110150  0.70464450  0.39813550  1
  O  O178  1  0.50000000  0.00000000  0.89356800  1
  O  O179  1  0.76302800  0.06806200  0.08957600  1
  O  O180  1  0.50000000  0.00000000  0.10643200  1
  O  O181  1  0.23110150  0.29535550  0.39813550  1
  O  O182  1  0.23110150  0.29535550  0.60186450  1
  O  O183  1  0.77759050  0.06908750  0.71931850  1
  O  O184  1  0.00000000  0.25287600  0.66630800  1
  O  O185  1  0.72765850  0.19360850  0.32484150  1
  O  O186  1  0.73298400  0.17670600  0.78765700  1
  O  O187  1  0.00000000  0.00000000  0.22695400  1
  O  O188  1  0.28576600  0.00000000  0.81407300  1
  O  O189  1  0.28576600  0.00000000  0.18592700  1
  O  O190  1  0.26701600  0.82329400  0.21234300  1
  O  O191  1  0.73864950  0.34891250  0.50000000  1
