# generated using pymatgen
data_Cs7Cd3Br13
_symmetry_space_group_name_H-M   'P 1'
_cell_length_a   18.49208800
_cell_length_b   18.49208800
_cell_length_c   11.40934400
_cell_angle_alpha   90.00000000
_cell_angle_beta   90.00000000
_cell_angle_gamma   90.00000000
_symmetry_Int_Tables_number   1
_chemical_formula_structural   Cs7Cd3Br13
_chemical_formula_sum   'Cs28 Cd12 Br52'
_cell_volume   3901.50868122
_cell_formula_units_Z   4
loop_
 _symmetry_equiv_pos_site_id
 _symmetry_equiv_pos_as_xyz
  1  'x, y, z'
loop_
 _atom_site_type_symbol
 _atom_site_label
 _atom_site_symmetry_multiplicity
 _atom_site_fract_x
 _atom_site_fract_y
 _atom_site_fract_z
 _atom_site_occupancy
  Cs  Cs0  1  0.50000000  0.69985600  0.75000000  1
  Cs  Cs1  1  0.28960600  0.21039400  0.00000000  1
  Cs  Cs2  1  0.80014400  0.00000000  0.75000000  1
  Cs  Cs3  1  0.50000000  0.30014400  0.25000000  1
  Cs  Cs4  1  0.71039400  0.21039400  0.50000000  1
  Cs  Cs5  1  0.19985600  0.00000000  0.25000000  1
  Cs  Cs6  1  0.19985600  0.00000000  0.75000000  1
  Cs  Cs7  1  0.50000000  0.69985600  0.25000000  1
  Cs  Cs8  1  0.28960600  0.78960600  0.50000000  1
  Cs  Cs9  1  0.80014400  0.00000000  0.25000000  1
  Cs  Cs10  1  0.50000000  0.00000000  0.75000000  1
  Cs  Cs11  1  0.50000000  0.30014400  0.75000000  1
  Cs  Cs12  1  0.71039400  0.78960600  0.00000000  1
  Cs  Cs13  1  0.50000000  0.00000000  0.25000000  1
  Cs  Cs14  1  0.00000000  0.19985600  0.25000000  1
  Cs  Cs15  1  0.78960600  0.71039400  0.50000000  1
  Cs  Cs16  1  0.30014400  0.50000000  0.25000000  1
  Cs  Cs17  1  0.00000000  0.80014400  0.75000000  1
  Cs  Cs18  1  0.21039400  0.71039400  0.00000000  1
  Cs  Cs19  1  0.69985600  0.50000000  0.75000000  1
  Cs  Cs20  1  0.69985600  0.50000000  0.25000000  1
  Cs  Cs21  1  0.00000000  0.19985600  0.75000000  1
  Cs  Cs22  1  0.78960600  0.28960600  0.00000000  1
  Cs  Cs23  1  0.30014400  0.50000000  0.75000000  1
  Cs  Cs24  1  0.00000000  0.50000000  0.25000000  1
  Cs  Cs25  1  0.00000000  0.80014400  0.25000000  1
  Cs  Cs26  1  0.21039400  0.28960600  0.50000000  1
  Cs  Cs27  1  0.00000000  0.50000000  0.75000000  1
  Cd  Cd28  1  0.62711100  0.12711100  0.00000000  1
  Cd  Cd29  1  0.37288900  0.12711100  0.50000000  1
  Cd  Cd30  1  0.37288900  0.87288900  0.00000000  1
  Cd  Cd31  1  0.00000000  0.00000000  0.00000000  1
  Cd  Cd32  1  0.62711100  0.87288900  0.50000000  1
  Cd  Cd33  1  0.00000000  0.00000000  0.50000000  1
  Cd  Cd34  1  0.12711100  0.62711100  0.50000000  1
  Cd  Cd35  1  0.87288900  0.62711100  0.00000000  1
  Cd  Cd36  1  0.87288900  0.37288900  0.50000000  1
  Cd  Cd37  1  0.50000000  0.50000000  0.50000000  1
  Cd  Cd38  1  0.12711100  0.37288900  0.00000000  1
  Cd  Cd39  1  0.50000000  0.50000000  0.00000000  1
  Br  Br40  1  0.65632400  0.01153900  0.50000000  1
  Br  Br41  1  0.10977500  0.89197700  0.50000000  1
  Br  Br42  1  0.67628900  0.82371100  0.30128500  1
  Br  Br43  1  0.32371100  0.82371100  0.19871500  1
  Br  Br44  1  0.51153900  0.15632400  0.50000000  1
  Br  Br45  1  0.34367600  0.98846100  0.50000000  1
  Br  Br46  1  0.67628900  0.17628900  0.19871500  1
  Br  Br47  1  0.39197700  0.39022500  0.00000000  1
  Br  Br48  1  0.34367600  0.01153900  0.00000000  1
  Br  Br49  1  0.60802300  0.39022500  0.50000000  1
  Br  Br50  1  0.89022500  0.89197700  0.00000000  1
  Br  Br51  1  0.39197700  0.60977500  0.50000000  1
  Br  Br52  1  0.32371100  0.17628900  0.69871500  1
  Br  Br53  1  0.32371100  0.82371100  0.80128500  1
  Br  Br54  1  0.48846100  0.15632400  0.00000000  1
  Br  Br55  1  0.48846100  0.84367600  0.50000000  1
  Br  Br56  1  0.51153900  0.84367600  0.00000000  1
  Br  Br57  1  0.00000000  0.00000000  0.25000000  1
  Br  Br58  1  0.00000000  0.00000000  0.75000000  1
  Br  Br59  1  0.67628900  0.17628900  0.80128500  1
  Br  Br60  1  0.67628900  0.82371100  0.69871500  1
  Br  Br61  1  0.89022500  0.10802300  0.50000000  1
  Br  Br62  1  0.60802300  0.60977500  0.00000000  1
  Br  Br63  1  0.10977500  0.10802300  0.00000000  1
  Br  Br64  1  0.65632400  0.98846100  0.00000000  1
  Br  Br65  1  0.32371100  0.17628900  0.30128500  1
  Br  Br66  1  0.15632400  0.51153900  0.00000000  1
  Br  Br67  1  0.60977500  0.39197700  0.00000000  1
  Br  Br68  1  0.17628900  0.32371100  0.80128500  1
  Br  Br69  1  0.82371100  0.32371100  0.69871500  1
  Br  Br70  1  0.01153900  0.65632400  0.00000000  1
  Br  Br71  1  0.84367600  0.48846100  0.00000000  1
  Br  Br72  1  0.17628900  0.67628900  0.69871500  1
  Br  Br73  1  0.89197700  0.89022500  0.50000000  1
  Br  Br74  1  0.84367600  0.51153900  0.50000000  1
  Br  Br75  1  0.10802300  0.89022500  0.00000000  1
  Br  Br76  1  0.39022500  0.39197700  0.50000000  1
  Br  Br77  1  0.89197700  0.10977500  0.00000000  1
  Br  Br78  1  0.82371100  0.67628900  0.19871500  1
  Br  Br79  1  0.82371100  0.32371100  0.30128500  1
  Br  Br80  1  0.98846100  0.65632400  0.50000000  1
  Br  Br81  1  0.98846100  0.34367600  0.00000000  1
  Br  Br82  1  0.01153900  0.34367600  0.50000000  1
  Br  Br83  1  0.50000000  0.50000000  0.75000000  1
  Br  Br84  1  0.50000000  0.50000000  0.25000000  1
  Br  Br85  1  0.17628900  0.67628900  0.30128500  1
  Br  Br86  1  0.17628900  0.32371100  0.19871500  1
  Br  Br87  1  0.39022500  0.60802300  0.00000000  1
  Br  Br88  1  0.10802300  0.10977500  0.50000000  1
  Br  Br89  1  0.60977500  0.60802300  0.50000000  1
  Br  Br90  1  0.15632400  0.48846100  0.50000000  1
  Br  Br91  1  0.82371100  0.67628900  0.80128500  1
