# generated using pymatgen
data_La2Ti3(AgO5)2
_symmetry_space_group_name_H-M   'P 1'
_cell_length_a   3.86394800
_cell_length_b   3.86394800
_cell_length_c   29.26071600
_cell_angle_alpha   90.00000000
_cell_angle_beta   90.00000000
_cell_angle_gamma   90.00000000
_symmetry_Int_Tables_number   1
_chemical_formula_structural   La2Ti3(AgO5)2
_chemical_formula_sum   'La4 Ti6 Ag4 O20'
_cell_volume   436.86524468
_cell_formula_units_Z   2
loop_
 _symmetry_equiv_pos_site_id
 _symmetry_equiv_pos_as_xyz
  1  'x, y, z'
loop_
 _atom_site_type_symbol
 _atom_site_label
 _atom_site_symmetry_multiplicity
 _atom_site_fract_x
 _atom_site_fract_y
 _atom_site_fract_z
 _atom_site_occupancy
  La  La0  1  0.00000000  0.00000000  0.42574900  1
  La  La1  1  0.50000000  0.50000000  0.07425100  1
  La  La2  1  0.50000000  0.50000000  0.92574900  1
  La  La3  1  0.00000000  0.00000000  0.57425100  1
  Ti  Ti4  1  0.50000000  0.50000000  0.35410600  1
  Ti  Ti5  1  0.00000000  0.00000000  0.14589400  1
  Ti  Ti6  1  0.00000000  0.00000000  0.00000000  1
  Ti  Ti7  1  0.00000000  0.00000000  0.85410600  1
  Ti  Ti8  1  0.50000000  0.50000000  0.64589400  1
  Ti  Ti9  1  0.50000000  0.50000000  0.50000000  1
  Ag  Ag10  1  0.00000000  0.00000000  0.28536900  1
  Ag  Ag11  1  0.50000000  0.50000000  0.21463100  1
  Ag  Ag12  1  0.50000000  0.50000000  0.78536900  1
  Ag  Ag13  1  0.00000000  0.00000000  0.71463100  1
  O  O14  1  0.50000000  0.50000000  0.29336100  1
  O  O15  1  0.00000000  0.00000000  0.20663900  1
  O  O16  1  0.50000000  0.00000000  0.36927600  1
  O  O17  1  0.00000000  0.50000000  0.36927600  1
  O  O18  1  0.00000000  0.50000000  0.13072400  1
  O  O19  1  0.50000000  0.00000000  0.13072400  1
  O  O20  1  0.50000000  0.50000000  0.43342700  1
  O  O21  1  0.50000000  0.00000000  0.00000000  1
  O  O22  1  0.00000000  0.50000000  0.00000000  1
  O  O23  1  0.00000000  0.00000000  0.06657300  1
  O  O24  1  0.00000000  0.00000000  0.79336100  1
  O  O25  1  0.50000000  0.50000000  0.70663900  1
  O  O26  1  0.00000000  0.50000000  0.86927600  1
  O  O27  1  0.50000000  0.00000000  0.86927600  1
  O  O28  1  0.50000000  0.00000000  0.63072400  1
  O  O29  1  0.00000000  0.50000000  0.63072400  1
  O  O30  1  0.00000000  0.00000000  0.93342700  1
  O  O31  1  0.00000000  0.50000000  0.50000000  1
  O  O32  1  0.50000000  0.00000000  0.50000000  1
  O  O33  1  0.50000000  0.50000000  0.56657300  1
