# generated using pymatgen
data_K2H6PbO6
_symmetry_space_group_name_H-M   'P 1'
_cell_length_a   6.71916770
_cell_length_b   6.71916770
_cell_length_c   13.24934068
_cell_angle_alpha   90.00000000
_cell_angle_beta   90.00000000
_cell_angle_gamma   120.00000000
_symmetry_Int_Tables_number   1
_chemical_formula_structural   K2H6PbO6
_chemical_formula_sum   'K6 H18 Pb3 O18'
_cell_volume   518.03113116
_cell_formula_units_Z   3
loop_
 _symmetry_equiv_pos_site_id
 _symmetry_equiv_pos_as_xyz
  1  'x, y, z'
loop_
 _atom_site_type_symbol
 _atom_site_label
 _atom_site_symmetry_multiplicity
 _atom_site_fract_x
 _atom_site_fract_y
 _atom_site_fract_z
 _atom_site_occupancy
  K  K0  1  0.33333333  0.66666667  0.38108267  1
  K  K1  1  0.33333333  0.66666667  0.95225067  1
  K  K2  1  0.00000000  0.00000000  0.71441600  1
  K  K3  1  0.00000000  0.00000000  0.28558400  1
  K  K4  1  0.66666667  0.33333333  0.04774933  1
  K  K5  1  0.66666667  0.33333333  0.61891733  1
  H  H6  1  0.00491967  0.45413133  0.19742333  1
  H  H7  1  0.54586867  0.55078833  0.19742333  1
  H  H8  1  0.44921167  0.99508033  0.19742333  1
  H  H9  1  0.66174700  0.87920200  0.13591000  1
  H  H10  1  0.12079800  0.78254500  0.13591000  1
  H  H11  1  0.21745500  0.33825300  0.13591000  1
  H  H12  1  0.67158633  0.78746467  0.53075667  1
  H  H13  1  0.21253533  0.88412167  0.53075667  1
  H  H14  1  0.11587833  0.32841367  0.53075667  1
  H  H15  1  0.32841367  0.21253533  0.46924333  1
  H  H16  1  0.78746467  0.11587833  0.46924333  1
  H  H17  1  0.88412167  0.67158633  0.46924333  1
  H  H18  1  0.33825300  0.12079800  0.86409000  1
  H  H19  1  0.87920200  0.21745500  0.86409000  1
  H  H20  1  0.78254500  0.66174700  0.86409000  1
  H  H21  1  0.99508033  0.54586867  0.80257667  1
  H  H22  1  0.45413133  0.44921167  0.80257667  1
  H  H23  1  0.55078833  0.00491967  0.80257667  1
  Pb  Pb24  1  0.00000000  0.00000000  0.00000000  1
  Pb  Pb25  1  0.66666667  0.33333333  0.33333333  1
  Pb  Pb26  1  0.33333333  0.66666667  0.66666667  1
  O  O27  1  0.97179033  0.55613067  0.23945567  1
  O  O28  1  0.44386933  0.41565967  0.23945567  1
  O  O29  1  0.58434033  0.02820967  0.23945567  1
  O  O30  1  0.69487633  0.77720267  0.09387767  1
  O  O31  1  0.22279733  0.91767367  0.09387767  1
  O  O32  1  0.08232633  0.30512367  0.09387767  1
  O  O33  1  0.63845700  0.88946400  0.57278900  1
  O  O34  1  0.11053600  0.74899300  0.57278900  1
  O  O35  1  0.25100700  0.36154300  0.57278900  1
  O  O36  1  0.36154300  0.11053600  0.42721100  1
  O  O37  1  0.88946400  0.25100700  0.42721100  1
  O  O38  1  0.74899300  0.63845700  0.42721100  1
  O  O39  1  0.30512367  0.22279733  0.90612233  1
  O  O40  1  0.77720267  0.08232633  0.90612233  1
  O  O41  1  0.91767367  0.69487633  0.90612233  1
  O  O42  1  0.02820967  0.44386933  0.76054433  1
  O  O43  1  0.55613067  0.58434033  0.76054433  1
  O  O44  1  0.41565967  0.97179033  0.76054433  1
