# generated using pymatgen
data_Li4Mo3O8
_symmetry_space_group_name_H-M   'P 1'
_cell_length_a   6.21675391
_cell_length_b   6.21675391
_cell_length_c   14.70240144
_cell_angle_alpha   90.00000000
_cell_angle_beta   90.00000000
_cell_angle_gamma   120.00000000
_symmetry_Int_Tables_number   1
_chemical_formula_structural   Li4Mo3O8
_chemical_formula_sum   'Li12 Mo9 O24'
_cell_volume   492.09195057
_cell_formula_units_Z   3
loop_
 _symmetry_equiv_pos_site_id
 _symmetry_equiv_pos_as_xyz
  1  'x, y, z'
loop_
 _atom_site_type_symbol
 _atom_site_label
 _atom_site_symmetry_multiplicity
 _atom_site_fract_x
 _atom_site_fract_y
 _atom_site_fract_z
 _atom_site_occupancy
  Li  Li0  1  0.00000000  0.00000000  0.00000000  1
  Li  Li1  1  0.16666667  0.33333333  0.33333333  1
  Li  Li2  1  0.00000000  0.50000000  0.00000000  1
  Li  Li3  1  0.50000000  0.50000000  0.00000000  1
  Li  Li4  1  0.66666667  0.33333333  0.33333333  1
  Li  Li5  1  0.83333333  0.66666667  0.66666667  1
  Li  Li6  1  0.66666667  0.83333333  0.33333333  1
  Li  Li7  1  0.16666667  0.83333333  0.33333333  1
  Li  Li8  1  0.33333333  0.66666667  0.66666667  1
  Li  Li9  1  0.50000000  0.00000000  0.00000000  1
  Li  Li10  1  0.33333333  0.16666667  0.66666667  1
  Li  Li11  1  0.83333333  0.16666667  0.66666667  1
  Mo  Mo12  1  0.16666667  0.33333333  0.83333333  1
  Mo  Mo13  1  0.33333333  0.16666667  0.16666667  1
  Mo  Mo14  1  0.83333333  0.16666667  0.16666667  1
  Mo  Mo15  1  0.83333333  0.66666667  0.16666667  1
  Mo  Mo16  1  0.00000000  0.50000000  0.50000000  1
  Mo  Mo17  1  0.50000000  0.50000000  0.50000000  1
  Mo  Mo18  1  0.50000000  0.00000000  0.50000000  1
  Mo  Mo19  1  0.66666667  0.83333333  0.83333333  1
  Mo  Mo20  1  0.16666667  0.83333333  0.83333333  1
  O  O21  1  0.51511833  0.03023667  0.24310067  1
  O  O22  1  0.33333333  0.66666667  0.91623067  1
  O  O23  1  0.51511833  0.48488167  0.24310067  1
  O  O24  1  0.69690333  0.84845167  0.09023267  1
  O  O25  1  0.96976333  0.48488167  0.24310067  1
  O  O26  1  0.15154833  0.84845167  0.09023267  1
  O  O27  1  0.33333333  0.66666667  0.41710267  1
  O  O28  1  0.15154833  0.30309667  0.09023267  1
  O  O29  1  0.18178500  0.36357000  0.57643400  1
  O  O30  1  0.00000000  0.00000000  0.24956400  1
  O  O31  1  0.18178500  0.81821500  0.57643400  1
  O  O32  1  0.36357000  0.18178500  0.42356600  1
  O  O33  1  0.63643000  0.81821500  0.57643400  1
  O  O34  1  0.81821500  0.18178500  0.42356600  1
  O  O35  1  0.00000000  0.00000000  0.75043600  1
  O  O36  1  0.81821500  0.63643000  0.42356600  1
  O  O37  1  0.84845167  0.69690333  0.90976733  1
  O  O38  1  0.66666667  0.33333333  0.58289733  1
  O  O39  1  0.84845167  0.15154833  0.90976733  1
  O  O40  1  0.03023667  0.51511833  0.75689933  1
  O  O41  1  0.30309667  0.15154833  0.90976733  1
  O  O42  1  0.48488167  0.51511833  0.75689933  1
  O  O43  1  0.66666667  0.33333333  0.08376933  1
  O  O44  1  0.48488167  0.96976333  0.75689933  1
