# generated using pymatgen
data_Na3MgC2BrO6
_symmetry_space_group_name_H-M   'P 1'
_cell_length_a   14.41134800
_cell_length_b   14.41134800
_cell_length_c   14.41134800
_cell_angle_alpha   90.00000000
_cell_angle_beta   90.00000000
_cell_angle_gamma   90.00000000
_symmetry_Int_Tables_number   1
_chemical_formula_structural   Na3MgC2BrO6
_chemical_formula_sum   'Na48 Mg16 C32 Br16 O96'
_cell_volume   2993.04892847
_cell_formula_units_Z   16
loop_
 _symmetry_equiv_pos_site_id
 _symmetry_equiv_pos_as_xyz
  1  'x, y, z'
loop_
 _atom_site_type_symbol
 _atom_site_label
 _atom_site_symmetry_multiplicity
 _atom_site_fract_x
 _atom_site_fract_y
 _atom_site_fract_z
 _atom_site_occupancy
  Na  Na0  1  0.00991500  0.25000000  0.25000000  1
  Na  Na1  1  0.50000000  0.75991500  0.50000000  1
  Na  Na2  1  0.50000000  0.24008500  0.50000000  1
  Na  Na3  1  0.25000000  0.25000000  0.49008500  1
  Na  Na4  1  0.25000000  0.49008500  0.25000000  1
  Na  Na5  1  0.74008500  0.00000000  0.50000000  1
  Na  Na6  1  0.49008500  0.25000000  0.25000000  1
  Na  Na7  1  0.25991500  0.00000000  0.50000000  1
  Na  Na8  1  0.25000000  0.00991500  0.25000000  1
  Na  Na9  1  0.50000000  0.00000000  0.25991500  1
  Na  Na10  1  0.00000000  0.00000000  0.24008500  1
  Na  Na11  1  0.25000000  0.25000000  0.00991500  1
  Na  Na12  1  0.00991500  0.75000000  0.75000000  1
  Na  Na13  1  0.50000000  0.25991500  0.00000000  1
  Na  Na14  1  0.50000000  0.74008500  0.00000000  1
  Na  Na15  1  0.25000000  0.75000000  0.99008500  1
  Na  Na16  1  0.25000000  0.99008500  0.75000000  1
  Na  Na17  1  0.74008500  0.50000000  0.00000000  1
  Na  Na18  1  0.49008500  0.75000000  0.75000000  1
  Na  Na19  1  0.25991500  0.50000000  0.00000000  1
  Na  Na20  1  0.25000000  0.50991500  0.75000000  1
  Na  Na21  1  0.50000000  0.50000000  0.75991500  1
  Na  Na22  1  0.00000000  0.50000000  0.74008500  1
  Na  Na23  1  0.25000000  0.75000000  0.50991500  1
  Na  Na24  1  0.50991500  0.25000000  0.75000000  1
  Na  Na25  1  0.00000000  0.75991500  0.00000000  1
  Na  Na26  1  0.00000000  0.24008500  0.00000000  1
  Na  Na27  1  0.75000000  0.25000000  0.99008500  1
  Na  Na28  1  0.75000000  0.49008500  0.75000000  1
  Na  Na29  1  0.24008500  0.00000000  0.00000000  1
  Na  Na30  1  0.99008500  0.25000000  0.75000000  1
  Na  Na31  1  0.75991500  0.00000000  0.00000000  1
  Na  Na32  1  0.75000000  0.00991500  0.75000000  1
  Na  Na33  1  0.00000000  0.00000000  0.75991500  1
  Na  Na34  1  0.50000000  0.00000000  0.74008500  1
  Na  Na35  1  0.75000000  0.25000000  0.50991500  1
  Na  Na36  1  0.50991500  0.75000000  0.25000000  1
  Na  Na37  1  0.00000000  0.25991500  0.50000000  1
  Na  Na38  1  0.00000000  0.74008500  0.50000000  1
  Na  Na39  1  0.75000000  0.75000000  0.49008500  1
  Na  Na40  1  0.75000000  0.99008500  0.25000000  1
  Na  Na41  1  0.24008500  0.50000000  0.50000000  1
  Na  Na42  1  0.99008500  0.75000000  0.25000000  1
  Na  Na43  1  0.75991500  0.50000000  0.50000000  1
  Na  Na44  1  0.75000000  0.50991500  0.25000000  1
  Na  Na45  1  0.00000000  0.50000000  0.25991500  1
  Na  Na46  1  0.50000000  0.50000000  0.24008500  1
  Na  Na47  1  0.75000000  0.75000000  0.00991500  1
  Mg  Mg48  1  0.37500000  0.87500000  0.12500000  1
  Mg  Mg49  1  0.12500000  0.62500000  0.12500000  1
  Mg  Mg50  1  0.12500000  0.87500000  0.37500000  1
  Mg  Mg51  1  0.37500000  0.62500000  0.37500000  1
  Mg  Mg52  1  0.37500000  0.37500000  0.62500000  1
  Mg  Mg53  1  0.12500000  0.12500000  0.62500000  1
  Mg  Mg54  1  0.12500000  0.37500000  0.87500000  1
  Mg  Mg55  1  0.37500000  0.12500000  0.87500000  1
  Mg  Mg56  1  0.87500000  0.87500000  0.62500000  1
  Mg  Mg57  1  0.62500000  0.62500000  0.62500000  1
  Mg  Mg58  1  0.62500000  0.87500000  0.87500000  1
  Mg  Mg59  1  0.87500000  0.62500000  0.87500000  1
  Mg  Mg60  1  0.87500000  0.37500000  0.12500000  1
  Mg  Mg61  1  0.62500000  0.12500000  0.12500000  1
  Mg  Mg62  1  0.62500000  0.37500000  0.37500000  1
  Mg  Mg63  1  0.87500000  0.12500000  0.37500000  1
  C  C64  1  0.40890000  0.40890000  0.40890000  1
  C  C65  1  0.40890000  0.09110000  0.09110000  1
  C  C66  1  0.09110000  0.40890000  0.09110000  1
  C  C67  1  0.34110000  0.84110000  0.34110000  1
  C  C68  1  0.65890000  0.15890000  0.34110000  1
  C  C69  1  0.15890000  0.84110000  0.15890000  1
  C  C70  1  0.09110000  0.09110000  0.40890000  1
  C  C71  1  0.84110000  0.15890000  0.15890000  1
  C  C72  1  0.40890000  0.90890000  0.90890000  1
  C  C73  1  0.40890000  0.59110000  0.59110000  1
  C  C74  1  0.09110000  0.90890000  0.59110000  1
  C  C75  1  0.34110000  0.34110000  0.84110000  1
  C  C76  1  0.65890000  0.65890000  0.84110000  1
  C  C77  1  0.15890000  0.34110000  0.65890000  1
  C  C78  1  0.09110000  0.59110000  0.90890000  1
  C  C79  1  0.84110000  0.65890000  0.65890000  1
  C  C80  1  0.90890000  0.40890000  0.90890000  1
  C  C81  1  0.90890000  0.09110000  0.59110000  1
  C  C82  1  0.59110000  0.40890000  0.59110000  1
  C  C83  1  0.84110000  0.84110000  0.84110000  1
  C  C84  1  0.15890000  0.15890000  0.84110000  1
  C  C85  1  0.65890000  0.84110000  0.65890000  1
  C  C86  1  0.59110000  0.09110000  0.90890000  1
  C  C87  1  0.34110000  0.15890000  0.65890000  1
  C  C88  1  0.90890000  0.90890000  0.40890000  1
  C  C89  1  0.90890000  0.59110000  0.09110000  1
  C  C90  1  0.59110000  0.90890000  0.09110000  1
  C  C91  1  0.84110000  0.34110000  0.34110000  1
  C  C92  1  0.15890000  0.65890000  0.34110000  1
  C  C93  1  0.65890000  0.34110000  0.15890000  1
  C  C94  1  0.59110000  0.59110000  0.40890000  1
  C  C95  1  0.34110000  0.65890000  0.15890000  1
  Br  Br96  1  0.87500000  0.87500000  0.12500000  1
  Br  Br97  1  0.62500000  0.87500000  0.37500000  1
  Br  Br98  1  0.12500000  0.12500000  0.12500000  1
  Br  Br99  1  0.37500000  0.12500000  0.37500000  1
  Br  Br100  1  0.87500000  0.37500000  0.62500000  1
  Br  Br101  1  0.62500000  0.37500000  0.87500000  1
  Br  Br102  1  0.12500000  0.62500000  0.62500000  1
  Br  Br103  1  0.37500000  0.62500000  0.87500000  1
  Br  Br104  1  0.37500000  0.87500000  0.62500000  1
  Br  Br105  1  0.12500000  0.87500000  0.87500000  1
  Br  Br106  1  0.62500000  0.12500000  0.62500000  1
  Br  Br107  1  0.87500000  0.12500000  0.87500000  1
  Br  Br108  1  0.37500000  0.37500000  0.12500000  1
  Br  Br109  1  0.12500000  0.37500000  0.37500000  1
  Br  Br110  1  0.62500000  0.62500000  0.12500000  1
  Br  Br111  1  0.87500000  0.62500000  0.37500000  1
  O  O112  1  0.12845900  0.37154100  0.01823500  1
  O  O113  1  0.12154100  0.87845900  0.23176500  1
  O  O114  1  0.37154100  0.48176500  0.37154100  1
  O  O115  1  0.26823500  0.87845900  0.37845900  1
  O  O116  1  0.48176500  0.37154100  0.37154100  1
  O  O117  1  0.12154100  0.76823500  0.12154100  1
  O  O118  1  0.37845900  0.87845900  0.26823500  1
  O  O119  1  0.37845900  0.76823500  0.37845900  1
  O  O120  1  0.37154100  0.37154100  0.48176500  1
  O  O121  1  0.23176500  0.87845900  0.12154100  1
  O  O122  1  0.87845900  0.23176500  0.12154100  1
  O  O123  1  0.87845900  0.12154100  0.23176500  1
  O  O124  1  0.73176500  0.12154100  0.37845900  1
  O  O125  1  0.01823500  0.37154100  0.12845900  1
  O  O126  1  0.12845900  0.12845900  0.48176500  1
  O  O127  1  0.62154100  0.12154100  0.26823500  1
  O  O128  1  0.12845900  0.01823500  0.37154100  1
  O  O129  1  0.37154100  0.12845900  0.01823500  1
  O  O130  1  0.48176500  0.12845900  0.12845900  1
  O  O131  1  0.62154100  0.23176500  0.37845900  1
  O  O132  1  0.37154100  0.01823500  0.12845900  1
  O  O133  1  0.01823500  0.12845900  0.37154100  1
  O  O134  1  0.12845900  0.48176500  0.12845900  1
  O  O135  1  0.76823500  0.12154100  0.12154100  1
  O  O136  1  0.12845900  0.87154100  0.51823500  1
  O  O137  1  0.12154100  0.37845900  0.73176500  1
  O  O138  1  0.37154100  0.98176500  0.87154100  1
  O  O139  1  0.26823500  0.37845900  0.87845900  1
  O  O140  1  0.48176500  0.87154100  0.87154100  1
  O  O141  1  0.12154100  0.26823500  0.62154100  1
  O  O142  1  0.37845900  0.37845900  0.76823500  1
  O  O143  1  0.37845900  0.26823500  0.87845900  1
  O  O144  1  0.37154100  0.87154100  0.98176500  1
  O  O145  1  0.23176500  0.37845900  0.62154100  1
  O  O146  1  0.87845900  0.73176500  0.62154100  1
  O  O147  1  0.87845900  0.62154100  0.73176500  1
  O  O148  1  0.73176500  0.62154100  0.87845900  1
  O  O149  1  0.01823500  0.87154100  0.62845900  1
  O  O150  1  0.12845900  0.62845900  0.98176500  1
  O  O151  1  0.62154100  0.62154100  0.76823500  1
  O  O152  1  0.12845900  0.51823500  0.87154100  1
  O  O153  1  0.37154100  0.62845900  0.51823500  1
  O  O154  1  0.48176500  0.62845900  0.62845900  1
  O  O155  1  0.62154100  0.73176500  0.87845900  1
  O  O156  1  0.37154100  0.51823500  0.62845900  1
  O  O157  1  0.01823500  0.62845900  0.87154100  1
  O  O158  1  0.12845900  0.98176500  0.62845900  1
  O  O159  1  0.76823500  0.62154100  0.62154100  1
  O  O160  1  0.62845900  0.37154100  0.51823500  1
  O  O161  1  0.62154100  0.87845900  0.73176500  1
  O  O162  1  0.87154100  0.48176500  0.87154100  1
  O  O163  1  0.76823500  0.87845900  0.87845900  1
  O  O164  1  0.98176500  0.37154100  0.87154100  1
  O  O165  1  0.62154100  0.76823500  0.62154100  1
  O  O166  1  0.87845900  0.87845900  0.76823500  1
  O  O167  1  0.87845900  0.76823500  0.87845900  1
  O  O168  1  0.87154100  0.37154100  0.98176500  1
  O  O169  1  0.73176500  0.87845900  0.62154100  1
  O  O170  1  0.37845900  0.23176500  0.62154100  1
  O  O171  1  0.37845900  0.12154100  0.73176500  1
  O  O172  1  0.23176500  0.12154100  0.87845900  1
  O  O173  1  0.51823500  0.37154100  0.62845900  1
  O  O174  1  0.62845900  0.12845900  0.98176500  1
  O  O175  1  0.12154100  0.12154100  0.76823500  1
  O  O176  1  0.62845900  0.01823500  0.87154100  1
  O  O177  1  0.87154100  0.12845900  0.51823500  1
  O  O178  1  0.98176500  0.12845900  0.62845900  1
  O  O179  1  0.12154100  0.23176500  0.87845900  1
  O  O180  1  0.87154100  0.01823500  0.62845900  1
  O  O181  1  0.51823500  0.12845900  0.87154100  1
  O  O182  1  0.62845900  0.48176500  0.62845900  1
  O  O183  1  0.26823500  0.12154100  0.62154100  1
  O  O184  1  0.62845900  0.87154100  0.01823500  1
  O  O185  1  0.62154100  0.37845900  0.23176500  1
  O  O186  1  0.87154100  0.98176500  0.37154100  1
  O  O187  1  0.76823500  0.37845900  0.37845900  1
  O  O188  1  0.98176500  0.87154100  0.37154100  1
  O  O189  1  0.62154100  0.26823500  0.12154100  1
  O  O190  1  0.87845900  0.37845900  0.26823500  1
  O  O191  1  0.87845900  0.26823500  0.37845900  1
  O  O192  1  0.87154100  0.87154100  0.48176500  1
  O  O193  1  0.73176500  0.37845900  0.12154100  1
  O  O194  1  0.37845900  0.73176500  0.12154100  1
  O  O195  1  0.37845900  0.62154100  0.23176500  1
  O  O196  1  0.23176500  0.62154100  0.37845900  1
  O  O197  1  0.51823500  0.87154100  0.12845900  1
  O  O198  1  0.62845900  0.62845900  0.48176500  1
  O  O199  1  0.12154100  0.62154100  0.26823500  1
  O  O200  1  0.62845900  0.51823500  0.37154100  1
  O  O201  1  0.87154100  0.62845900  0.01823500  1
  O  O202  1  0.98176500  0.62845900  0.12845900  1
  O  O203  1  0.12154100  0.73176500  0.37845900  1
  O  O204  1  0.87154100  0.51823500  0.12845900  1
  O  O205  1  0.51823500  0.62845900  0.37154100  1
  O  O206  1  0.62845900  0.98176500  0.12845900  1
  O  O207  1  0.26823500  0.62154100  0.12154100  1
