# generated using pymatgen
data_Ca4ThF12
_symmetry_space_group_name_H-M   'P 1'
_cell_length_a   3.97016000
_cell_length_b   4.09507762
_cell_length_c   16.13171946
_cell_angle_alpha   90.41176599
_cell_angle_beta   96.38583799
_cell_angle_gamma   117.61311709
_symmetry_Int_Tables_number   1
_chemical_formula_structural   Ca4ThF12
_chemical_formula_sum   'Ca4 Th1 F12'
_cell_volume   230.44166951
_cell_formula_units_Z   1
loop_
 _symmetry_equiv_pos_site_id
 _symmetry_equiv_pos_as_xyz
  1  'x, y, z'
loop_
 _atom_site_type_symbol
 _atom_site_label
 _atom_site_symmetry_multiplicity
 _atom_site_fract_x
 _atom_site_fract_y
 _atom_site_fract_z
 _atom_site_occupancy
  Ca  Ca0  1  0.94562900  0.95351000  0.98206200  1
  Ca  Ca1  1  0.13575600  0.56084300  0.78961500  1
  Ca  Ca2  1  0.35979300  0.17847100  0.59860500  1
  Ca  Ca3  1  0.59264200  0.78508400  0.40591500  1
  Th  Th4  1  0.77075100  0.34906900  0.19490000  1
  F  F5  1  0.22235900  0.57773800  0.93416300  1
  F  F6  1  0.66989100  0.83296900  0.55214100  1
  F  F7  1  0.83057900  0.90285100  0.83624100  1
  F  F8  1  0.44303500  0.21617500  0.74402300  1
  F  F9  1  0.92127000  0.47214400  0.35296000  1
  F  F10  1  0.05067300  0.52421500  0.64469900  1
  F  F11  1  0.97450800  0.89687200  0.12439800  1
  F  F12  1  0.28995400  0.14505800  0.45358000  1
  F  F13  1  0.22492300  0.14812300  0.26405500  1
  F  F14  1  0.55729400  0.79215600  0.26248500  1
  F  F15  1  0.30806300  0.53739500  0.12368500  1
  F  F16  1  0.60688000  0.22732800  0.03647400  1
