# generated using pymatgen
data_Mo8P9H56N12ClO56
_symmetry_space_group_name_H-M   'P 1'
_cell_length_a   9.82178600
_cell_length_b   9.82178600
_cell_length_c   14.84188800
_cell_angle_alpha   90.00000000
_cell_angle_beta   90.00000000
_cell_angle_gamma   90.00000000
_symmetry_Int_Tables_number   1
_chemical_formula_structural   Mo8P9H56N12ClO56
_chemical_formula_sum   'Mo8 P9 H56 N12 Cl1 O56'
_cell_volume   1431.75953721
_cell_formula_units_Z   1
loop_
 _symmetry_equiv_pos_site_id
 _symmetry_equiv_pos_as_xyz
  1  'x, y, z'
loop_
 _atom_site_type_symbol
 _atom_site_label
 _atom_site_symmetry_multiplicity
 _atom_site_fract_x
 _atom_site_fract_y
 _atom_site_fract_z
 _atom_site_occupancy
  Mo  Mo0  1  0.14391000  0.37048600  0.83755300  1
  Mo  Mo1  1  0.64817400  0.12375000  0.80659200  1
  Mo  Mo2  1  0.62951400  0.14391000  0.16244700  1
  Mo  Mo3  1  0.35182600  0.87625000  0.80659200  1
  Mo  Mo4  1  0.85609000  0.62951400  0.83755300  1
  Mo  Mo5  1  0.37048600  0.85609000  0.16244700  1
  Mo  Mo6  1  0.12375000  0.35182600  0.19340800  1
  Mo  Mo7  1  0.87625000  0.64817400  0.19340800  1
  P  P8  1  0.64823800  0.82244100  0.69140400  1
  P  P9  1  0.64956800  0.85883700  0.30008600  1
  P  P10  1  0.35043200  0.14116300  0.30008600  1
  P  P11  1  0.82244100  0.35176200  0.30859600  1
  P  P12  1  0.14116300  0.64956800  0.69991400  1
  P  P13  1  0.35176200  0.17755900  0.69140400  1
  P  P14  1  0.50000000  0.50000000  0.50000000  1
  P  P15  1  0.85883700  0.35043200  0.69991400  1
  P  P16  1  0.17755900  0.64823800  0.30859600  1
  H  H17  1  0.58553200  0.51239200  0.20186800  1
  H  H18  1  0.08656400  0.99871500  0.70341500  1
  H  H19  1  0.68940700  0.04653800  0.58834800  1
  H  H20  1  0.32673800  0.66517700  0.41860800  1
  H  H21  1  0.63329800  0.89360900  0.05199400  1
  H  H22  1  0.48995600  0.58542500  0.28169600  1
  H  H23  1  0.00128500  0.08656400  0.29658500  1
  H  H24  1  0.51004400  0.41457500  0.28169600  1
  H  H25  1  0.48760800  0.58553200  0.79813200  1
  H  H26  1  0.31059300  0.95346200  0.58834800  1
  H  H27  1  0.24045600  0.12322500  0.97495400  1
  H  H28  1  0.36670200  0.10639100  0.05199400  1
  H  H29  1  0.10639100  0.63329800  0.94800600  1
  H  H30  1  0.11185900  0.22097900  0.49884600  1
  H  H31  1  0.33482300  0.32673800  0.58139200  1
  H  H32  1  0.68737300  0.73565100  0.02164100  1
  H  H33  1  0.00189700  0.08550800  0.78348300  1
  H  H34  1  0.51239200  0.41446800  0.79813200  1
  H  H35  1  0.04653800  0.31059300  0.41165200  1
  H  H36  1  0.67326200  0.33482300  0.41860800  1
  H  H37  1  0.64608300  0.01106600  0.47957800  1
  H  H38  1  0.01106600  0.35391700  0.52042200  1
  H  H39  1  0.87677500  0.24045600  0.02504600  1
  H  H40  1  0.31262700  0.26434900  0.02164100  1
  H  H41  1  0.75954400  0.87677500  0.97495400  1
  H  H42  1  0.99810300  0.91449200  0.78348300  1
  H  H43  1  0.98893400  0.64608300  0.52042200  1
  H  H44  1  0.95346200  0.68940700  0.41165200  1
  H  H45  1  0.41446800  0.48760800  0.20186800  1
  H  H46  1  0.40072900  0.16815100  0.94954000  1
  H  H47  1  0.89360900  0.36670200  0.94800600  1
  H  H48  1  0.88814100  0.77902100  0.49884600  1
  H  H49  1  0.77902100  0.11185900  0.50115400  1
  H  H50  1  0.56920700  0.75032000  0.42109200  1
  H  H51  1  0.26434900  0.68737300  0.97835900  1
  H  H52  1  0.83044400  0.61976200  0.47707900  1
  H  H53  1  0.75032000  0.43079300  0.57890800  1
  H  H54  1  0.61976200  0.16955600  0.52292100  1
  H  H55  1  0.91343600  0.00128500  0.70341500  1
  H  H56  1  0.38023800  0.83044400  0.52292100  1
  H  H57  1  0.83184900  0.40072900  0.05046000  1
  H  H58  1  0.16815100  0.59927100  0.05046000  1
  H  H59  1  0.35391700  0.98893400  0.47957800  1
  H  H60  1  0.08550800  0.99810300  0.21651700  1
  H  H61  1  0.43079300  0.24968000  0.42109200  1
  H  H62  1  0.66517700  0.67326200  0.58139200  1
  H  H63  1  0.99871500  0.91343600  0.29658500  1
  H  H64  1  0.22097900  0.88814100  0.50115400  1
  H  H65  1  0.16955600  0.38023800  0.47707900  1
  H  H66  1  0.24968000  0.56920700  0.57890800  1
  H  H67  1  0.59927100  0.83184900  0.94954000  1
  H  H68  1  0.91449200  0.00189700  0.21651700  1
  H  H69  1  0.12322500  0.75954400  0.02504600  1
  H  H70  1  0.58542500  0.51004400  0.71830400  1
  H  H71  1  0.41457500  0.48995600  0.71830400  1
  H  H72  1  0.73565100  0.31262700  0.97835900  1
  N  N73  1  0.16547800  0.67088800  0.00006000  1
  N  N74  1  0.91435000  0.68217600  0.47718600  1
  N  N75  1  0.00000000  0.00000000  0.25711400  1
  N  N76  1  0.50000000  0.50000000  0.24198700  1
  N  N77  1  0.08565000  0.31782400  0.47718600  1
  N  N78  1  0.50000000  0.50000000  0.75801300  1
  N  N79  1  0.31782400  0.91435000  0.52281400  1
  N  N80  1  0.67088800  0.83452200  0.99994000  1
  N  N81  1  0.83452200  0.32911200  0.00006000  1
  N  N82  1  0.00000000  0.00000000  0.74288600  1
  N  N83  1  0.32911200  0.16547800  0.99994000  1
  N  N84  1  0.68217600  0.08565000  0.52281400  1
  Cl  Cl85  1  0.00000000  0.00000000  0.50000000  1
  O  O86  1  0.01019500  0.33131000  0.71486000  1
  O  O87  1  0.59673500  0.26901800  0.86645800  1
  O  O88  1  0.79071200  0.46723800  0.75105500  1
  O  O89  1  0.78396200  0.78191300  0.27628400  1
  O  O90  1  0.49309900  0.81276700  0.69715500  1
  O  O91  1  0.74249300  0.58026800  0.92146200  1
  O  O92  1  0.78191300  0.21603800  0.72371600  1
  O  O93  1  0.37032200  0.47255200  0.55827600  1
  O  O94  1  0.94835500  0.76548600  0.11979400  1
  O  O95  1  0.00000000  0.50000000  0.87227100  1
  O  O96  1  0.69321900  0.77318900  0.59469900  1
  O  O97  1  0.25750700  0.41973200  0.92146200  1
  O  O98  1  0.26982600  0.71464900  0.23631700  1
  O  O99  1  0.20928800  0.53276200  0.75105500  1
  O  O100  1  0.22428500  0.92968300  0.11586900  1
  O  O101  1  0.58026800  0.25750700  0.07853800  1
  O  O102  1  0.62967800  0.52744800  0.55827600  1
  O  O103  1  0.66869000  0.01019500  0.28514000  1
  O  O104  1  0.07031700  0.22428500  0.88413100  1
  O  O105  1  0.77571500  0.07031700  0.11586900  1
  O  O106  1  0.76548600  0.05164500  0.88020600  1
  O  O107  1  0.37603000  0.16269900  0.40526100  1
  O  O108  1  0.33131000  0.98980500  0.28514000  1
  O  O109  1  0.03069600  0.70263600  0.30168000  1
  O  O110  1  0.21808700  0.78396200  0.72371600  1
  O  O111  1  0.21603800  0.21808700  0.27628400  1
  O  O112  1  0.62397000  0.83730100  0.40526100  1
  O  O113  1  0.96930400  0.29736400  0.30168000  1
  O  O114  1  0.23451400  0.94835500  0.88020600  1
  O  O115  1  0.52744800  0.37032200  0.44172400  1
  O  O116  1  0.05164500  0.23451400  0.11979400  1
  O  O117  1  0.47255200  0.62967800  0.44172400  1
  O  O118  1  0.28535100  0.26982600  0.76368300  1
  O  O119  1  0.83730100  0.37603000  0.59473900  1
  O  O120  1  0.22681100  0.69321900  0.40530100  1
  O  O121  1  0.50000000  0.00000000  0.83524200  1
  O  O122  1  0.41973200  0.74249300  0.07853800  1
  O  O123  1  0.00000000  0.50000000  0.16475800  1
  O  O124  1  0.73098200  0.59673500  0.13354200  1
  O  O125  1  0.98980500  0.66869000  0.71486000  1
  O  O126  1  0.81276700  0.50690100  0.30284500  1
  O  O127  1  0.50690100  0.18723300  0.69715500  1
  O  O128  1  0.30678100  0.22681100  0.59469900  1
  O  O129  1  0.92968300  0.77571500  0.88413100  1
  O  O130  1  0.26901800  0.40326500  0.13354200  1
  O  O131  1  0.73017400  0.28535100  0.23631700  1
  O  O132  1  0.50000000  0.00000000  0.12772900  1
  O  O133  1  0.16269900  0.62397000  0.59473900  1
  O  O134  1  0.18723300  0.49309900  0.30284500  1
  O  O135  1  0.53276200  0.79071200  0.24894500  1
  O  O136  1  0.29736400  0.03069600  0.69832000  1
  O  O137  1  0.77318900  0.30678100  0.40530100  1
  O  O138  1  0.71464900  0.73017400  0.76368300  1
  O  O139  1  0.70263600  0.96930400  0.69832000  1
  O  O140  1  0.46723800  0.20928800  0.24894500  1
  O  O141  1  0.40326500  0.73098200  0.86645800  1
