# generated using pymatgen
data_Ce(Mo3Se4)2
_symmetry_space_group_name_H-M   'P 1'
_cell_length_a   9.52396413
_cell_length_b   9.52396413
_cell_length_c   11.99638735
_cell_angle_alpha   90.00000000
_cell_angle_beta   90.00000000
_cell_angle_gamma   120.00000000
_symmetry_Int_Tables_number   1
_chemical_formula_structural   Ce(Mo3Se4)2
_chemical_formula_sum   'Ce3 Mo18 Se24'
_cell_volume   942.35950220
_cell_formula_units_Z   3
loop_
 _symmetry_equiv_pos_site_id
 _symmetry_equiv_pos_as_xyz
  1  'x, y, z'
loop_
 _atom_site_type_symbol
 _atom_site_label
 _atom_site_symmetry_multiplicity
 _atom_site_fract_x
 _atom_site_fract_y
 _atom_site_fract_z
 _atom_site_occupancy
  Ce  Ce0  1  0.00000000  0.00000000  0.00000000  1
  Ce  Ce1  1  0.66666667  0.33333333  0.33333333  1
  Ce  Ce2  1  0.33333333  0.66666667  0.66666667  1
  Mo  Mo3  1  0.31656967  0.49594233  0.26038133  1
  Mo  Mo4  1  0.17937267  0.68343033  0.26038133  1
  Mo  Mo5  1  0.50405767  0.82062733  0.26038133  1
  Mo  Mo6  1  0.16260900  0.51270600  0.07295200  1
  Mo  Mo7  1  0.48729400  0.64990300  0.07295200  1
  Mo  Mo8  1  0.35009700  0.83739100  0.07295200  1
  Mo  Mo9  1  0.98323633  0.82927567  0.59371467  1
  Mo  Mo10  1  0.84603933  0.01676367  0.59371467  1
  Mo  Mo11  1  0.17072433  0.15396067  0.59371467  1
  Mo  Mo12  1  0.82927567  0.84603933  0.40628533  1
  Mo  Mo13  1  0.15396067  0.98323633  0.40628533  1
  Mo  Mo14  1  0.01676367  0.17072433  0.40628533  1
  Mo  Mo15  1  0.64990300  0.16260900  0.92704800  1
  Mo  Mo16  1  0.51270600  0.35009700  0.92704800  1
  Mo  Mo17  1  0.83739100  0.48729400  0.92704800  1
  Mo  Mo18  1  0.49594233  0.17937267  0.73961867  1
  Mo  Mo19  1  0.82062733  0.31656967  0.73961867  1
  Mo  Mo20  1  0.68343033  0.50405767  0.73961867  1
  Se  Se21  1  0.29039333  0.32797867  0.08361967  1
  Se  Se22  1  0.03758533  0.70960667  0.08361967  1
  Se  Se23  1  0.33333333  0.66666667  0.90621267  1
  Se  Se24  1  0.67202133  0.96241467  0.08361967  1
  Se  Se25  1  0.99464533  0.37091867  0.24971367  1
  Se  Se26  1  0.33333333  0.66666667  0.42712067  1
  Se  Se27  1  0.62908133  0.62372667  0.24971367  1
  Se  Se28  1  0.37627333  0.00535467  0.24971367  1
  Se  Se29  1  0.95706000  0.66131200  0.41695300  1
  Se  Se30  1  0.70425200  0.04294000  0.41695300  1
  Se  Se31  1  0.00000000  0.00000000  0.23954600  1
  Se  Se32  1  0.33868800  0.29574800  0.41695300  1
  Se  Se33  1  0.66131200  0.70425200  0.58304700  1
  Se  Se34  1  0.00000000  0.00000000  0.76045400  1
  Se  Se35  1  0.29574800  0.95706000  0.58304700  1
  Se  Se36  1  0.04294000  0.33868800  0.58304700  1
  Se  Se37  1  0.62372667  0.99464533  0.75028633  1
  Se  Se38  1  0.37091867  0.37627333  0.75028633  1
  Se  Se39  1  0.66666667  0.33333333  0.57287933  1
  Se  Se40  1  0.00535467  0.62908133  0.75028633  1
  Se  Se41  1  0.32797867  0.03758533  0.91638033  1
  Se  Se42  1  0.66666667  0.33333333  0.09378733  1
  Se  Se43  1  0.96241467  0.29039333  0.91638033  1
  Se  Se44  1  0.70960667  0.67202133  0.91638033  1
