# generated using pymatgen
data_Rh2O3
_symmetry_space_group_name_H-M   'P 1'
_cell_length_a   5.22933800
_cell_length_b   5.51363400
_cell_length_c   14.96002900
_cell_angle_alpha   90.00000000
_cell_angle_beta   90.00000000
_cell_angle_gamma   90.00000000
_symmetry_Int_Tables_number   1
_chemical_formula_structural   Rh2O3
_chemical_formula_sum   'Rh16 O24'
_cell_volume   431.33736683
_cell_formula_units_Z   8
loop_
 _symmetry_equiv_pos_site_id
 _symmetry_equiv_pos_as_xyz
  1  'x, y, z'
loop_
 _atom_site_type_symbol
 _atom_site_label
 _atom_site_symmetry_multiplicity
 _atom_site_fract_x
 _atom_site_fract_y
 _atom_site_fract_z
 _atom_site_occupancy
  Rh  Rh0  1  0.49871000  0.18999500  0.07485900  1
  Rh  Rh1  1  0.00129000  0.81000500  0.57485900  1
  Rh  Rh2  1  0.50129700  0.73632600  0.67867700  1
  Rh  Rh3  1  0.49870300  0.23632600  0.82132300  1
  Rh  Rh4  1  0.99870300  0.26367400  0.17867700  1
  Rh  Rh5  1  0.00129700  0.76367400  0.32132300  1
  Rh  Rh6  1  0.50129700  0.76367400  0.17867700  1
  Rh  Rh7  1  0.49870300  0.26367400  0.32132300  1
  Rh  Rh8  1  0.99871000  0.31000500  0.92514100  1
  Rh  Rh9  1  0.49871000  0.31000500  0.57485900  1
  Rh  Rh10  1  0.99871000  0.18999500  0.42514100  1
  Rh  Rh11  1  0.50129000  0.68999500  0.42514100  1
  Rh  Rh12  1  0.99870300  0.23632600  0.67867700  1
  Rh  Rh13  1  0.00129700  0.73632600  0.82132300  1
  Rh  Rh14  1  0.00129000  0.68999500  0.07485900  1
  Rh  Rh15  1  0.50129000  0.81000500  0.92514100  1
  O  O16  1  0.80157800  0.97997000  0.12358600  1
  O  O17  1  0.14894700  0.34889200  0.05261200  1
  O  O18  1  0.64207000  0.62784100  0.29723300  1
  O  O19  1  0.30157800  0.97997000  0.37641400  1
  O  O20  1  0.35793000  0.37215900  0.70276700  1
  O  O21  1  0.30157800  0.52003000  0.87641400  1
  O  O22  1  0.14894700  0.15110800  0.55261200  1
  O  O23  1  0.35105300  0.65110800  0.55261200  1
  O  O24  1  0.14207000  0.62784100  0.20276700  1
  O  O25  1  0.64894700  0.34889200  0.44738800  1
  O  O26  1  0.69842200  0.02003000  0.62358600  1
  O  O27  1  0.19842200  0.02003000  0.87641400  1
  O  O28  1  0.14207000  0.87215900  0.70276700  1
  O  O29  1  0.85105300  0.65110800  0.94738800  1
  O  O30  1  0.64894700  0.15110800  0.94738800  1
  O  O31  1  0.35105300  0.84889200  0.05261200  1
  O  O32  1  0.85105300  0.84889200  0.44738800  1
  O  O33  1  0.35793000  0.12784100  0.20276700  1
  O  O34  1  0.64207000  0.87215900  0.79723300  1
  O  O35  1  0.80157800  0.52003000  0.62358600  1
  O  O36  1  0.69842200  0.47997000  0.12358600  1
  O  O37  1  0.19842200  0.47997000  0.37641400  1
  O  O38  1  0.85793000  0.37215900  0.79723300  1
  O  O39  1  0.85793000  0.12784100  0.29723300  1
