# generated using pymatgen
data_Na2CaSn2(GeO4)3
_symmetry_space_group_name_H-M   'P 1'
_cell_length_a   12.60391600
_cell_length_b   12.60391600
_cell_length_c   12.66066200
_cell_angle_alpha   90.00000000
_cell_angle_beta   90.00000000
_cell_angle_gamma   90.00000000
_symmetry_Int_Tables_number   1
_chemical_formula_structural   Na2CaSn2(GeO4)3
_chemical_formula_sum   'Na16 Ca8 Sn16 Ge24 O96'
_cell_volume   2011.25628791
_cell_formula_units_Z   8
loop_
 _symmetry_equiv_pos_site_id
 _symmetry_equiv_pos_as_xyz
  1  'x, y, z'
loop_
 _atom_site_type_symbol
 _atom_site_label
 _atom_site_symmetry_multiplicity
 _atom_site_fract_x
 _atom_site_fract_y
 _atom_site_fract_z
 _atom_site_occupancy
  Na  Na0  1  0.25000000  0.12609800  0.12500000  1
  Na  Na1  1  0.37390200  0.75000000  0.37500000  1
  Na  Na2  1  0.12609800  0.75000000  0.87500000  1
  Na  Na3  1  0.25000000  0.62609800  0.12500000  1
  Na  Na4  1  0.37390200  0.25000000  0.87500000  1
  Na  Na5  1  0.25000000  0.37390200  0.62500000  1
  Na  Na6  1  0.12609800  0.25000000  0.37500000  1
  Na  Na7  1  0.25000000  0.87390200  0.62500000  1
  Na  Na8  1  0.75000000  0.62609800  0.62500000  1
  Na  Na9  1  0.87390200  0.25000000  0.87500000  1
  Na  Na10  1  0.62609800  0.25000000  0.37500000  1
  Na  Na11  1  0.75000000  0.12609800  0.62500000  1
  Na  Na12  1  0.87390200  0.75000000  0.37500000  1
  Na  Na13  1  0.75000000  0.87390200  0.12500000  1
  Na  Na14  1  0.62609800  0.75000000  0.87500000  1
  Na  Na15  1  0.75000000  0.37390200  0.12500000  1
  Ca  Ca16  1  0.00000000  0.50000000  0.00000000  1
  Ca  Ca17  1  0.50000000  0.00000000  0.00000000  1
  Ca  Ca18  1  0.00000000  0.00000000  0.75000000  1
  Ca  Ca19  1  0.00000000  0.00000000  0.25000000  1
  Ca  Ca20  1  0.50000000  0.00000000  0.50000000  1
  Ca  Ca21  1  0.00000000  0.50000000  0.50000000  1
  Ca  Ca22  1  0.50000000  0.50000000  0.25000000  1
  Ca  Ca23  1  0.50000000  0.50000000  0.75000000  1
  Sn  Sn24  1  0.00000000  0.75000000  0.12500000  1
  Sn  Sn25  1  0.25000000  0.50000000  0.37500000  1
  Sn  Sn26  1  0.00000000  0.25000000  0.62500000  1
  Sn  Sn27  1  0.75000000  0.50000000  0.37500000  1
  Sn  Sn28  1  0.25000000  0.50000000  0.87500000  1
  Sn  Sn29  1  0.50000000  0.25000000  0.12500000  1
  Sn  Sn30  1  0.25000000  0.00000000  0.37500000  1
  Sn  Sn31  1  0.00000000  0.25000000  0.12500000  1
  Sn  Sn32  1  0.50000000  0.25000000  0.62500000  1
  Sn  Sn33  1  0.75000000  0.00000000  0.87500000  1
  Sn  Sn34  1  0.50000000  0.75000000  0.12500000  1
  Sn  Sn35  1  0.25000000  0.00000000  0.87500000  1
  Sn  Sn36  1  0.75000000  0.00000000  0.37500000  1
  Sn  Sn37  1  0.00000000  0.75000000  0.62500000  1
  Sn  Sn38  1  0.75000000  0.50000000  0.87500000  1
  Sn  Sn39  1  0.50000000  0.75000000  0.62500000  1
  Ge  Ge40  1  0.37472000  0.25000000  0.37500000  1
  Ge  Ge41  1  0.00000000  0.00000000  0.00000000  1
  Ge  Ge42  1  0.75000000  0.37472000  0.62500000  1
  Ge  Ge43  1  0.25000000  0.37472000  0.12500000  1
  Ge  Ge44  1  0.50000000  0.00000000  0.25000000  1
  Ge  Ge45  1  0.12528000  0.25000000  0.87500000  1
  Ge  Ge46  1  0.87472000  0.25000000  0.37500000  1
  Ge  Ge47  1  0.25000000  0.12528000  0.62500000  1
  Ge  Ge48  1  0.00000000  0.00000000  0.50000000  1
  Ge  Ge49  1  0.75000000  0.12528000  0.12500000  1
  Ge  Ge50  1  0.00000000  0.50000000  0.25000000  1
  Ge  Ge51  1  0.62528000  0.25000000  0.87500000  1
  Ge  Ge52  1  0.87472000  0.75000000  0.87500000  1
  Ge  Ge53  1  0.50000000  0.50000000  0.50000000  1
  Ge  Ge54  1  0.25000000  0.87472000  0.12500000  1
  Ge  Ge55  1  0.75000000  0.87472000  0.62500000  1
  Ge  Ge56  1  0.00000000  0.50000000  0.75000000  1
  Ge  Ge57  1  0.62528000  0.75000000  0.37500000  1
  Ge  Ge58  1  0.37472000  0.75000000  0.87500000  1
  Ge  Ge59  1  0.75000000  0.62528000  0.12500000  1
  Ge  Ge60  1  0.50000000  0.50000000  0.00000000  1
  Ge  Ge61  1  0.25000000  0.62528000  0.62500000  1
  Ge  Ge62  1  0.50000000  0.00000000  0.75000000  1
  Ge  Ge63  1  0.12528000  0.75000000  0.37500000  1
  O  O64  1  0.15213800  0.28670500  0.17571700  1
  O  O65  1  0.46460350  0.19702150  0.47185950  1
  O  O66  1  0.04907750  0.59490350  0.15764150  1
  O  O67  1  0.28670500  0.15213800  0.32428300  1
  O  O68  1  0.04907750  0.09490350  0.09235850  1
  O  O69  1  0.19702150  0.96460350  0.22185950  1
  O  O70  1  0.40509650  0.95092250  0.34235850  1
  O  O71  1  0.45092250  0.09490350  0.15764150  1
  O  O72  1  0.59490350  0.04907750  0.34235850  1
  O  O73  1  0.19702150  0.46460350  0.02814050  1
  O  O74  1  0.59490350  0.45092250  0.40764150  1
  O  O75  1  0.21329500  0.65213800  0.32428300  1
  O  O76  1  0.03539650  0.30297850  0.97185950  1
  O  O77  1  0.15213800  0.78670500  0.07428300  1
  O  O78  1  0.80297850  0.46460350  0.52814050  1
  O  O79  1  0.84786200  0.28670500  0.67571700  1
  O  O80  1  0.46460350  0.30297850  0.27814050  1
  O  O81  1  0.40509650  0.54907750  0.40764150  1
  O  O82  1  0.34786200  0.28670500  0.07428300  1
  O  O83  1  0.54907750  0.90509650  0.15764150  1
  O  O84  1  0.21329500  0.34786200  0.82428300  1
  O  O85  1  0.03539650  0.19702150  0.77814050  1
  O  O86  1  0.78670500  0.34786200  0.32428300  1
  O  O87  1  0.30297850  0.46460350  0.22185950  1
  O  O88  1  0.69702150  0.03539650  0.02814050  1
  O  O89  1  0.21329500  0.15213800  0.92571700  1
  O  O90  1  0.96460350  0.30297850  0.47185950  1
  O  O91  1  0.28670500  0.65213800  0.92571700  1
  O  O92  1  0.95092250  0.09490350  0.59235850  1
  O  O93  1  0.65213800  0.21329500  0.17571700  1
  O  O94  1  0.09490350  0.45092250  0.34235850  1
  O  O95  1  0.53539650  0.19702150  0.97185950  1
  O  O96  1  0.15213800  0.21329500  0.57428300  1
  O  O97  1  0.19702150  0.03539650  0.72185950  1
  O  O98  1  0.84786200  0.71329500  0.17571700  1
  O  O99  1  0.96460350  0.19702150  0.27814050  1
  O  O100  1  0.28670500  0.34786200  0.42571700  1
  O  O101  1  0.90509650  0.54907750  0.34235850  1
  O  O102  1  0.30297850  0.53539650  0.72185950  1
  O  O103  1  0.40509650  0.45092250  0.90764150  1
  O  O104  1  0.54907750  0.40509650  0.09235850  1
  O  O105  1  0.09490350  0.04907750  0.40764150  1
  O  O106  1  0.30297850  0.03539650  0.52814050  1
  O  O107  1  0.95092250  0.40509650  0.15764150  1
  O  O108  1  0.21329500  0.84786200  0.42571700  1
  O  O109  1  0.53539650  0.30297850  0.77814050  1
  O  O110  1  0.95092250  0.90509650  0.09235850  1
  O  O111  1  0.34786200  0.71329500  0.57428300  1
  O  O112  1  0.65213800  0.78670500  0.67571700  1
  O  O113  1  0.96460350  0.69702150  0.97185950  1
  O  O114  1  0.54907750  0.09490350  0.65764150  1
  O  O115  1  0.78670500  0.65213800  0.82428300  1
  O  O116  1  0.54907750  0.59490350  0.59235850  1
  O  O117  1  0.69702150  0.46460350  0.72185950  1
  O  O118  1  0.90509650  0.45092250  0.84235850  1
  O  O119  1  0.95092250  0.59490350  0.65764150  1
  O  O120  1  0.09490350  0.54907750  0.84235850  1
  O  O121  1  0.69702150  0.96460350  0.52814050  1
  O  O122  1  0.09490350  0.95092250  0.90764150  1
  O  O123  1  0.71329500  0.15213800  0.82428300  1
  O  O124  1  0.53539650  0.80297850  0.47185950  1
  O  O125  1  0.65213800  0.28670500  0.57428300  1
  O  O126  1  0.30297850  0.96460350  0.02814050  1
  O  O127  1  0.34786200  0.78670500  0.17571700  1
  O  O128  1  0.96460350  0.80297850  0.77814050  1
  O  O129  1  0.90509650  0.04907750  0.90764150  1
  O  O130  1  0.84786200  0.78670500  0.57428300  1
  O  O131  1  0.04907750  0.40509650  0.65764150  1
  O  O132  1  0.71329500  0.84786200  0.32428300  1
  O  O133  1  0.53539650  0.69702150  0.27814050  1
  O  O134  1  0.28670500  0.84786200  0.82428300  1
  O  O135  1  0.80297850  0.96460350  0.72185950  1
  O  O136  1  0.19702150  0.53539650  0.52814050  1
  O  O137  1  0.71329500  0.65213800  0.42571700  1
  O  O138  1  0.46460350  0.80297850  0.97185950  1
  O  O139  1  0.78670500  0.15213800  0.42571700  1
  O  O140  1  0.45092250  0.59490350  0.09235850  1
  O  O141  1  0.15213800  0.71329500  0.67571700  1
  O  O142  1  0.59490350  0.95092250  0.84235850  1
  O  O143  1  0.03539650  0.69702150  0.47185950  1
  O  O144  1  0.65213800  0.71329500  0.07428300  1
  O  O145  1  0.69702150  0.53539650  0.22185950  1
  O  O146  1  0.34786200  0.21329500  0.67571700  1
  O  O147  1  0.46460350  0.69702150  0.77814050  1
  O  O148  1  0.78670500  0.84786200  0.92571700  1
  O  O149  1  0.40509650  0.04907750  0.84235850  1
  O  O150  1  0.80297850  0.03539650  0.22185950  1
  O  O151  1  0.90509650  0.95092250  0.40764150  1
  O  O152  1  0.04907750  0.90509650  0.59235850  1
  O  O153  1  0.59490350  0.54907750  0.90764150  1
  O  O154  1  0.80297850  0.53539650  0.02814050  1
  O  O155  1  0.45092250  0.90509650  0.65764150  1
  O  O156  1  0.71329500  0.34786200  0.92571700  1
  O  O157  1  0.03539650  0.80297850  0.27814050  1
  O  O158  1  0.45092250  0.40509650  0.59235850  1
  O  O159  1  0.84786200  0.21329500  0.07428300  1
