# generated using pymatgen
data_CaZn(SiO3)2
_symmetry_space_group_name_H-M   'P 1'
_cell_length_a   9.96425600
_cell_length_b   9.09827800
_cell_length_c   5.32473472
_cell_angle_alpha   90.00000000
_cell_angle_beta   106.32097936
_cell_angle_gamma   90.00000000
_symmetry_Int_Tables_number   1
_chemical_formula_structural   CaZn(SiO3)2
_chemical_formula_sum   'Ca4 Zn4 Si8 O24'
_cell_volume   463.27478445
_cell_formula_units_Z   4
loop_
 _symmetry_equiv_pos_site_id
 _symmetry_equiv_pos_as_xyz
  1  'x, y, z'
loop_
 _atom_site_type_symbol
 _atom_site_label
 _atom_site_symmetry_multiplicity
 _atom_site_fract_x
 _atom_site_fract_y
 _atom_site_fract_z
 _atom_site_occupancy
  Ca  Ca0  1  0.00000000  0.29728200  0.75000000  1
  Ca  Ca1  1  0.00000000  0.70271800  0.25000000  1
  Ca  Ca2  1  0.50000000  0.79728200  0.75000000  1
  Ca  Ca3  1  0.50000000  0.20271800  0.25000000  1
  Zn  Zn4  1  0.00000000  0.90399700  0.75000000  1
  Zn  Zn5  1  0.00000000  0.09600300  0.25000000  1
  Zn  Zn6  1  0.50000000  0.40399700  0.75000000  1
  Zn  Zn7  1  0.50000000  0.59600300  0.25000000  1
  Si  Si8  1  0.21377300  0.40786900  0.26933800  1
  Si  Si9  1  0.78622700  0.40786900  0.23066200  1
  Si  Si10  1  0.78622700  0.59213100  0.73066200  1
  Si  Si11  1  0.21377300  0.59213100  0.76933800  1
  Si  Si12  1  0.71377300  0.90786900  0.26933800  1
  Si  Si13  1  0.28622700  0.90786900  0.23066200  1
  Si  Si14  1  0.28622700  0.09213100  0.73066200  1
  Si  Si15  1  0.71377300  0.09213100  0.76933800  1
  O  O16  1  0.15114200  0.48251300  0.50285700  1
  O  O17  1  0.84885800  0.48251300  0.99714300  1
  O  O18  1  0.84885800  0.51748700  0.49714300  1
  O  O19  1  0.15114200  0.51748700  0.00285700  1
  O  O20  1  0.13874200  0.25304000  0.17662700  1
  O  O21  1  0.86125800  0.25304000  0.32337300  1
  O  O22  1  0.86125800  0.74696000  0.82337300  1
  O  O23  1  0.13874200  0.74696000  0.67662700  1
  O  O24  1  0.38361950  0.58949450  0.85613200  1
  O  O25  1  0.61638050  0.58949450  0.64386800  1
  O  O26  1  0.61638050  0.41050550  0.14386800  1
  O  O27  1  0.38361950  0.41050550  0.35613200  1
  O  O28  1  0.65114200  0.98251300  0.50285700  1
  O  O29  1  0.34885800  0.98251300  0.99714300  1
  O  O30  1  0.34885800  0.01748700  0.49714300  1
  O  O31  1  0.65114200  0.01748700  0.00285700  1
  O  O32  1  0.63874200  0.75304000  0.17662700  1
  O  O33  1  0.36125800  0.75304000  0.32337300  1
  O  O34  1  0.36125800  0.24696000  0.82337300  1
  O  O35  1  0.63874200  0.24696000  0.67662700  1
  O  O36  1  0.88361950  0.08949450  0.85613200  1
  O  O37  1  0.11638050  0.08949450  0.64386800  1
  O  O38  1  0.11638050  0.91050550  0.14386800  1
  O  O39  1  0.88361950  0.91050550  0.35613200  1
