# generated using pymatgen
data_LiAsH2OF6
_symmetry_space_group_name_H-M   'P 1'
_cell_length_a   6.30330200
_cell_length_b   7.58376200
_cell_length_c   10.73334600
_cell_angle_alpha   90.00000000
_cell_angle_beta   90.00000000
_cell_angle_gamma   90.00000000
_symmetry_Int_Tables_number   1
_chemical_formula_structural   LiAsH2OF6
_chemical_formula_sum   'Li4 As4 H8 O4 F24'
_cell_volume   513.08337159
_cell_formula_units_Z   4
loop_
 _symmetry_equiv_pos_site_id
 _symmetry_equiv_pos_as_xyz
  1  'x, y, z'
loop_
 _atom_site_type_symbol
 _atom_site_label
 _atom_site_symmetry_multiplicity
 _atom_site_fract_x
 _atom_site_fract_y
 _atom_site_fract_z
 _atom_site_occupancy
  Li  Li0  1  0.25000000  0.25000000  0.25000000  1
  Li  Li1  1  0.75000000  0.25000000  0.75000000  1
  Li  Li2  1  0.75000000  0.75000000  0.75000000  1
  Li  Li3  1  0.25000000  0.75000000  0.25000000  1
  As  As4  1  0.50000000  0.50000000  0.00000000  1
  As  As5  1  0.00000000  0.00000000  0.00000000  1
  As  As6  1  0.00000000  0.00000000  0.50000000  1
  As  As7  1  0.50000000  0.50000000  0.50000000  1
  H  H8  1  0.01343600  0.50000000  0.82248400  1
  H  H9  1  0.98656400  0.50000000  0.17751600  1
  H  H10  1  0.98656400  0.50000000  0.32248400  1
  H  H11  1  0.01343600  0.50000000  0.67751600  1
  H  H12  1  0.51343600  0.00000000  0.32248400  1
  H  H13  1  0.48656400  0.00000000  0.67751600  1
  H  H14  1  0.48656400  0.00000000  0.82248400  1
  H  H15  1  0.51343600  0.00000000  0.17751600  1
  O  O16  1  0.91852300  0.50000000  0.75000000  1
  O  O17  1  0.08147700  0.50000000  0.25000000  1
  O  O18  1  0.41852300  0.00000000  0.25000000  1
  O  O19  1  0.58147700  0.00000000  0.75000000  1
  F  F20  1  0.22517200  0.50000000  0.96705700  1
  F  F21  1  0.77482800  0.50000000  0.03294300  1
  F  F22  1  0.77482800  0.50000000  0.46705700  1
  F  F23  1  0.22517200  0.50000000  0.53294300  1
  F  F24  1  0.96164500  0.16546800  0.88482900  1
  F  F25  1  0.03835500  0.16546800  0.11517100  1
  F  F26  1  0.53835500  0.66546800  0.88482900  1
  F  F27  1  0.46164500  0.66546800  0.11517100  1
  F  F28  1  0.03835500  0.83453200  0.11517100  1
  F  F29  1  0.96164500  0.83453200  0.88482900  1
  F  F30  1  0.46164500  0.33453200  0.11517100  1
  F  F31  1  0.53835500  0.33453200  0.88482900  1
  F  F32  1  0.72517200  0.00000000  0.46705700  1
  F  F33  1  0.27482800  0.00000000  0.53294300  1
  F  F34  1  0.27482800  0.00000000  0.96705700  1
  F  F35  1  0.72517200  0.00000000  0.03294300  1
  F  F36  1  0.46164500  0.66546800  0.38482900  1
  F  F37  1  0.53835500  0.66546800  0.61517100  1
  F  F38  1  0.03835500  0.16546800  0.38482900  1
  F  F39  1  0.96164500  0.16546800  0.61517100  1
  F  F40  1  0.53835500  0.33453200  0.61517100  1
  F  F41  1  0.46164500  0.33453200  0.38482900  1
  F  F42  1  0.96164500  0.83453200  0.61517100  1
  F  F43  1  0.03835500  0.83453200  0.38482900  1
