# generated using pymatgen
data_SrLa11Mg3Ga9O34
_symmetry_space_group_name_H-M   'P 1'
_cell_length_a   5.57758600
_cell_length_b   5.58448658
_cell_length_c   27.37179930
_cell_angle_alpha   89.62915879
_cell_angle_beta   89.67355726
_cell_angle_gamma   60.51724166
_symmetry_Int_Tables_number   1
_chemical_formula_structural   SrLa11Mg3Ga9O34
_chemical_formula_sum   'Sr1 La11 Mg3 Ga9 O34'
_cell_volume   742.15165258
_cell_formula_units_Z   1
loop_
 _symmetry_equiv_pos_site_id
 _symmetry_equiv_pos_as_xyz
  1  'x, y, z'
loop_
 _atom_site_type_symbol
 _atom_site_label
 _atom_site_symmetry_multiplicity
 _atom_site_fract_x
 _atom_site_fract_y
 _atom_site_fract_z
 _atom_site_occupancy
  Sr  Sr0  1  0.98780300  0.50644100  0.13058700  1
  La  La1  1  0.63848500  0.17843800  0.03830300  1
  La  La2  1  0.70914200  0.14301200  0.29788800  1
  La  La3  1  0.30399500  0.84636400  0.20693600  1
  La  La4  1  0.34125300  0.82897200  0.45941900  1
  La  La5  1  0.00635100  0.49628800  0.37319600  1
  La  La6  1  0.00609200  0.49681900  0.62645500  1
  La  La7  1  0.66051400  0.16998200  0.54077600  1
  La  La8  1  0.67278500  0.16337800  0.79362800  1
  La  La9  1  0.32708000  0.83663800  0.70693900  1
  La  La10  1  0.34367300  0.83010900  0.95847500  1
  La  La11  1  0.99431000  0.50319300  0.87179600  1
  Mg  Mg12  1  0.03149600  0.48406200  0.99431100  1
  Mg  Mg13  1  0.69022000  0.15358900  0.16113800  1
  Mg  Mg14  1  0.95693700  0.52154800  0.25265300  1
  Ga  Ga15  1  0.28806300  0.85669300  0.08752000  1
  Ga  Ga16  1  0.33338600  0.83328900  0.58323200  1
  Ga  Ga17  1  0.00017000  0.49988000  0.50015600  1
  Ga  Ga18  1  0.33975900  0.83158100  0.33300800  1
  Ga  Ga19  1  0.66646900  0.16685300  0.66682600  1
  Ga  Ga20  1  0.66883100  0.16556800  0.41777800  1
  Ga  Ga21  1  0.33560300  0.83207600  0.83326200  1
  Ga  Ga22  1  0.00009400  0.49976900  0.74956800  1
  Ga  Ga23  1  0.66648000  0.16737400  0.91791200  1
  O  O24  1  0.24467900  0.11409100  0.03225700  1
  O  O25  1  0.43533700  0.03053800  0.13010200  1
  O  O26  1  0.89034600  0.80556600  0.20235900  1
  O  O27  1  0.25518500  0.62536000  0.03601100  1
  O  O28  1  0.10735200  0.70611100  0.29821600  1
  O  O29  1  0.44031000  0.54653800  0.13638200  1
  O  O30  1  0.05402500  0.97408100  0.38733300  1
  O  O31  1  0.92697900  0.03817500  0.10506600  1
  O  O32  1  0.56155400  0.45617000  0.36657200  1
  O  O33  1  0.91072500  0.27753800  0.20536100  1
  O  O34  1  0.76544900  0.37931400  0.46446300  1
  O  O35  1  0.13180600  0.20187200  0.30113100  1
  O  O36  1  0.72196800  0.63899400  0.55532700  1
  O  O37  1  0.58943200  0.70304100  0.27956000  1
  O  O38  1  0.22043900  0.12701200  0.53186600  1
  O  O39  1  0.57742800  0.94874900  0.37047700  1
  O  O40  1  0.43210600  0.04640200  0.63039500  1
  O  O41  1  0.78219900  0.87198600  0.46824300  1
  O  O42  1  0.38836600  0.30586700  0.72200300  1
  O  O43  1  0.27947500  0.36015700  0.44485400  1
  O  O44  1  0.88692100  0.79489300  0.69861200  1
  O  O45  1  0.23573500  0.62032800  0.53576500  1
  O  O46  1  0.09988900  0.71250200  0.79710200  1
  O  O47  1  0.44742000  0.53798900  0.63423900  1
  O  O48  1  0.04656000  0.97623600  0.88913500  1
  O  O49  1  0.94605700  0.02709400  0.61133700  1
  O  O50  1  0.55716200  0.46349200  0.86506700  1
  O  O51  1  0.90216100  0.28693500  0.70239500  1
  O  O52  1  0.75600000  0.38159500  0.96779700  1
  O  O53  1  0.11528400  0.20221300  0.80060000  1
  O  O54  1  0.61377600  0.69345700  0.77742900  1
  O  O55  1  0.57003600  0.95089000  0.86888100  1
  O  O56  1  0.76817500  0.86979500  0.97098800  1
  O  O57  1  0.28773800  0.35456700  0.94018200  1
