# generated using pymatgen
data_NaIn(SiO3)2
_symmetry_space_group_name_H-M   'P 1'
_cell_length_a   10.07491200
_cell_length_b   9.27230000
_cell_length_c   5.44675342
_cell_angle_alpha   90.00000000
_cell_angle_beta   107.55665385
_cell_angle_gamma   90.00000000
_symmetry_Int_Tables_number   1
_chemical_formula_structural   NaIn(SiO3)2
_chemical_formula_sum   'Na4 In4 Si8 O24'
_cell_volume   485.12127404
_cell_formula_units_Z   4
loop_
 _symmetry_equiv_pos_site_id
 _symmetry_equiv_pos_as_xyz
  1  'x, y, z'
loop_
 _atom_site_type_symbol
 _atom_site_label
 _atom_site_symmetry_multiplicity
 _atom_site_fract_x
 _atom_site_fract_y
 _atom_site_fract_z
 _atom_site_occupancy
  Na  Na0  1  0.00000000  0.30216900  0.25000000  1
  Na  Na1  1  0.00000000  0.69783100  0.75000000  1
  Na  Na2  1  0.50000000  0.80216900  0.25000000  1
  Na  Na3  1  0.50000000  0.19783100  0.75000000  1
  In  In4  1  0.00000000  0.89355800  0.25000000  1
  In  In5  1  0.00000000  0.10644200  0.75000000  1
  In  In6  1  0.50000000  0.39355800  0.25000000  1
  In  In7  1  0.50000000  0.60644200  0.75000000  1
  Si  Si8  1  0.79134500  0.41409100  0.74836700  1
  Si  Si9  1  0.20865500  0.41409100  0.75163300  1
  Si  Si10  1  0.79134500  0.58590900  0.24836700  1
  Si  Si11  1  0.20865500  0.58590900  0.25163300  1
  Si  Si12  1  0.29134500  0.91409100  0.74836700  1
  Si  Si13  1  0.70865500  0.91409100  0.75163300  1
  Si  Si14  1  0.29134500  0.08590900  0.24836700  1
  Si  Si15  1  0.70865500  0.08590900  0.25163300  1
  O  O16  1  0.14214750  0.25644050  0.68019900  1
  O  O17  1  0.84762100  0.51054300  0.02008700  1
  O  O18  1  0.84762100  0.48945700  0.52008700  1
  O  O19  1  0.15237900  0.48945700  0.97991300  1
  O  O20  1  0.61952450  0.58009650  0.15299400  1
  O  O21  1  0.38047550  0.58009650  0.34700600  1
  O  O22  1  0.85785250  0.25644050  0.81980100  1
  O  O23  1  0.61952450  0.41990350  0.65299400  1
  O  O24  1  0.85785250  0.74355950  0.31980100  1
  O  O25  1  0.14214750  0.74355950  0.18019900  1
  O  O26  1  0.38047550  0.41990350  0.84700600  1
  O  O27  1  0.15237900  0.51054300  0.47991300  1
  O  O28  1  0.64214750  0.75644050  0.68019900  1
  O  O29  1  0.34762100  0.01054300  0.02008700  1
  O  O30  1  0.34762100  0.98945700  0.52008700  1
  O  O31  1  0.65237900  0.98945700  0.97991300  1
  O  O32  1  0.11952450  0.08009650  0.15299400  1
  O  O33  1  0.88047550  0.08009650  0.34700600  1
  O  O34  1  0.35785250  0.75644050  0.81980100  1
  O  O35  1  0.11952450  0.91990350  0.65299400  1
  O  O36  1  0.35785250  0.24355950  0.31980100  1
  O  O37  1  0.64214750  0.24355950  0.18019900  1
  O  O38  1  0.88047550  0.91990350  0.84700600  1
  O  O39  1  0.65237900  0.01054300  0.47991300  1
