# generated using pymatgen
data_SiO2
_symmetry_space_group_name_H-M   'P 1'
_cell_length_a   13.72803800
_cell_length_b   13.72803800
_cell_length_c   7.68785700
_cell_angle_alpha   90.00000000
_cell_angle_beta   90.00000000
_cell_angle_gamma   90.00000000
_symmetry_Int_Tables_number   1
_chemical_formula_structural   SiO2
_chemical_formula_sum   'Si24 O48'
_cell_volume   1448.84605247
_cell_formula_units_Z   24
loop_
 _symmetry_equiv_pos_site_id
 _symmetry_equiv_pos_as_xyz
  1  'x, y, z'
loop_
 _atom_site_type_symbol
 _atom_site_label
 _atom_site_symmetry_multiplicity
 _atom_site_fract_x
 _atom_site_fract_y
 _atom_site_fract_z
 _atom_site_occupancy
  Si  Si0  1  0.72423500  0.61473500  0.85529600  1
  Si  Si1  1  0.88526500  0.22423500  0.85529600  1
  Si  Si2  1  0.11473500  0.77576500  0.85529600  1
  Si  Si3  1  0.22423500  0.88526500  0.14470400  1
  Si  Si4  1  0.77576500  0.11473500  0.14470400  1
  Si  Si5  1  0.27576500  0.38526500  0.85529600  1
  Si  Si6  1  0.61473500  0.72423500  0.14470400  1
  Si  Si7  1  0.38526500  0.27576500  0.14470400  1
  Si  Si8  1  0.77576500  0.88526500  0.14470400  1
  Si  Si9  1  0.61473500  0.27576500  0.14470400  1
  Si  Si10  1  0.38526500  0.72423500  0.14470400  1
  Si  Si11  1  0.27576500  0.61473500  0.85529600  1
  Si  Si12  1  0.72423500  0.38526500  0.85529600  1
  Si  Si13  1  0.22423500  0.11473500  0.14470400  1
  Si  Si14  1  0.88526500  0.77576500  0.85529600  1
  Si  Si15  1  0.11473500  0.22423500  0.85529600  1
  Si  Si16  1  0.38707200  0.61292800  0.50000000  1
  Si  Si17  1  0.88707200  0.88707200  0.50000000  1
  Si  Si18  1  0.11292800  0.11292800  0.50000000  1
  Si  Si19  1  0.61292800  0.38707200  0.50000000  1
  Si  Si20  1  0.11292800  0.88707200  0.50000000  1
  Si  Si21  1  0.61292800  0.61292800  0.50000000  1
  Si  Si22  1  0.38707200  0.38707200  0.50000000  1
  Si  Si23  1  0.88707200  0.11292800  0.50000000  1
  O  O24  1  0.75099500  0.50000000  0.87105100  1
  O  O25  1  0.00000000  0.25099500  0.87105100  1
  O  O26  1  0.00000000  0.74900500  0.87105100  1
  O  O27  1  0.25099500  0.00000000  0.12894900  1
  O  O28  1  0.74900500  0.00000000  0.12894900  1
  O  O29  1  0.24900500  0.50000000  0.87105100  1
  O  O30  1  0.50000000  0.75099500  0.12894900  1
  O  O31  1  0.50000000  0.24900500  0.12894900  1
  O  O32  1  0.68320400  0.64008200  0.66211700  1
  O  O33  1  0.85991800  0.18320400  0.66211700  1
  O  O34  1  0.14008200  0.81679600  0.66211700  1
  O  O35  1  0.18320400  0.85991800  0.33788300  1
  O  O36  1  0.81679600  0.14008200  0.33788300  1
  O  O37  1  0.31679600  0.35991800  0.66211700  1
  O  O38  1  0.64008200  0.68320400  0.33788300  1
  O  O39  1  0.35991800  0.31679600  0.33788300  1
  O  O40  1  0.81679600  0.85991800  0.33788300  1
  O  O41  1  0.64008200  0.31679600  0.33788300  1
  O  O42  1  0.35991800  0.68320400  0.33788300  1
  O  O43  1  0.31679600  0.64008200  0.66211700  1
  O  O44  1  0.68320400  0.35991800  0.66211700  1
  O  O45  1  0.18320400  0.14008200  0.33788300  1
  O  O46  1  0.85991800  0.81679600  0.66211700  1
  O  O47  1  0.14008200  0.18320400  0.66211700  1
  O  O48  1  0.64191500  0.64191500  0.00000000  1
  O  O49  1  0.85808500  0.14191500  0.00000000  1
  O  O50  1  0.14191500  0.85808500  0.00000000  1
  O  O51  1  0.35808500  0.35808500  0.00000000  1
  O  O52  1  0.85808500  0.85808500  0.00000000  1
  O  O53  1  0.64191500  0.35808500  0.00000000  1
  O  O54  1  0.35808500  0.64191500  0.00000000  1
  O  O55  1  0.14191500  0.14191500  0.00000000  1
  O  O56  1  0.82272600  0.67727400  0.89019000  1
  O  O57  1  0.82272600  0.32272600  0.89019000  1
  O  O58  1  0.17727400  0.67727400  0.89019000  1
  O  O59  1  0.32272600  0.82272600  0.10981000  1
  O  O60  1  0.67727400  0.17727400  0.10981000  1
  O  O61  1  0.17727400  0.32272600  0.89019000  1
  O  O62  1  0.67727400  0.82272600  0.10981000  1
  O  O63  1  0.32272600  0.17727400  0.10981000  1
  O  O64  1  0.37042300  0.50000000  0.44104400  1
  O  O65  1  0.00000000  0.87042300  0.44104400  1
  O  O66  1  0.00000000  0.12957700  0.44104400  1
  O  O67  1  0.87042300  0.00000000  0.55895600  1
  O  O68  1  0.12957700  0.00000000  0.55895600  1
  O  O69  1  0.62957700  0.50000000  0.44104400  1
  O  O70  1  0.50000000  0.37042300  0.55895600  1
  O  O71  1  0.50000000  0.62957700  0.55895600  1
