# generated using pymatgen
data_Sr(H8O5)2
_symmetry_space_group_name_H-M   'P 1'
_cell_length_a   6.13981200
_cell_length_b   6.50723370
_cell_length_c   11.48721340
_cell_angle_alpha   89.01822636
_cell_angle_beta   88.11495960
_cell_angle_gamma   89.35158183
_symmetry_Int_Tables_number   1
_chemical_formula_structural   Sr(H8O5)2
_chemical_formula_sum   'Sr2 H32 O20'
_cell_volume   458.60857848
_cell_formula_units_Z   2
loop_
 _symmetry_equiv_pos_site_id
 _symmetry_equiv_pos_as_xyz
  1  'x, y, z'
loop_
 _atom_site_type_symbol
 _atom_site_label
 _atom_site_symmetry_multiplicity
 _atom_site_fract_x
 _atom_site_fract_y
 _atom_site_fract_z
 _atom_site_occupancy
  Sr  Sr0  1  0.96801600  0.99379700  0.49860400  1
  Sr  Sr1  1  0.00526200  0.01785400  0.99748400  1
  H  H2  1  0.05579800  0.69206000  0.71077200  1
  H  H3  1  0.24412300  0.63069000  0.61120600  1
  H  H4  1  0.91386100  0.37845200  0.65772100  1
  H  H5  1  0.67633900  0.37659800  0.60516500  1
  H  H6  1  0.69708300  0.81333500  0.71042400  1
  H  H7  1  0.57658500  0.71941700  0.60488800  1
  H  H8  1  0.38621100  0.06691700  0.63871100  1
  H  H9  1  0.34892900  0.30168500  0.59678700  1
  H  H10  1  0.96515100  0.68336800  0.20793100  1
  H  H11  1  0.75018800  0.64305900  0.12720900  1
  H  H12  1  0.08307800  0.38817200  0.17038800  1
  H  H13  1  0.29940000  0.39706700  0.09147100  1
  H  H14  1  0.40052900  0.74455400  0.11138800  1
  H  H15  1  0.28651000  0.86703700  0.21587100  1
  H  H16  1  0.56581400  0.07392000  0.14358200  1
  H  H17  1  0.63225500  0.30548200  0.11203100  1
  H  H18  1  0.78936900  0.25073900  0.28504600  1
  H  H19  1  0.69676700  0.38268100  0.39215500  1
  H  H20  1  0.26147900  0.58834100  0.38173500  1
  H  H21  1  0.01873800  0.51946100  0.36441700  1
  H  H22  1  0.35364700  0.22548800  0.37000900  1
  H  H23  1  0.44778900  0.99904100  0.37177300  1
  H  H24  1  0.71827300  0.83149000  0.28945800  1
  H  H25  1  0.60090600  0.70767400  0.39788400  1
  H  H26  1  0.18461300  0.24671500  0.76645200  1
  H  H27  1  0.07035200  0.42144300  0.84600400  1
  H  H28  1  0.75385000  0.58332100  0.92675100  1
  H  H29  1  0.09395800  0.71191400  0.86842000  1
  H  H30  1  0.71224500  0.17197100  0.77932800  1
  H  H31  1  0.60944200  0.26934000  0.89181500  1
  H  H32  1  0.43822700  0.72835800  0.90255800  1
  H  H33  1  0.45395700  0.96330300  0.86662100  1
  O  O34  1  0.47852600  0.50406700  0.56124100  1
  O  O35  1  0.55307300  0.52496800  0.07210200  1
  O  O36  1  0.49209200  0.50774600  0.43124900  1
  O  O37  1  0.59673800  0.52530700  0.94427800  1
  O  O38  1  0.09863800  0.69764900  0.62557200  1
  O  O39  1  0.79951900  0.28375700  0.63748000  1
  O  O40  1  0.63677500  0.85294400  0.63549100  1
  O  O41  1  0.27117800  0.17187200  0.62797100  1
  O  O42  1  0.85879800  0.74735800  0.15583900  1
  O  O43  1  0.16133000  0.31962700  0.10732900  1
  O  O44  1  0.33316200  0.87985400  0.13398200  1
  O  O45  1  0.69330800  0.16644500  0.13898800  1
  O  O46  1  0.83399300  0.30462500  0.36079500  1
  O  O47  1  0.11633300  0.63952600  0.35088800  1
  O  O48  1  0.30799100  0.08140100  0.36772200  1
  O  O49  1  0.66613700  0.84979400  0.37136600  1
  O  O50  1  0.14034900  0.28224100  0.84785300  1
  O  O51  1  0.94370500  0.67555700  0.85192000  1
  O  O52  1  0.66133200  0.13499100  0.86015400  1
  O  O53  1  0.34659600  0.85101400  0.88347300  1
