# generated using pymatgen
data_K2Al11Si13(Ag3O16)3
_symmetry_space_group_name_H-M   'P 1'
_cell_length_a   12.17549200
_cell_length_b   12.33948838
_cell_length_c   12.92473892
_cell_angle_alpha   89.52035245
_cell_angle_beta   89.99513696
_cell_angle_gamma   89.92937095
_symmetry_Int_Tables_number   1
_chemical_formula_structural   K2Al11Si13(Ag3O16)3
_chemical_formula_sum   'K2 Al11 Si13 Ag9 O48'
_cell_volume   1941.73474914
_cell_formula_units_Z   1
loop_
 _symmetry_equiv_pos_site_id
 _symmetry_equiv_pos_as_xyz
  1  'x, y, z'
loop_
 _atom_site_type_symbol
 _atom_site_label
 _atom_site_symmetry_multiplicity
 _atom_site_fract_x
 _atom_site_fract_y
 _atom_site_fract_z
 _atom_site_occupancy
  K  K0  1  0.98991000  0.99737800  0.49595600  1
  K  K1  1  0.39906000  0.13383000  0.45694000  1
  Al  Al2  1  0.99994300  0.37040900  0.81676100  1
  Al  Al3  1  0.36758000  0.00250500  0.82812200  1
  Al  Al4  1  0.79936300  0.99949900  0.63301100  1
  Al  Al5  1  0.99339100  0.79597700  0.38041900  1
  Al  Al6  1  0.20090400  0.99180700  0.37796900  1
  Al  Al7  1  0.99421700  0.19337200  0.37504100  1
  Al  Al8  1  0.78423500  0.99495300  0.38012100  1
  Al  Al9  1  0.99162700  0.63013400  0.16749100  1
  Al  Al10  1  0.99228500  0.36580600  0.16483600  1
  Al  Al11  1  0.36358100  0.99728200  0.17392400  1
  Al  Al12  1  0.63639700  0.99692000  0.16095700  1
  Si  Si13  1  0.00222500  0.63046200  0.82011800  1
  Si  Si14  1  0.61670800  0.00463900  0.82547000  1
  Si  Si15  1  0.99502600  0.80759100  0.63290800  1
  Si  Si16  1  0.18426400  0.99775200  0.63354400  1
  Si  Si17  1  0.99726400  0.18979300  0.62856400  1
  Si  Si18  1  0.18242400  0.62908900  0.99699000  1
  Si  Si19  1  0.18363300  0.36817500  0.99665700  1
  Si  Si20  1  0.36556300  0.81070100  0.00881000  1
  Si  Si21  1  0.36291200  0.18655100  0.00809900  1
  Si  Si22  1  0.62523600  0.81261900  0.99867500  1
  Si  Si23  1  0.62409600  0.18739600  0.00228600  1
  Si  Si24  1  0.80912600  0.62941200  0.98827600  1
  Si  Si25  1  0.80536700  0.36973200  0.98711800  1
  Ag  Ag26  1  0.21097100  0.80375800  0.80062500  1
  Ag  Ag27  1  0.18628100  0.18672200  0.81111500  1
  Ag  Ag28  1  0.78854200  0.80690500  0.79815400  1
  Ag  Ag29  1  0.80252900  0.19039700  0.79965100  1
  Ag  Ag30  1  0.16381800  0.81996500  0.20006700  1
  Ag  Ag31  1  0.15249100  0.16357900  0.19072500  1
  Ag  Ag32  1  0.81779800  0.81498200  0.20541200  1
  Ag  Ag33  1  0.82128900  0.17892600  0.20135300  1
  Ag  Ag34  1  0.98289900  0.99439200  0.22748800  1
  O  O35  1  0.49699500  0.77830500  0.01763200  1
  O  O36  1  0.30198500  0.30498300  0.99795100  1
  O  O37  1  0.49455400  0.21374700  0.02093400  1
  O  O38  1  0.77792200  0.50111800  0.98104000  1
  O  O39  1  0.68791300  0.30294400  0.98113000  1
  O  O40  1  0.11723400  0.65988300  0.88476600  1
  O  O41  1  0.34401000  0.88387000  0.90367000  1
  O  O42  1  0.12142600  0.34001300  0.88726800  1
  O  O43  1  0.63361200  0.89082200  0.89332000  1
  O  O44  1  0.34044100  0.12146600  0.89925800  1
  O  O45  1  0.88997500  0.66402100  0.88664200  1
  O  O46  1  0.63668400  0.11440900  0.89509100  1
  O  O47  1  0.87612800  0.33669000  0.88303800  1
  O  O48  1  0.99916800  0.50718300  0.78744200  1
  O  O49  1  0.49739000  0.00668500  0.77385200  1
  O  O50  1  0.00630200  0.28920200  0.70761200  1
  O  O51  1  0.71388500  0.00548300  0.74049500  1
  O  O52  1  0.00620000  0.70972100  0.71842600  1
  O  O53  1  0.27420100  0.99760500  0.72450800  1
  O  O54  1  0.10533300  0.88799300  0.65457800  1
  O  O55  1  0.10548200  0.10610100  0.65572500  1
  O  O56  1  0.88549800  0.88061000  0.65936800  1
  O  O57  1  0.88783500  0.11463300  0.65285000  1
  O  O58  1  0.99571500  0.76550100  0.51623400  1
  O  O59  1  0.23360700  0.00059600  0.51654300  1
  O  O60  1  0.74842000  0.99684700  0.51045100  1
  O  O61  1  0.00105600  0.22460200  0.50860800  1
  O  O62  1  0.11438100  0.87962300  0.35997600  1
  O  O63  1  0.11501600  0.10876900  0.35639500  1
  O  O64  1  0.87762500  0.88289200  0.35976200  1
  O  O65  1  0.87973900  0.10545200  0.35722300  1
  O  O66  1  0.98985200  0.28167200  0.27240300  1
  O  O67  1  0.68688700  0.99604700  0.28458600  1
  O  O68  1  0.99212700  0.70719200  0.27876000  1
  O  O69  1  0.31856000  0.00399800  0.30361200  1
  O  O70  1  0.49873000  0.99786200  0.14328000  1
  O  O71  1  0.99774400  0.49756000  0.19237400  1
  O  O72  1  0.10670900  0.67353300  0.08961600  1
  O  O73  1  0.11108300  0.32438600  0.09252500  1
  O  O74  1  0.31761900  0.87303600  0.11078200  1
  O  O75  1  0.31229000  0.11768900  0.10613000  1
  O  O76  1  0.68301100  0.87594700  0.09336100  1
  O  O77  1  0.68318800  0.11896400  0.09471100  1
  O  O78  1  0.86939900  0.66462800  0.09348300  1
  O  O79  1  0.87100000  0.33439200  0.09021900  1
  O  O80  1  0.20743000  0.49958500  0.99965000  1
  O  O81  1  0.29851600  0.69541700  0.99230500  1
  O  O82  1  0.69716700  0.70291000  0.96896500  1
