# generated using pymatgen
data_NaCaAlH2OF6
_symmetry_space_group_name_H-M   'P 1'
_cell_length_a   5.67103700
_cell_length_b   5.60266400
_cell_length_c   16.28495920
_cell_angle_alpha   90.00000000
_cell_angle_beta   95.93259050
_cell_angle_gamma   90.00000000
_symmetry_Int_Tables_number   1
_chemical_formula_structural   NaCaAlH2OF6
_chemical_formula_sum   'Na4 Ca4 Al4 H8 O4 F24'
_cell_volume   514.64941366
_cell_formula_units_Z   4
loop_
 _symmetry_equiv_pos_site_id
 _symmetry_equiv_pos_as_xyz
  1  'x, y, z'
loop_
 _atom_site_type_symbol
 _atom_site_label
 _atom_site_symmetry_multiplicity
 _atom_site_fract_x
 _atom_site_fract_y
 _atom_site_fract_z
 _atom_site_occupancy
  Na  Na0  1  0.74634500  0.85684000  0.75248200  1
  Na  Na1  1  0.25365500  0.35684000  0.74751800  1
  Na  Na2  1  0.25365500  0.14316000  0.24751800  1
  Na  Na3  1  0.74634500  0.64316000  0.25248200  1
  Ca  Ca4  1  0.80463500  0.32899000  0.90232100  1
  Ca  Ca5  1  0.19536500  0.82899000  0.59767900  1
  Ca  Ca6  1  0.19536500  0.67101000  0.09767900  1
  Ca  Ca7  1  0.80463500  0.17101000  0.40232100  1
  Al  Al8  1  0.28070700  0.82169600  0.86100100  1
  Al  Al9  1  0.71929300  0.32169600  0.63899900  1
  Al  Al10  1  0.71929300  0.17830400  0.13899900  1
  Al  Al11  1  0.28070700  0.67830400  0.36100100  1
  H  H12  1  0.29612500  0.38820200  0.94881000  1
  H  H13  1  0.70387500  0.88820200  0.55119000  1
  H  H14  1  0.70387500  0.61179800  0.05119000  1
  H  H15  1  0.29612500  0.11179800  0.44881000  1
  H  H16  1  0.25180200  0.17881500  0.00977400  1
  H  H17  1  0.74819800  0.67881500  0.49022600  1
  H  H18  1  0.74819800  0.82118500  0.99022600  1
  H  H19  1  0.25180200  0.32118500  0.50977400  1
  O  O20  1  0.19212000  0.33734700  0.99088900  1
  O  O21  1  0.80788000  0.83734700  0.50911100  1
  O  O22  1  0.80788000  0.66265300  0.00911100  1
  O  O23  1  0.19212000  0.16265300  0.49088900  1
  F  F24  1  0.44402500  0.53046200  0.87471100  1
  F  F25  1  0.55597500  0.03046200  0.62528900  1
  F  F26  1  0.55597500  0.46953800  0.12528900  1
  F  F27  1  0.44402500  0.96953800  0.37471100  1
  F  F28  1  0.01186900  0.63428200  0.84452700  1
  F  F29  1  0.98813100  0.13428200  0.65547300  1
  F  F30  1  0.98813100  0.36571800  0.15547300  1
  F  F31  1  0.01186900  0.86571800  0.34452700  1
  F  F32  1  0.56007000  0.98648700  0.87258400  1
  F  F33  1  0.43993000  0.48648700  0.62741600  1
  F  F34  1  0.43993000  0.01351300  0.12741600  1
  F  F35  1  0.56007000  0.51351300  0.37258400  1
  F  F36  1  0.09536700  0.08641300  0.84225100  1
  F  F37  1  0.90463300  0.58641300  0.65774900  1
  F  F38  1  0.90463300  0.91358700  0.15774900  1
  F  F39  1  0.09536700  0.41358700  0.34225100  1
  F  F40  1  0.31392800  0.80029600  0.74980100  1
  F  F41  1  0.68607200  0.30029600  0.75019900  1
  F  F42  1  0.68607200  0.19970400  0.25019900  1
  F  F43  1  0.31392800  0.69970400  0.24980100  1
  F  F44  1  0.26438400  0.83855000  0.97139600  1
  F  F45  1  0.73561600  0.33855000  0.52860400  1
  F  F46  1  0.73561600  0.16145000  0.02860400  1
  F  F47  1  0.26438400  0.66145000  0.47139600  1
