# generated using pymatgen
data_Na6Ga5Si7H15O32
_symmetry_space_group_name_H-M   'P 1'
_cell_length_a   8.77372100
_cell_length_b   9.27820371
_cell_length_c   9.31162413
_cell_angle_alpha   90.62998478
_cell_angle_beta   90.25447648
_cell_angle_gamma   90.17786773
_symmetry_Int_Tables_number   1
_chemical_formula_structural   Na6Ga5Si7H15O32
_chemical_formula_sum   'Na6 Ga5 Si7 H15 O32'
_cell_volume   757.94983851
_cell_formula_units_Z   1
loop_
 _symmetry_equiv_pos_site_id
 _symmetry_equiv_pos_as_xyz
  1  'x, y, z'
loop_
 _atom_site_type_symbol
 _atom_site_label
 _atom_site_symmetry_multiplicity
 _atom_site_fract_x
 _atom_site_fract_y
 _atom_site_fract_z
 _atom_site_occupancy
  Na  Na0  1  0.35216200  0.38170000  0.37826400  1
  Na  Na1  1  0.34945500  0.63695400  0.62168900  1
  Na  Na2  1  0.62526100  0.65093400  0.34079500  1
  Na  Na3  1  0.62249900  0.33118700  0.65815900  1
  Na  Na4  1  0.88471600  0.13417600  0.13233200  1
  Na  Na5  1  0.97413700  0.89493700  0.87302100  1
  Ga  Ga6  1  0.02877400  0.25891800  0.50482200  1
  Ga  Ga7  1  0.36773600  0.96828600  0.79351100  1
  Ga  Ga8  1  0.46091600  0.00608100  0.23038300  1
  Ga  Ga9  1  0.75414600  0.49934200  0.00445700  1
  Ga  Ga10  1  0.75210300  0.99405300  0.50386500  1
  Si  Si11  1  0.00472400  0.50106500  0.74587500  1
  Si  Si12  1  0.25024500  0.49646300  0.99632000  1
  Si  Si13  1  0.24838300  0.98881300  0.49950600  1
  Si  Si14  1  0.48661800  0.24813800  0.99687300  1
  Si  Si15  1  0.49195500  0.74080900  0.00134800  1
  Si  Si16  1  0.01969300  0.50085600  0.25258200  1
  Si  Si17  1  0.00738700  0.73612400  0.49494800  1
  H  H18  1  0.17889200  0.12593500  0.21694200  1
  H  H19  1  0.32417800  0.68202300  0.31653200  1
  H  H20  1  0.33588200  0.32551600  0.68630500  1
  H  H21  1  0.59753500  0.28377900  0.27076000  1
  H  H22  1  0.58878200  0.76598700  0.77526800  1
  H  H23  1  0.76872900  0.23398500  0.40143200  1
  H  H24  1  0.72441000  0.72201200  0.61542600  1
  H  H25  1  0.72972100  0.39643600  0.27889600  1
  H  H26  1  0.72507200  0.60976700  0.73522400  1
  H  H27  1  0.78008900  0.77920100  0.09715700  1
  H  H28  1  0.77196300  0.22078100  0.89674100  1
  H  H29  1  0.72327900  0.91336200  0.25904700  1
  H  H30  1  0.72172000  0.07486600  0.74176900  1
  H  H31  1  0.94123400  0.82100100  0.16720300  1
  H  H32  1  0.93069100  0.19564800  0.82356800  1
  O  O33  1  0.08459400  0.38989800  0.36988400  1
  O  O34  1  0.05224400  0.62408200  0.62601700  1
  O  O35  1  0.12127200  0.16106300  0.13518700  1
  O  O36  1  0.20763200  0.86486800  0.83376400  1
  O  O37  1  0.14250600  0.55091900  0.13023800  1
  O  O38  1  0.14422000  0.46097700  0.85522100  1
  O  O39  1  0.13777300  0.85028600  0.45089200  1
  O  O40  1  0.13716600  0.10999800  0.57388900  1
  O  O41  1  0.32080800  0.06401900  0.35597300  1
  O  O42  1  0.38954500  0.93165900  0.59520700  1
  O  O43  1  0.35840600  0.36535200  0.04761800  1
  O  O44  1  0.37093000  0.62058500  0.94684500  1
  O  O45  1  0.38496900  0.61978500  0.37646900  1
  O  O46  1  0.38261200  0.39028100  0.61806500  1
  O  O47  1  0.42704500  0.85442900  0.11466100  1
  O  O48  1  0.43862000  0.14181000  0.86861900  1
  O  O49  1  0.54675800  0.16773900  0.14580500  1
  O  O50  1  0.55358600  0.83128500  0.85833700  1
  O  O51  1  0.64862400  0.35272100  0.34261700  1
  O  O52  1  0.65238400  0.65267800  0.66437200  1
  O  O53  1  0.64489400  0.65867100  0.07077100  1
  O  O54  1  0.64176900  0.34128100  0.94139800  1
  O  O55  1  0.64422700  0.93295200  0.33479100  1
  O  O56  1  0.65371200  0.06404900  0.65741100  1
  O  O57  1  0.85352200  0.82382000  0.54597600  1
  O  O58  1  0.85020500  0.16076900  0.42405600  1
  O  O59  1  0.86146500  0.44738700  0.16887700  1
  O  O60  1  0.86335500  0.56480700  0.84618200  1
  O  O61  1  0.85210800  0.86230000  0.11737300  1
  O  O62  1  0.85110300  0.14447000  0.87700700  1
  O  O63  1  0.96135500  0.64640400  0.34526900  1
  O  O64  1  0.94270400  0.35652300  0.66218900  1
