# generated using pymatgen
data_NaPO3
_symmetry_space_group_name_H-M   'P 1'
_cell_length_a   13.35926600
_cell_length_b   13.35926600
_cell_length_c   6.33173000
_cell_angle_alpha   90.00000000
_cell_angle_beta   90.00000000
_cell_angle_gamma   90.00000000
_symmetry_Int_Tables_number   1
_chemical_formula_structural   NaPO3
_chemical_formula_sum   'Na16 P16 O48'
_cell_volume   1130.02377749
_cell_formula_units_Z   16
loop_
 _symmetry_equiv_pos_site_id
 _symmetry_equiv_pos_as_xyz
  1  'x, y, z'
loop_
 _atom_site_type_symbol
 _atom_site_label
 _atom_site_symmetry_multiplicity
 _atom_site_fract_x
 _atom_site_fract_y
 _atom_site_fract_z
 _atom_site_occupancy
  Na  Na0  1  0.40771150  0.40282250  0.27354250  1
  Na  Na1  1  0.09717750  0.90771150  0.22645750  1
  Na  Na2  1  0.90282250  0.09228850  0.22645750  1
  Na  Na3  1  0.59717750  0.90771150  0.02354250  1
  Na  Na4  1  0.40282250  0.09228850  0.02354250  1
  Na  Na5  1  0.59228850  0.59717750  0.27354250  1
  Na  Na6  1  0.40771150  0.90282250  0.47645750  1
  Na  Na7  1  0.59228850  0.09717750  0.47645750  1
  Na  Na8  1  0.90771150  0.90282250  0.77354250  1
  Na  Na9  1  0.59717750  0.40771150  0.72645750  1
  Na  Na10  1  0.40282250  0.59228850  0.72645750  1
  Na  Na11  1  0.09717750  0.40771150  0.52354250  1
  Na  Na12  1  0.90282250  0.59228850  0.52354250  1
  Na  Na13  1  0.09228850  0.09717750  0.77354250  1
  Na  Na14  1  0.90771150  0.40282250  0.97645750  1
  Na  Na15  1  0.09228850  0.59717750  0.97645750  1
  P  P16  1  0.82174350  0.14167350  0.76109750  1
  P  P17  1  0.64167350  0.17825650  0.01109750  1
  P  P18  1  0.64167350  0.67825650  0.73890250  1
  P  P19  1  0.35832650  0.82174350  0.01109750  1
  P  P20  1  0.17825650  0.85832650  0.76109750  1
  P  P21  1  0.35832650  0.32174350  0.73890250  1
  P  P22  1  0.32174350  0.14167350  0.48890250  1
  P  P23  1  0.67825650  0.85832650  0.48890250  1
  P  P24  1  0.32174350  0.64167350  0.26109750  1
  P  P25  1  0.14167350  0.67825650  0.51109750  1
  P  P26  1  0.14167350  0.17825650  0.23890250  1
  P  P27  1  0.85832650  0.32174350  0.51109750  1
  P  P28  1  0.67825650  0.35832650  0.26109750  1
  P  P29  1  0.85832650  0.82174350  0.23890250  1
  P  P30  1  0.82174350  0.64167350  0.98890250  1
  P  P31  1  0.17825650  0.35832650  0.98890250  1
  O  O32  1  0.58386050  0.91434950  0.43573850  1
  O  O33  1  0.91434950  0.91613950  0.18573850  1
  O  O34  1  0.58386050  0.41434950  0.31426150  1
  O  O35  1  0.60810550  0.74267250  0.91748150  1
  O  O36  1  0.74267250  0.89189450  0.66748150  1
  O  O37  1  0.39189450  0.25732750  0.91748150  1
  O  O38  1  0.26029800  0.14767500  0.26679200  1
  O  O39  1  0.58565050  0.08386050  0.06426150  1
  O  O40  1  0.23970200  0.85232500  0.98320800  1
  O  O41  1  0.75732750  0.10810550  0.58251850  1
  O  O42  1  0.41434950  0.91613950  0.06426150  1
  O  O43  1  0.73970200  0.85232500  0.26679200  1
  O  O44  1  0.24267250  0.89189450  0.58251850  1
  O  O45  1  0.60810550  0.24267250  0.83251850  1
  O  O46  1  0.08565050  0.08386050  0.18573850  1
  O  O47  1  0.35232500  0.76029800  0.23320800  1
  O  O48  1  0.64767500  0.23970200  0.23320800  1
  O  O49  1  0.39189450  0.75732750  0.83251850  1
  O  O50  1  0.41613950  0.58565050  0.31426150  1
  O  O51  1  0.41613950  0.08565050  0.43573850  1
  O  O52  1  0.64767500  0.73970200  0.51679200  1
  O  O53  1  0.25732750  0.10810550  0.66748150  1
  O  O54  1  0.35232500  0.26029800  0.51679200  1
  O  O55  1  0.76029800  0.14767500  0.98320800  1
  O  O56  1  0.08386050  0.41434950  0.93573850  1
  O  O57  1  0.41434950  0.41613950  0.68573850  1
  O  O58  1  0.08386050  0.91434950  0.81426150  1
  O  O59  1  0.10810550  0.24267250  0.41748150  1
  O  O60  1  0.24267250  0.39189450  0.16748150  1
  O  O61  1  0.89189450  0.75732750  0.41748150  1
  O  O62  1  0.76029800  0.64767500  0.76679200  1
  O  O63  1  0.08565050  0.58386050  0.56426150  1
  O  O64  1  0.73970200  0.35232500  0.48320800  1
  O  O65  1  0.25732750  0.60810550  0.08251850  1
  O  O66  1  0.91434950  0.41613950  0.56426150  1
  O  O67  1  0.23970200  0.35232500  0.76679200  1
  O  O68  1  0.74267250  0.39189450  0.08251850  1
  O  O69  1  0.10810550  0.74267250  0.33251850  1
  O  O70  1  0.58565050  0.58386050  0.68573850  1
  O  O71  1  0.85232500  0.26029800  0.73320800  1
  O  O72  1  0.14767500  0.73970200  0.73320800  1
  O  O73  1  0.89189450  0.25732750  0.33251850  1
  O  O74  1  0.91613950  0.08565050  0.81426150  1
  O  O75  1  0.91613950  0.58565050  0.93573850  1
  O  O76  1  0.14767500  0.23970200  0.01679200  1
  O  O77  1  0.75732750  0.60810550  0.16748150  1
  O  O78  1  0.85232500  0.76029800  0.01679200  1
  O  O79  1  0.26029800  0.64767500  0.48320800  1
