# generated using pymatgen
data_BaHo2ZnO5
_symmetry_space_group_name_H-M   'P 1'
_cell_length_a   5.74187300
_cell_length_b   7.12283800
_cell_length_c   12.40011600
_cell_angle_alpha   90.00000000
_cell_angle_beta   90.00000000
_cell_angle_gamma   90.00000000
_symmetry_Int_Tables_number   1
_chemical_formula_structural   BaHo2ZnO5
_chemical_formula_sum   'Ba4 Ho8 Zn4 O20'
_cell_volume   507.14529104
_cell_formula_units_Z   4
loop_
 _symmetry_equiv_pos_site_id
 _symmetry_equiv_pos_as_xyz
  1  'x, y, z'
loop_
 _atom_site_type_symbol
 _atom_site_label
 _atom_site_symmetry_multiplicity
 _atom_site_fract_x
 _atom_site_fract_y
 _atom_site_fract_z
 _atom_site_occupancy
  Ba  Ba0  1  0.75000000  0.07724100  0.10169200  1
  Ba  Ba1  1  0.75000000  0.42275900  0.60169200  1
  Ba  Ba2  1  0.25000000  0.57724100  0.39830800  1
  Ba  Ba3  1  0.25000000  0.92275900  0.89830800  1
  Ho  Ho4  1  0.25000000  0.39981400  0.07438600  1
  Ho  Ho5  1  0.75000000  0.61848700  0.20809400  1
  Ho  Ho6  1  0.75000000  0.88151300  0.70809400  1
  Ho  Ho7  1  0.25000000  0.11848700  0.29190600  1
  Ho  Ho8  1  0.75000000  0.60018600  0.92561400  1
  Ho  Ho9  1  0.75000000  0.89981400  0.42561400  1
  Ho  Ho10  1  0.25000000  0.10018600  0.57438600  1
  Ho  Ho11  1  0.25000000  0.38151300  0.79190600  1
  Zn  Zn12  1  0.25000000  0.80828200  0.15001800  1
  Zn  Zn13  1  0.75000000  0.19171800  0.84998200  1
  Zn  Zn14  1  0.75000000  0.30828200  0.34998200  1
  Zn  Zn15  1  0.25000000  0.69171800  0.65001800  1
  O  O16  1  0.25000000  0.42375800  0.60069900  1
  O  O17  1  0.75000000  0.57624200  0.39930100  1
  O  O18  1  0.75000000  0.92375800  0.89930100  1
  O  O19  1  0.25000000  0.07624200  0.10069900  1
  O  O20  1  0.99989900  0.85887100  0.27538500  1
  O  O21  1  0.49989900  0.14112900  0.72461500  1
  O  O22  1  0.00010100  0.35887100  0.22461500  1
  O  O23  1  0.50010100  0.64112900  0.77538500  1
  O  O24  1  0.00010100  0.14112900  0.72461500  1
  O  O25  1  0.50010100  0.85887100  0.27538500  1
  O  O26  1  0.99989900  0.64112900  0.77538500  1
  O  O27  1  0.49989900  0.35887100  0.22461500  1
  O  O28  1  0.49909900  0.66233100  0.06621400  1
  O  O29  1  0.99909900  0.33766900  0.93378600  1
  O  O30  1  0.50090100  0.16233100  0.43378600  1
  O  O31  1  0.00090100  0.83766900  0.56621400  1
  O  O32  1  0.99909900  0.16233100  0.43378600  1
  O  O33  1  0.49909900  0.83766900  0.56621400  1
  O  O34  1  0.00090100  0.66233100  0.06621400  1
  O  O35  1  0.50090100  0.33766900  0.93378600  1
