# generated using pymatgen
data_Sr(SbO3)2
_symmetry_space_group_name_H-M   'P 1'
_cell_length_a   12.59491400
_cell_length_b   7.41377400
_cell_length_c   12.59826055
_cell_angle_alpha   90.00000000
_cell_angle_beta   109.28135052
_cell_angle_gamma   90.00000000
_symmetry_Int_Tables_number   1
_chemical_formula_structural   Sr(SbO3)2
_chemical_formula_sum   'Sr8 Sb16 O48'
_cell_volume   1110.38867652
_cell_formula_units_Z   8
loop_
 _symmetry_equiv_pos_site_id
 _symmetry_equiv_pos_as_xyz
  1  'x, y, z'
loop_
 _atom_site_type_symbol
 _atom_site_label
 _atom_site_symmetry_multiplicity
 _atom_site_fract_x
 _atom_site_fract_y
 _atom_site_fract_z
 _atom_site_occupancy
  Sr  Sr0  1  0.79089050  0.39175550  0.71762600  1
  Sr  Sr1  1  0.79089050  0.60824450  0.21762600  1
  Sr  Sr2  1  0.20910950  0.39175550  0.78237400  1
  Sr  Sr3  1  0.20910950  0.60824450  0.28237400  1
  Sr  Sr4  1  0.29089050  0.89175550  0.71762600  1
  Sr  Sr5  1  0.29089050  0.10824450  0.21762600  1
  Sr  Sr6  1  0.70910950  0.89175550  0.78237400  1
  Sr  Sr7  1  0.70910950  0.10824450  0.28237400  1
  Sb  Sb8  1  0.75000000  0.75000000  0.50000000  1
  Sb  Sb9  1  0.00000000  0.00000000  0.50000000  1
  Sb  Sb10  1  0.25000000  0.75000000  0.00000000  1
  Sb  Sb11  1  0.00000000  0.50000000  0.50000000  1
  Sb  Sb12  1  0.00000000  0.75707600  0.75000000  1
  Sb  Sb13  1  0.00000000  0.50000000  0.00000000  1
  Sb  Sb14  1  0.00000000  0.00000000  0.00000000  1
  Sb  Sb15  1  0.00000000  0.24292400  0.25000000  1
  Sb  Sb16  1  0.25000000  0.25000000  0.50000000  1
  Sb  Sb17  1  0.50000000  0.50000000  0.50000000  1
  Sb  Sb18  1  0.75000000  0.25000000  0.00000000  1
  Sb  Sb19  1  0.50000000  0.00000000  0.50000000  1
  Sb  Sb20  1  0.50000000  0.25707600  0.75000000  1
  Sb  Sb21  1  0.50000000  0.00000000  0.00000000  1
  Sb  Sb22  1  0.50000000  0.50000000  0.00000000  1
  Sb  Sb23  1  0.50000000  0.74292400  0.25000000  1
  O  O24  1  0.66382950  0.54320450  0.52912000  1
  O  O25  1  0.16588400  0.72290500  0.83412700  1
  O  O26  1  0.96969000  0.55053500  0.83795100  1
  O  O27  1  0.16474300  0.43534900  0.55555300  1
  O  O28  1  0.03031000  0.55053500  0.66204900  1
  O  O29  1  0.16474300  0.56465100  0.05555300  1
  O  O30  1  0.03689900  0.24998000  0.96243000  1
  O  O31  1  0.16588400  0.27709500  0.33412700  1
  O  O32  1  0.96310100  0.24998000  0.53757000  1
  O  O33  1  0.94512400  0.94376100  0.83297200  1
  O  O34  1  0.94512400  0.05623900  0.33297200  1
  O  O35  1  0.33617050  0.54320450  0.97088000  1
  O  O36  1  0.05487600  0.94376100  0.66702800  1
  O  O37  1  0.66382950  0.45679550  0.02912000  1
  O  O38  1  0.05487600  0.05623900  0.16702800  1
  O  O39  1  0.03689900  0.75002000  0.46243000  1
  O  O40  1  0.96310100  0.75002000  0.03757000  1
  O  O41  1  0.83411600  0.72290500  0.66587300  1
  O  O42  1  0.83525700  0.43534900  0.94444700  1
  O  O43  1  0.96969000  0.44946500  0.33795100  1
  O  O44  1  0.83525700  0.56465100  0.44444700  1
  O  O45  1  0.03031000  0.44946500  0.16204900  1
  O  O46  1  0.33617050  0.45679550  0.47088000  1
  O  O47  1  0.83411600  0.27709500  0.16587300  1
  O  O48  1  0.16382950  0.04320450  0.52912000  1
  O  O49  1  0.66588400  0.22290500  0.83412700  1
  O  O50  1  0.46969000  0.05053500  0.83795100  1
  O  O51  1  0.66474300  0.93534900  0.55555300  1
  O  O52  1  0.53031000  0.05053500  0.66204900  1
  O  O53  1  0.66474300  0.06465100  0.05555300  1
  O  O54  1  0.53689900  0.74998000  0.96243000  1
  O  O55  1  0.66588400  0.77709500  0.33412700  1
  O  O56  1  0.46310100  0.74998000  0.53757000  1
  O  O57  1  0.44512400  0.44376100  0.83297200  1
  O  O58  1  0.44512400  0.55623900  0.33297200  1
  O  O59  1  0.83617050  0.04320450  0.97088000  1
  O  O60  1  0.55487600  0.44376100  0.66702800  1
  O  O61  1  0.16382950  0.95679550  0.02912000  1
  O  O62  1  0.55487600  0.55623900  0.16702800  1
  O  O63  1  0.53689900  0.25002000  0.46243000  1
  O  O64  1  0.46310100  0.25002000  0.03757000  1
  O  O65  1  0.33411600  0.22290500  0.66587300  1
  O  O66  1  0.33525700  0.93534900  0.94444700  1
  O  O67  1  0.46969000  0.94946500  0.33795100  1
  O  O68  1  0.33525700  0.06465100  0.44444700  1
  O  O69  1  0.53031000  0.94946500  0.16204900  1
  O  O70  1  0.83617050  0.95679550  0.47088000  1
  O  O71  1  0.33411600  0.77709500  0.16587300  1
