# generated using pymatgen
data_K2Ho4Cu4S9
_symmetry_space_group_name_H-M   'P 1'
_cell_length_a   13.68403886
_cell_length_b   3.92282900
_cell_length_c   15.80407345
_cell_angle_alpha   90.00000000
_cell_angle_beta   109.65367392
_cell_angle_gamma   90.00000000
_symmetry_Int_Tables_number   1
_chemical_formula_structural   K2Ho4Cu4S9
_chemical_formula_sum   'K4 Ho8 Cu8 S18'
_cell_volume   798.94157372
_cell_formula_units_Z   2
loop_
 _symmetry_equiv_pos_site_id
 _symmetry_equiv_pos_as_xyz
  1  'x, y, z'
loop_
 _atom_site_type_symbol
 _atom_site_label
 _atom_site_symmetry_multiplicity
 _atom_site_fract_x
 _atom_site_fract_y
 _atom_site_fract_z
 _atom_site_occupancy
  K  K0  1  0.46971800  0.50000000  0.23079500  1
  K  K1  1  0.53021700  0.50000000  0.77193600  1
  K  K2  1  0.96971800  0.00000000  0.23079500  1
  K  K3  1  0.03021700  0.00000000  0.77193600  1
  Ho  Ho4  1  0.15473300  0.50000000  0.05566300  1
  Ho  Ho5  1  0.73392850  0.50000000  0.60618600  1
  Ho  Ho6  1  0.84525250  0.50000000  0.94487900  1
  Ho  Ho7  1  0.26773900  0.50000000  0.39599300  1
  Ho  Ho8  1  0.65473300  0.00000000  0.05566300  1
  Ho  Ho9  1  0.23392850  0.00000000  0.60618600  1
  Ho  Ho10  1  0.34525250  0.00000000  0.94487900  1
  Ho  Ho11  1  0.76773900  0.00000000  0.39599300  1
  Cu  Cu12  1  0.75361050  0.00000000  0.76988800  1
  Cu  Cu13  1  0.57000800  0.00000000  0.45634100  1
  Cu  Cu14  1  0.24954900  0.00000000  0.23054300  1
  Cu  Cu15  1  0.43099450  0.00000000  0.54058100  1
  Cu  Cu16  1  0.25361050  0.50000000  0.76988800  1
  Cu  Cu17  1  0.07000800  0.50000000  0.45634100  1
  Cu  Cu18  1  0.74954900  0.50000000  0.23054300  1
  Cu  Cu19  1  0.93099450  0.50000000  0.54058100  1
  S  S20  1  0.85154750  0.50000000  0.77943600  1
  S  S21  1  0.15150150  0.50000000  0.22265000  1
  S  S22  1  0.39124000  0.00000000  0.37335500  1
  S  S23  1  0.61073300  0.00000000  0.62791600  1
  S  S24  1  0.70125500  0.00000000  0.89777500  1
  S  S25  1  0.63891250  0.50000000  0.42484500  1
  S  S26  1  0.50045950  0.50000000  0.00018900  1
  S  S27  1  0.29865900  0.00000000  0.10211500  1
  S  S28  1  0.36331000  0.50000000  0.57647800  1
  S  S29  1  0.35154750  0.00000000  0.77943600  1
  S  S30  1  0.65150150  0.00000000  0.22265000  1
  S  S31  1  0.89124000  0.50000000  0.37335500  1
  S  S32  1  0.11073300  0.50000000  0.62791600  1
  S  S33  1  0.20125500  0.50000000  0.89777500  1
  S  S34  1  0.13891250  0.00000000  0.42484500  1
  S  S35  1  0.00045950  0.00000000  0.00018900  1
  S  S36  1  0.79865900  0.50000000  0.10211500  1
  S  S37  1  0.86331000  0.00000000  0.57647800  1
