# generated using pymatgen
data_NaTi2(PO4)3
_symmetry_space_group_name_H-M   'P 1'
_cell_length_a   8.61677188
_cell_length_b   8.61677188
_cell_length_c   22.02153948
_cell_angle_alpha   90.00000000
_cell_angle_beta   90.00000000
_cell_angle_gamma   120.00000000
_symmetry_Int_Tables_number   1
_chemical_formula_structural   NaTi2(PO4)3
_chemical_formula_sum   'Na6 Ti12 P18 O72'
_cell_volume   1416.01384250
_cell_formula_units_Z   6
loop_
 _symmetry_equiv_pos_site_id
 _symmetry_equiv_pos_as_xyz
  1  'x, y, z'
loop_
 _atom_site_type_symbol
 _atom_site_label
 _atom_site_symmetry_multiplicity
 _atom_site_fract_x
 _atom_site_fract_y
 _atom_site_fract_z
 _atom_site_occupancy
  Na  Na0  1  0.33333333  0.66666667  0.16666667  1
  Na  Na1  1  0.00000000  0.00000000  0.00000000  1
  Na  Na2  1  1.00000000  0.00000000  0.50000000  1
  Na  Na3  1  0.66666667  0.33333333  0.33333333  1
  Na  Na4  1  0.66666667  0.33333333  0.83333333  1
  Na  Na5  1  0.33333333  0.66666667  0.66666667  1
  Ti  Ti6  1  0.66666667  0.33333333  0.18874133  1
  Ti  Ti7  1  0.33333333  0.66666667  0.31125867  1
  Ti  Ti8  1  0.33333333  0.66666667  0.02207467  1
  Ti  Ti9  1  0.00000000  0.00000000  0.14459200  1
  Ti  Ti10  1  0.33333333  0.66666667  0.52207467  1
  Ti  Ti11  1  0.00000000  0.00000000  0.64459200  1
  Ti  Ti12  1  0.00000000  0.00000000  0.35540800  1
  Ti  Ti13  1  0.66666667  0.33333333  0.47792533  1
  Ti  Ti14  1  0.00000000  0.00000000  0.85540800  1
  Ti  Ti15  1  0.66666667  0.33333333  0.97792533  1
  Ti  Ti16  1  0.66666667  0.33333333  0.68874133  1
  Ti  Ti17  1  0.33333333  0.66666667  0.81125867  1
  P  P18  1  0.00000000  0.28721000  0.25000000  1
  P  P19  1  0.71279000  0.71279000  0.25000000  1
  P  P20  1  0.66666667  0.04612333  0.08333333  1
  P  P21  1  0.95387667  0.62054333  0.08333333  1
  P  P22  1  0.28721000  0.00000000  0.25000000  1
  P  P23  1  0.37945667  0.33333333  0.08333333  1
  P  P24  1  0.66666667  0.62054333  0.58333333  1
  P  P25  1  0.37945667  0.04612333  0.58333333  1
  P  P26  1  0.33333333  0.37945667  0.41666667  1
  P  P27  1  0.62054333  0.95387667  0.41666667  1
  P  P28  1  0.95387667  0.33333333  0.58333333  1
  P  P29  1  0.04612333  0.66666667  0.41666667  1
  P  P30  1  0.33333333  0.95387667  0.91666667  1
  P  P31  1  0.04612333  0.37945667  0.91666667  1
  P  P32  1  0.00000000  0.71279000  0.75000000  1
  P  P33  1  0.28721000  0.28721000  0.75000000  1
  P  P34  1  0.62054333  0.66666667  0.91666667  1
  P  P35  1  0.71279000  0.00000000  0.75000000  1
  O  O36  1  0.19219267  0.16476633  0.08775833  1
  O  O37  1  0.83523367  0.02742633  0.08775833  1
  O  O38  1  0.97257367  0.80780733  0.08775833  1
  O  O39  1  0.36075967  0.50190033  0.07890833  1
  O  O40  1  0.49809967  0.85885933  0.07890833  1
  O  O41  1  0.14114067  0.63924033  0.07890833  1
  O  O42  1  0.47447400  0.16856700  0.24557500  1
  O  O43  1  0.83143300  0.30590700  0.24557500  1
  O  O44  1  0.69409300  0.52552600  0.24557500  1
  O  O45  1  0.30590700  0.83143300  0.25442500  1
  O  O46  1  0.16856700  0.47447400  0.25442500  1
  O  O47  1  0.52552600  0.69409300  0.25442500  1
  O  O48  1  0.84157833  0.52903367  0.02606367  1
  O  O49  1  0.68745533  0.15842167  0.02606367  1
  O  O50  1  0.47096633  0.31254467  0.02606367  1
  O  O51  1  0.86236700  0.50824500  0.14060300  1
  O  O52  1  0.64587800  0.13763300  0.14060300  1
  O  O53  1  0.49175500  0.35412200  0.14060300  1
  O  O54  1  0.82508833  0.80429967  0.30726967  1
  O  O55  1  0.97921133  0.17491167  0.30726967  1
  O  O56  1  0.19570033  0.02078867  0.30726967  1
  O  O57  1  0.80429967  0.82508833  0.19273033  1
  O  O58  1  0.02078867  0.19570033  0.19273033  1
  O  O59  1  0.17491167  0.97921133  0.19273033  1
  O  O60  1  0.85885933  0.49809967  0.42109167  1
  O  O61  1  0.50190033  0.36075967  0.42109167  1
  O  O62  1  0.63924033  0.14114067  0.42109167  1
  O  O63  1  0.02742633  0.83523367  0.41224167  1
  O  O64  1  0.16476633  0.19219267  0.41224167  1
  O  O65  1  0.80780733  0.97257367  0.41224167  1
  O  O66  1  0.14114067  0.50190033  0.57890833  1
  O  O67  1  0.49809967  0.63924033  0.57890833  1
  O  O68  1  0.36075967  0.85885933  0.57890833  1
  O  O69  1  0.97257367  0.16476633  0.58775833  1
  O  O70  1  0.83523367  0.80780733  0.58775833  1
  O  O71  1  0.19219267  0.02742633  0.58775833  1
  O  O72  1  0.50824500  0.86236700  0.35939700  1
  O  O73  1  0.35412200  0.49175500  0.35939700  1
  O  O74  1  0.13763300  0.64587800  0.35939700  1
  O  O75  1  0.52903367  0.84157833  0.47393633  1
  O  O76  1  0.31254467  0.47096633  0.47393633  1
  O  O77  1  0.15842167  0.68745533  0.47393633  1
  O  O78  1  0.49175500  0.13763300  0.64060300  1
  O  O79  1  0.64587800  0.50824500  0.64060300  1
  O  O80  1  0.86236700  0.35412200  0.64060300  1
  O  O81  1  0.47096633  0.15842167  0.52606367  1
  O  O82  1  0.68745533  0.52903367  0.52606367  1
  O  O83  1  0.84157833  0.31254467  0.52606367  1
  O  O84  1  0.52552600  0.83143300  0.75442500  1
  O  O85  1  0.16856700  0.69409300  0.75442500  1
  O  O86  1  0.30590700  0.47447400  0.75442500  1
  O  O87  1  0.69409300  0.16856700  0.74557500  1
  O  O88  1  0.83143300  0.52552600  0.74557500  1
  O  O89  1  0.47447400  0.30590700  0.74557500  1
  O  O90  1  0.80780733  0.83523367  0.91224167  1
  O  O91  1  0.16476633  0.97257367  0.91224167  1
  O  O92  1  0.02742633  0.19219267  0.91224167  1
  O  O93  1  0.63924033  0.49809967  0.92109167  1
  O  O94  1  0.50190033  0.14114067  0.92109167  1
  O  O95  1  0.85885933  0.36075967  0.92109167  1
  O  O96  1  0.17491167  0.19570033  0.69273033  1
  O  O97  1  0.02078867  0.82508833  0.69273033  1
  O  O98  1  0.80429967  0.97921133  0.69273033  1
  O  O99  1  0.19570033  0.17491167  0.80726967  1
  O  O100  1  0.97921133  0.80429967  0.80726967  1
  O  O101  1  0.82508833  0.02078867  0.80726967  1
  O  O102  1  0.15842167  0.47096633  0.97393633  1
  O  O103  1  0.31254467  0.84157833  0.97393633  1
  O  O104  1  0.52903367  0.68745533  0.97393633  1
  O  O105  1  0.13763300  0.49175500  0.85939700  1
  O  O106  1  0.35412200  0.86236700  0.85939700  1
  O  O107  1  0.50824500  0.64587800  0.85939700  1
