# generated using pymatgen
data_Na2TiFe(PO4)3
_symmetry_space_group_name_H-M   'P 1'
_cell_length_a   9.90361000
_cell_length_b   9.90361000
_cell_length_c   9.90361000
_cell_angle_alpha   90.00000000
_cell_angle_beta   90.00000000
_cell_angle_gamma   90.00000000
_symmetry_Int_Tables_number   1
_chemical_formula_structural   Na2TiFe(PO4)3
_chemical_formula_sum   'Na8 Ti4 Fe4 P12 O48'
_cell_volume   971.36083540
_cell_formula_units_Z   4
loop_
 _symmetry_equiv_pos_site_id
 _symmetry_equiv_pos_as_xyz
  1  'x, y, z'
loop_
 _atom_site_type_symbol
 _atom_site_label
 _atom_site_symmetry_multiplicity
 _atom_site_fract_x
 _atom_site_fract_y
 _atom_site_fract_z
 _atom_site_occupancy
  Na  Na0  1  0.82379400  0.67620600  0.32379400  1
  Na  Na1  1  0.17620600  0.17620600  0.17620600  1
  Na  Na2  1  0.54274000  0.04274000  0.45726000  1
  Na  Na3  1  0.04274000  0.45726000  0.54274000  1
  Na  Na4  1  0.67620600  0.32379400  0.82379400  1
  Na  Na5  1  0.45726000  0.54274000  0.04274000  1
  Na  Na6  1  0.95726000  0.95726000  0.95726000  1
  Na  Na7  1  0.32379400  0.82379400  0.67620600  1
  Ti  Ti8  1  0.60860600  0.89139400  0.10860600  1
  Ti  Ti9  1  0.89139400  0.10860600  0.60860600  1
  Ti  Ti10  1  0.39139400  0.39139400  0.39139400  1
  Ti  Ti11  1  0.10860600  0.60860600  0.89139400  1
  Fe  Fe12  1  0.33645300  0.16354700  0.83645300  1
  Fe  Fe13  1  0.16354700  0.83645300  0.33645300  1
  Fe  Fe14  1  0.66354700  0.66354700  0.66354700  1
  Fe  Fe15  1  0.83645300  0.33645300  0.16354700  1
  P  P16  1  0.70914500  0.37969800  0.47481400  1
  P  P17  1  0.79085500  0.62030200  0.97481400  1
  P  P18  1  0.62030200  0.97481400  0.79085500  1
  P  P19  1  0.02518600  0.29085500  0.87969800  1
  P  P20  1  0.97481400  0.79085500  0.62030200  1
  P  P21  1  0.37969800  0.47481400  0.70914500  1
  P  P22  1  0.52518600  0.20914500  0.12030200  1
  P  P23  1  0.87969800  0.02518600  0.29085500  1
  P  P24  1  0.12030200  0.52518600  0.20914500  1
  P  P25  1  0.29085500  0.87969800  0.02518600  1
  P  P26  1  0.47481400  0.70914500  0.37969800  1
  P  P27  1  0.20914500  0.12030200  0.52518600  1
  O  O28  1  0.44013100  0.82920900  0.01539100  1
  O  O29  1  0.32764700  0.74591300  0.40446500  1
  O  O30  1  0.98460900  0.94013100  0.67079100  1
  O  O31  1  0.27069200  0.54524800  0.80029200  1
  O  O32  1  0.90446500  0.17235300  0.25408700  1
  O  O33  1  0.17079100  0.51539100  0.05986900  1
  O  O34  1  0.82920900  0.01539100  0.44013100  1
  O  O35  1  0.72930800  0.04524800  0.69970800  1
  O  O36  1  0.30029200  0.22930800  0.45475200  1
  O  O37  1  0.01002800  0.94641800  0.26441200  1
  O  O38  1  0.51539100  0.05986900  0.17079100  1
  O  O39  1  0.73558800  0.51002800  0.55358200  1
  O  O40  1  0.98997200  0.44641800  0.23558800  1
  O  O41  1  0.32920900  0.48460900  0.55986900  1
  O  O42  1  0.17235300  0.25408700  0.90446500  1
  O  O43  1  0.51002800  0.55358200  0.73558800  1
  O  O44  1  0.48997200  0.05358200  0.76441200  1
  O  O45  1  0.82764700  0.75408700  0.59553500  1
  O  O46  1  0.23558800  0.98997200  0.44641800  1
  O  O47  1  0.25408700  0.90446500  0.17235300  1
  O  O48  1  0.55986900  0.32920900  0.48460900  1
  O  O49  1  0.55358200  0.73558800  0.51002800  1
  O  O50  1  0.80029200  0.27069200  0.54524800  1
  O  O51  1  0.59553500  0.82764700  0.75408700  1
  O  O52  1  0.05986900  0.17079100  0.51539100  1
  O  O53  1  0.94013100  0.67079100  0.98460900  1
  O  O54  1  0.24591300  0.09553500  0.67235300  1
  O  O55  1  0.48460900  0.55986900  0.32920900  1
  O  O56  1  0.67079100  0.98460900  0.94013100  1
  O  O57  1  0.19970800  0.77069200  0.95475200  1
  O  O58  1  0.94641800  0.26441200  0.01002800  1
  O  O59  1  0.75408700  0.59553500  0.82764700  1
  O  O60  1  0.76441200  0.48997200  0.05358200  1
  O  O61  1  0.54524800  0.80029200  0.27069200  1
  O  O62  1  0.95475200  0.19970800  0.77069200  1
  O  O63  1  0.22930800  0.45475200  0.30029200  1
  O  O64  1  0.74591300  0.40446500  0.32764700  1
  O  O65  1  0.04524800  0.69970800  0.72930800  1
  O  O66  1  0.09553500  0.67235300  0.24591300  1
  O  O67  1  0.40446500  0.32764700  0.74591300  1
  O  O68  1  0.77069200  0.95475200  0.19970800  1
  O  O69  1  0.67235300  0.24591300  0.09553500  1
  O  O70  1  0.44641800  0.23558800  0.98997200  1
  O  O71  1  0.26441200  0.01002800  0.94641800  1
  O  O72  1  0.01539100  0.44013100  0.82920900  1
  O  O73  1  0.45475200  0.30029200  0.22930800  1
  O  O74  1  0.69970800  0.72930800  0.04524800  1
  O  O75  1  0.05358200  0.76441200  0.48997200  1
