# generated using pymatgen
data_Tl2Pt(CN)4
_symmetry_space_group_name_H-M   'P 1'
_cell_length_a   6.33339500
_cell_length_b   7.39777200
_cell_length_c   10.05051470
_cell_angle_alpha   90.00000000
_cell_angle_beta   112.61712550
_cell_angle_gamma   90.00000000
_symmetry_Int_Tables_number   1
_chemical_formula_structural   Tl2Pt(CN)4
_chemical_formula_sum   'Tl4 Pt2 C8 N8'
_cell_volume   434.68270945
_cell_formula_units_Z   2
loop_
 _symmetry_equiv_pos_site_id
 _symmetry_equiv_pos_as_xyz
  1  'x, y, z'
loop_
 _atom_site_type_symbol
 _atom_site_label
 _atom_site_symmetry_multiplicity
 _atom_site_fract_x
 _atom_site_fract_y
 _atom_site_fract_z
 _atom_site_occupancy
  Tl  Tl0  1  0.31119500  0.34658900  0.58146200  1
  Tl  Tl1  1  0.68880500  0.84658900  0.91853800  1
  Tl  Tl2  1  0.68880500  0.65341100  0.41853800  1
  Tl  Tl3  1  0.31119500  0.15341100  0.08146200  1
  Pt  Pt4  1  0.00000000  0.00000000  0.50000000  1
  Pt  Pt5  1  0.00000000  0.50000000  0.00000000  1
  C  C6  1  0.72222900  0.34151500  0.93428000  1
  C  C7  1  0.99282600  0.00185000  0.29961800  1
  C  C8  1  0.00717400  0.50185000  0.20038200  1
  C  C9  1  0.72222900  0.15848500  0.43428000  1
  C  C10  1  0.00717400  0.99815000  0.70038200  1
  C  C11  1  0.27777100  0.65848500  0.06572000  1
  C  C12  1  0.27777100  0.84151500  0.56572000  1
  C  C13  1  0.99282600  0.49815000  0.79961800  1
  N  N14  1  0.98459400  0.99360000  0.18135500  1
  N  N15  1  0.56876300  0.23837000  0.89355000  1
  N  N16  1  0.98459400  0.50640000  0.68135500  1
  N  N17  1  0.43123700  0.73837000  0.60645000  1
  N  N18  1  0.01540600  0.00640000  0.81864500  1
  N  N19  1  0.56876300  0.26163000  0.39355000  1
  N  N20  1  0.43123700  0.76163000  0.10645000  1
  N  N21  1  0.01540600  0.49360000  0.31864500  1
