# generated using pymatgen
data_Na2PH3O5
_symmetry_space_group_name_H-M   'P 1'
_cell_length_a   5.68489700
_cell_length_b   5.76766369
_cell_length_c   8.05236098
_cell_angle_alpha   104.26808339
_cell_angle_beta   108.55602284
_cell_angle_gamma   101.68930846
_symmetry_Int_Tables_number   1
_chemical_formula_structural   Na2PH3O5
_chemical_formula_sum   'Na4 P2 H6 O10'
_cell_volume   230.95160456
_cell_formula_units_Z   2
loop_
 _symmetry_equiv_pos_site_id
 _symmetry_equiv_pos_as_xyz
  1  'x, y, z'
loop_
 _atom_site_type_symbol
 _atom_site_label
 _atom_site_symmetry_multiplicity
 _atom_site_fract_x
 _atom_site_fract_y
 _atom_site_fract_z
 _atom_site_occupancy
  Na  Na0  1  0.48361300  0.33406100  0.78562700  1
  Na  Na1  1  0.51638700  0.66593900  0.21437300  1
  Na  Na2  1  0.26369600  0.72255800  0.56347500  1
  Na  Na3  1  0.73630400  0.27744200  0.43652500  1
  P  P4  1  0.12862300  0.08684700  0.29338100  1
  P  P5  1  0.87137700  0.91315300  0.70661900  1
  H  H6  1  0.25017400  0.13943000  0.06021200  1
  H  H7  1  0.74982600  0.86057000  0.93978800  1
  H  H8  1  0.19808000  0.71391200  0.88257300  1
  H  H9  1  0.80192000  0.28608800  0.11742700  1
  H  H10  1  0.05793700  0.42593900  0.84471700  1
  H  H11  1  0.94206300  0.57406100  0.15528300  1
  O  O12  1  0.19283000  0.28734100  0.47920600  1
  O  O13  1  0.80717000  0.71265900  0.52079400  1
  O  O14  1  0.83505300  0.01199700  0.16629000  1
  O  O15  1  0.16494700  0.98800300  0.83371000  1
  O  O16  1  0.21998600  0.85769900  0.31008900  1
  O  O17  1  0.78001400  0.14230100  0.68991100  1
  O  O18  1  0.29794800  0.23067800  0.19677900  1
  O  O19  1  0.70205200  0.76932200  0.80322100  1
  O  O20  1  0.23011900  0.55784700  0.90269400  1
  O  O21  1  0.76988100  0.44215300  0.09730600  1
