# generated using pymatgen
data_CsTbZnTe3
_symmetry_space_group_name_H-M   'P 1'
_cell_length_a   4.44044000
_cell_length_b   17.30971800
_cell_length_c   11.78424400
_cell_angle_alpha   90.00000000
_cell_angle_beta   90.00000000
_cell_angle_gamma   90.00000000
_symmetry_Int_Tables_number   1
_chemical_formula_structural   CsTbZnTe3
_chemical_formula_sum   'Cs4 Tb4 Zn4 Te12'
_cell_volume   905.76956780
_cell_formula_units_Z   4
loop_
 _symmetry_equiv_pos_site_id
 _symmetry_equiv_pos_as_xyz
  1  'x, y, z'
loop_
 _atom_site_type_symbol
 _atom_site_label
 _atom_site_symmetry_multiplicity
 _atom_site_fract_x
 _atom_site_fract_y
 _atom_site_fract_z
 _atom_site_occupancy
  Cs  Cs0  1  0.50000000  0.25457000  0.25000000  1
  Cs  Cs1  1  0.00000000  0.24543000  0.75000000  1
  Cs  Cs2  1  0.00000000  0.75457000  0.25000000  1
  Cs  Cs3  1  0.50000000  0.74543000  0.75000000  1
  Tb  Tb4  1  0.50000000  0.00000000  0.00000000  1
  Tb  Tb5  1  0.50000000  0.00000000  0.50000000  1
  Tb  Tb6  1  0.00000000  0.50000000  0.00000000  1
  Tb  Tb7  1  0.00000000  0.50000000  0.50000000  1
  Zn  Zn8  1  0.00000000  0.03867100  0.25000000  1
  Zn  Zn9  1  0.50000000  0.46132900  0.75000000  1
  Zn  Zn10  1  0.50000000  0.53867100  0.25000000  1
  Zn  Zn11  1  0.00000000  0.96132900  0.75000000  1
  Te  Te12  1  0.50000000  0.05776200  0.75000000  1
  Te  Te13  1  0.00000000  0.11978400  0.44372700  1
  Te  Te14  1  0.00000000  0.11978400  0.05627300  1
  Te  Te15  1  0.00000000  0.44223800  0.25000000  1
  Te  Te16  1  0.50000000  0.38021600  0.94372700  1
  Te  Te17  1  0.50000000  0.38021600  0.55627300  1
  Te  Te18  1  0.00000000  0.55776200  0.75000000  1
  Te  Te19  1  0.50000000  0.61978400  0.44372700  1
  Te  Te20  1  0.50000000  0.61978400  0.05627300  1
  Te  Te21  1  0.50000000  0.94223800  0.25000000  1
  Te  Te22  1  0.00000000  0.88021600  0.94372700  1
  Te  Te23  1  0.00000000  0.88021600  0.55627300  1
