# generated using pymatgen
data_La5Ti6S3(ClO5)3
_symmetry_space_group_name_H-M   'P 1'
_cell_length_a   17.69857600
_cell_length_b   12.49103000
_cell_length_c   12.47372522
_cell_angle_alpha   90.00000000
_cell_angle_beta   134.70590514
_cell_angle_gamma   90.00000000
_symmetry_Int_Tables_number   1
_chemical_formula_structural   La5Ti6S3(ClO5)3
_chemical_formula_sum   'La20 Ti24 S12 Cl12 O60'
_cell_volume   1959.90738238
_cell_formula_units_Z   4
loop_
 _symmetry_equiv_pos_site_id
 _symmetry_equiv_pos_as_xyz
  1  'x, y, z'
loop_
 _atom_site_type_symbol
 _atom_site_label
 _atom_site_symmetry_multiplicity
 _atom_site_fract_x
 _atom_site_fract_y
 _atom_site_fract_z
 _atom_site_occupancy
  La  La0  1  0.00000000  0.34109700  0.00000000  1
  La  La1  1  0.25000000  0.75000000  0.50000000  1
  La  La2  1  0.25000000  0.25000000  0.50000000  1
  La  La3  1  0.25000000  0.75000000  0.00000000  1
  La  La4  1  0.00591200  0.00000000  0.67449500  1
  La  La5  1  0.84821500  0.50000000  0.34320500  1
  La  La6  1  0.65178500  0.00000000  0.65679500  1
  La  La7  1  0.49408800  0.50000000  0.32550500  1
  La  La8  1  0.75000000  0.75000000  0.00000000  1
  La  La9  1  0.00000000  0.65890300  0.00000000  1
  La  La10  1  0.50000000  0.84109700  0.00000000  1
  La  La11  1  0.75000000  0.25000000  0.50000000  1
  La  La12  1  0.75000000  0.75000000  0.50000000  1
  La  La13  1  0.75000000  0.25000000  0.00000000  1
  La  La14  1  0.50591200  0.50000000  0.67449500  1
  La  La15  1  0.34821500  0.00000000  0.34320500  1
  La  La16  1  0.15178500  0.50000000  0.65679500  1
  La  La17  1  0.99408800  0.00000000  0.32550500  1
  La  La18  1  0.25000000  0.25000000  0.00000000  1
  La  La19  1  0.50000000  0.15890300  0.00000000  1
  Ti  Ti20  1  0.19554900  0.50000000  0.32707500  1
  Ti  Ti21  1  0.49960550  0.85433850  0.69980500  1
  Ti  Ti22  1  0.20085700  0.50000000  0.04890800  1
  Ti  Ti23  1  0.49960550  0.14566150  0.69980500  1
  Ti  Ti24  1  0.36474350  0.69680850  0.36636900  1
  Ti  Ti25  1  0.86474350  0.80319150  0.36636900  1
  Ti  Ti26  1  0.63525650  0.69680850  0.63363100  1
  Ti  Ti27  1  0.13525650  0.80319150  0.63363100  1
  Ti  Ti28  1  0.00039450  0.35433850  0.30019500  1
  Ti  Ti29  1  0.29914300  0.00000000  0.95109200  1
  Ti  Ti30  1  0.00039450  0.64566150  0.30019500  1
  Ti  Ti31  1  0.30445100  0.00000000  0.67292500  1
  Ti  Ti32  1  0.69554900  0.00000000  0.32707500  1
  Ti  Ti33  1  0.99960550  0.35433850  0.69980500  1
  Ti  Ti34  1  0.70085700  0.00000000  0.04890800  1
  Ti  Ti35  1  0.99960550  0.64566150  0.69980500  1
  Ti  Ti36  1  0.86474350  0.19680850  0.36636900  1
  Ti  Ti37  1  0.36474350  0.30319150  0.36636900  1
  Ti  Ti38  1  0.13525650  0.19680850  0.63363100  1
  Ti  Ti39  1  0.63525650  0.30319150  0.63363100  1
  Ti  Ti40  1  0.50039450  0.85433850  0.30019500  1
  Ti  Ti41  1  0.79914300  0.50000000  0.95109200  1
  Ti  Ti42  1  0.50039450  0.14566150  0.30019500  1
  Ti  Ti43  1  0.80445100  0.50000000  0.67292500  1
  S  S44  1  0.49878150  0.68506050  0.79399200  1
  S  S45  1  0.99878150  0.81493950  0.79399200  1
  S  S46  1  0.79390900  0.00000000  0.97812600  1
  S  S47  1  0.70609100  0.50000000  0.02187400  1
  S  S48  1  0.50121850  0.68506050  0.20600800  1
  S  S49  1  0.00121850  0.81493950  0.20600800  1
  S  S50  1  0.99878150  0.18506050  0.79399200  1
  S  S51  1  0.49878150  0.31493950  0.79399200  1
  S  S52  1  0.29390900  0.50000000  0.97812600  1
  S  S53  1  0.20609100  0.00000000  0.02187400  1
  S  S54  1  0.00121850  0.18506050  0.20600800  1
  S  S55  1  0.50121850  0.31493950  0.20600800  1
  Cl  Cl56  1  0.18069300  0.20434500  0.18156300  1
  Cl  Cl57  1  0.20457100  0.00000000  0.38251500  1
  Cl  Cl58  1  0.18069300  0.79565500  0.18156300  1
  Cl  Cl59  1  0.31930700  0.70434500  0.81843700  1
  Cl  Cl60  1  0.29542900  0.50000000  0.61748500  1
  Cl  Cl61  1  0.31930700  0.29565500  0.81843700  1
  Cl  Cl62  1  0.68069300  0.70434500  0.18156300  1
  Cl  Cl63  1  0.70457100  0.50000000  0.38251500  1
  Cl  Cl64  1  0.68069300  0.29565500  0.18156300  1
  Cl  Cl65  1  0.81930700  0.20434500  0.81843700  1
  Cl  Cl66  1  0.79542900  0.00000000  0.61748500  1
  Cl  Cl67  1  0.81930700  0.79565500  0.81843700  1
  O  O68  1  0.38723250  0.88901850  0.70131600  1
  O  O69  1  0.31410700  0.38916000  0.42751700  1
  O  O70  1  0.12728100  0.50000000  0.12663600  1
  O  O71  1  0.60853700  0.88728700  0.92516800  1
  O  O72  1  0.38723250  0.11098150  0.70131600  1
  O  O73  1  0.31410700  0.61084000  0.42751700  1
  O  O74  1  0.31329800  0.38753300  0.20446700  1
  O  O75  1  0.50029600  0.00000000  0.63061100  1
  O  O76  1  0.60853700  0.11271300  0.92516800  1
  O  O77  1  0.88407200  0.68302800  0.49273900  1
  O  O78  1  0.31329800  0.61246700  0.20446700  1
  O  O79  1  0.38407200  0.81697200  0.49273900  1
  O  O80  1  0.50000000  0.62889400  0.50000000  1
  O  O81  1  0.88625050  0.68331550  0.27855300  1
  O  O82  1  0.11374950  0.68331550  0.72144700  1
  O  O83  1  0.38625050  0.81668450  0.27855300  1
  O  O84  1  0.61374950  0.81668450  0.72144700  1
  O  O85  1  0.00000000  0.87110600  0.50000000  1
  O  O86  1  0.11592800  0.68302800  0.50726100  1
  O  O87  1  0.18670200  0.88753300  0.79553300  1
  O  O88  1  0.61592800  0.81697200  0.50726100  1
  O  O89  1  0.89146300  0.38728700  0.07483200  1
  O  O90  1  0.99970400  0.50000000  0.36938900  1
  O  O91  1  0.18670200  0.11246700  0.79553300  1
  O  O92  1  0.18589300  0.88916000  0.57248300  1
  O  O93  1  0.11276750  0.38901850  0.29868400  1
  O  O94  1  0.89146300  0.61271300  0.07483200  1
  O  O95  1  0.37271900  0.00000000  0.87336400  1
  O  O96  1  0.18589300  0.11084000  0.57248300  1
  O  O97  1  0.11276750  0.61098150  0.29868400  1
  O  O98  1  0.88723250  0.38901850  0.70131600  1
  O  O99  1  0.81410700  0.88916000  0.42751700  1
  O  O100  1  0.62728100  0.00000000  0.12663600  1
  O  O101  1  0.10853700  0.38728700  0.92516800  1
  O  O102  1  0.88723250  0.61098150  0.70131600  1
  O  O103  1  0.81410700  0.11084000  0.42751700  1
  O  O104  1  0.81329800  0.88753300  0.20446700  1
  O  O105  1  0.00029600  0.50000000  0.63061100  1
  O  O106  1  0.10853700  0.61271300  0.92516800  1
  O  O107  1  0.38407200  0.18302800  0.49273900  1
  O  O108  1  0.81329800  0.11246700  0.20446700  1
  O  O109  1  0.88407200  0.31697200  0.49273900  1
  O  O110  1  0.00000000  0.12889400  0.50000000  1
  O  O111  1  0.38625050  0.18331550  0.27855300  1
  O  O112  1  0.61374950  0.18331550  0.72144700  1
  O  O113  1  0.88625050  0.31668450  0.27855300  1
  O  O114  1  0.11374950  0.31668450  0.72144700  1
  O  O115  1  0.50000000  0.37110600  0.50000000  1
  O  O116  1  0.61592800  0.18302800  0.50726100  1
  O  O117  1  0.68670200  0.38753300  0.79553300  1
  O  O118  1  0.11592800  0.31697200  0.50726100  1
  O  O119  1  0.39146300  0.88728700  0.07483200  1
  O  O120  1  0.49970400  0.00000000  0.36938900  1
  O  O121  1  0.68670200  0.61246700  0.79553300  1
  O  O122  1  0.68589300  0.38916000  0.57248300  1
  O  O123  1  0.61276750  0.88901850  0.29868400  1
  O  O124  1  0.39146300  0.11271300  0.07483200  1
  O  O125  1  0.87271900  0.50000000  0.87336400  1
  O  O126  1  0.68589300  0.61084000  0.57248300  1
  O  O127  1  0.61276750  0.11098150  0.29868400  1
