# generated using pymatgen
data_LaH3(CO2)3
_symmetry_space_group_name_H-M   'P 1'
_cell_length_a   10.86057197
_cell_length_b   10.86057197
_cell_length_c   4.16814137
_cell_angle_alpha   90.00000000
_cell_angle_beta   90.00000000
_cell_angle_gamma   120.00000000
_symmetry_Int_Tables_number   1
_chemical_formula_structural   LaH3(CO2)3
_chemical_formula_sum   'La3 H9 C9 O18'
_cell_volume   425.77334346
_cell_formula_units_Z   3
loop_
 _symmetry_equiv_pos_site_id
 _symmetry_equiv_pos_as_xyz
  1  'x, y, z'
loop_
 _atom_site_type_symbol
 _atom_site_label
 _atom_site_symmetry_multiplicity
 _atom_site_fract_x
 _atom_site_fract_y
 _atom_site_fract_z
 _atom_site_occupancy
  La  La0  1  0.00000000  0.00000000  0.00243000  1
  La  La1  1  0.66666667  0.33333333  0.33576333  1
  La  La2  1  0.33333333  0.66666667  0.66909667  1
  H  H3  1  0.32411867  0.16205933  0.54498733  1
  H  H4  1  0.17127400  0.82872600  0.21165400  1
  H  H5  1  0.17127400  0.34254800  0.21165400  1
  H  H6  1  0.99078533  0.49539267  0.87832067  1
  H  H7  1  0.83794067  0.16205933  0.54498733  1
  H  H8  1  0.83794067  0.67588133  0.54498733  1
  H  H9  1  0.65745200  0.82872600  0.21165400  1
  H  H10  1  0.50460733  0.49539267  0.87832067  1
  H  H11  1  0.50460733  0.00921467  0.87832067  1
  C  C12  1  0.36192600  0.18096300  0.79627200  1
  C  C13  1  0.15237033  0.84762967  0.46293867  1
  C  C14  1  0.15237033  0.30474067  0.46293867  1
  C  C15  1  0.02859267  0.51429633  0.12960533  1
  C  C16  1  0.81903700  0.18096300  0.79627200  1
  C  C17  1  0.81903700  0.63807400  0.79627200  1
  C  C18  1  0.69525933  0.84762967  0.46293867  1
  C  C19  1  0.48570367  0.51429633  0.12960533  1
  C  C20  1  0.48570367  0.97140733  0.12960533  1
  O  O21  1  0.27080667  0.13540333  0.01960133  1
  O  O22  1  0.19793000  0.80207000  0.68626800  1
  O  O23  1  0.19793000  0.39586000  0.68626800  1
  O  O24  1  0.49669800  0.24834900  0.83966300  1
  O  O25  1  0.08498433  0.91501567  0.50632967  1
  O  O26  1  0.08498433  0.16996867  0.50632967  1
  O  O27  1  0.93747333  0.46873667  0.35293467  1
  O  O28  1  0.86459667  0.13540333  0.01960133  1
  O  O29  1  0.86459667  0.72919333  0.01960133  1
  O  O30  1  0.16336467  0.58168233  0.17299633  1
  O  O31  1  0.75165100  0.24834900  0.83966300  1
  O  O32  1  0.75165100  0.50330200  0.83966300  1
  O  O33  1  0.60414000  0.80207000  0.68626800  1
  O  O34  1  0.53126333  0.46873667  0.35293467  1
  O  O35  1  0.53126333  0.06252667  0.35293467  1
  O  O36  1  0.83003133  0.91501567  0.50632967  1
  O  O37  1  0.41831767  0.58168233  0.17299633  1
  O  O38  1  0.41831767  0.83663533  0.17299633  1
