# generated using pymatgen
data_Gd5AgS8
_symmetry_space_group_name_H-M   'P 1'
_cell_length_a   8.36576000
_cell_length_b   8.36576000
_cell_length_c   8.38513400
_cell_angle_alpha   90.00000000
_cell_angle_beta   90.00000000
_cell_angle_gamma   90.00000000
_symmetry_Int_Tables_number   1
_chemical_formula_structural   Gd5AgS8
_chemical_formula_sum   'Gd10 Ag2 S16'
_cell_volume   586.84148818
_cell_formula_units_Z   2
loop_
 _symmetry_equiv_pos_site_id
 _symmetry_equiv_pos_as_xyz
  1  'x, y, z'
loop_
 _atom_site_type_symbol
 _atom_site_label
 _atom_site_symmetry_multiplicity
 _atom_site_fract_x
 _atom_site_fract_y
 _atom_site_fract_z
 _atom_site_occupancy
  Gd  Gd0  1  0.36660600  0.25235200  0.38101500  1
  Gd  Gd1  1  0.74764800  0.36660600  0.61898500  1
  Gd  Gd2  1  0.13339400  0.24764800  0.88101500  1
  Gd  Gd3  1  0.75235200  0.13339400  0.11898500  1
  Gd  Gd4  1  0.00000000  0.00000000  0.50000000  1
  Gd  Gd5  1  0.86660600  0.75235200  0.88101500  1
  Gd  Gd6  1  0.24764800  0.86660600  0.11898500  1
  Gd  Gd7  1  0.63339400  0.74764800  0.38101500  1
  Gd  Gd8  1  0.25235200  0.63339400  0.61898500  1
  Gd  Gd9  1  0.50000000  0.50000000  0.00000000  1
  Ag  Ag10  1  0.00000000  0.50000000  0.25000000  1
  Ag  Ag11  1  0.50000000  0.00000000  0.75000000  1
  S  S12  1  0.07035800  0.17932200  0.19907300  1
  S  S13  1  0.31599300  0.92550800  0.43502100  1
  S  S14  1  0.17932200  0.92964200  0.80092700  1
  S  S15  1  0.32067800  0.57035800  0.30092700  1
  S  S16  1  0.18400700  0.57449200  0.93502100  1
  S  S17  1  0.07449200  0.31599300  0.56497900  1
  S  S18  1  0.42550800  0.18400700  0.06497900  1
  S  S19  1  0.42964200  0.32067800  0.69907300  1
  S  S20  1  0.57035800  0.67932200  0.69907300  1
  S  S21  1  0.81599300  0.42550800  0.93502100  1
  S  S22  1  0.67932200  0.42964200  0.30092700  1
  S  S23  1  0.82067800  0.07035800  0.80092700  1
  S  S24  1  0.68400700  0.07449200  0.43502100  1
  S  S25  1  0.57449200  0.81599300  0.06497900  1
  S  S26  1  0.92550800  0.68400700  0.56497900  1
  S  S27  1  0.92964200  0.82067800  0.19907300  1
