# generated using pymatgen
data_KPF6
_symmetry_space_group_name_H-M   'P 1'
_cell_length_a   5.45377026
_cell_length_b   5.45377026
_cell_length_c   14.23906485
_cell_angle_alpha   90.00000000
_cell_angle_beta   90.00000000
_cell_angle_gamma   120.00000000
_symmetry_Int_Tables_number   1
_chemical_formula_structural   KPF6
_chemical_formula_sum   'K3 P3 F18'
_cell_volume   366.78011127
_cell_formula_units_Z   3
loop_
 _symmetry_equiv_pos_site_id
 _symmetry_equiv_pos_as_xyz
  1  'x, y, z'
loop_
 _atom_site_type_symbol
 _atom_site_label
 _atom_site_symmetry_multiplicity
 _atom_site_fract_x
 _atom_site_fract_y
 _atom_site_fract_z
 _atom_site_occupancy
  K  K0  1  0.33333333  0.66666667  0.16666667  1
  K  K1  1  1.00000000  1.00000000  0.50000000  1
  K  K2  1  0.66666667  0.33333333  0.83333333  1
  P  P3  1  0.00000000  0.00000000  0.00000000  1
  P  P4  1  0.66666667  0.33333333  0.33333333  1
  P  P5  1  0.33333333  0.66666667  0.66666667  1
  F  F6  1  0.28223200  0.14111600  0.06650700  1
  F  F7  1  0.85888400  0.71776800  0.06650700  1
  F  F8  1  0.85888400  0.14111600  0.06650700  1
  F  F9  1  0.80778267  0.19221733  0.26682633  1
  F  F10  1  0.80778267  0.61556533  0.26682633  1
  F  F11  1  0.38443467  0.19221733  0.26682633  1
  F  F12  1  0.94889867  0.47444933  0.39984033  1
  F  F13  1  0.52555067  0.05110133  0.39984033  1
  F  F14  1  0.52555067  0.47444933  0.39984033  1
  F  F15  1  0.47444933  0.52555067  0.60015967  1
  F  F16  1  0.47444933  0.94889867  0.60015967  1
  F  F17  1  0.05110133  0.52555067  0.60015967  1
  F  F18  1  0.61556533  0.80778267  0.73317367  1
  F  F19  1  0.19221733  0.38443467  0.73317367  1
  F  F20  1  0.19221733  0.80778267  0.73317367  1
  F  F21  1  0.14111600  0.85888400  0.93349300  1
  F  F22  1  0.14111600  0.28223200  0.93349300  1
  F  F23  1  0.71776800  0.85888400  0.93349300  1
