# generated using pymatgen
data_BaTi(SiO3)3
_symmetry_space_group_name_H-M   'P 1'
_cell_length_a   6.72417580
_cell_length_b   6.72417580
_cell_length_c   9.89997600
_cell_angle_alpha   90.00000000
_cell_angle_beta   90.00000000
_cell_angle_gamma   120.00000000
_symmetry_Int_Tables_number   1
_chemical_formula_structural   BaTi(SiO3)3
_chemical_formula_sum   'Ba2 Ti2 Si6 O18'
_cell_volume   387.65276998
_cell_formula_units_Z   2
loop_
 _symmetry_equiv_pos_site_id
 _symmetry_equiv_pos_as_xyz
  1  'x, y, z'
loop_
 _atom_site_type_symbol
 _atom_site_label
 _atom_site_symmetry_multiplicity
 _atom_site_fract_x
 _atom_site_fract_y
 _atom_site_fract_z
 _atom_site_occupancy
  Ba  Ba0  1  0.66666667  0.33333333  0.50000000  1
  Ba  Ba1  1  0.66666667  0.33333333  0.00000000  1
  Ti  Ti2  1  0.33333333  0.66666667  0.50000000  1
  Ti  Ti3  1  0.33333333  0.66666667  0.00000000  1
  Si  Si4  1  0.21784367  0.92911533  0.25000000  1
  Si  Si5  1  0.21784367  0.28872833  0.75000000  1
  Si  Si6  1  0.71127167  0.92911533  0.75000000  1
  Si  Si7  1  0.71127167  0.78215633  0.25000000  1
  Si  Si8  1  0.07088467  0.28872833  0.25000000  1
  Si  Si9  1  0.07088467  0.78215633  0.75000000  1
  O  O10  1  0.08823467  0.65844233  0.61308800  1
  O  O11  1  0.34155767  0.91176533  0.38691200  1
  O  O12  1  0.57020767  0.91176533  0.61308800  1
  O  O13  1  0.34155767  0.42979233  0.88691200  1
  O  O14  1  0.57020767  0.91176533  0.88691200  1
  O  O15  1  0.08823467  0.65844233  0.88691200  1
  O  O16  1  0.57020767  0.65844233  0.11308800  1
  O  O17  1  0.08823467  0.42979233  0.11308800  1
  O  O18  1  0.25443067  0.19278133  0.25000000  1
  O  O19  1  0.93835067  0.74556933  0.25000000  1
  O  O20  1  0.80721867  0.06164933  0.25000000  1
  O  O21  1  0.80721867  0.74556933  0.75000000  1
  O  O22  1  0.57020767  0.65844233  0.38691200  1
  O  O23  1  0.25443067  0.06164933  0.75000000  1
  O  O24  1  0.93835067  0.19278133  0.75000000  1
  O  O25  1  0.08823467  0.42979233  0.38691200  1
  O  O26  1  0.34155767  0.91176533  0.11308800  1
  O  O27  1  0.34155767  0.42979233  0.61308800  1
