# generated using pymatgen
data_Na3Ca(BO2)5
_symmetry_space_group_name_H-M   'P 1'
_cell_length_a   7.50599700
_cell_length_b   7.52815845
_cell_length_c   9.83868491
_cell_angle_alpha   81.31419669
_cell_angle_beta   109.92071717
_cell_angle_gamma   119.78490927
_symmetry_Int_Tables_number   1
_chemical_formula_structural   Na3Ca(BO2)5
_chemical_formula_sum   'Na6 Ca2 B10 O20'
_cell_volume   453.52124502
_cell_formula_units_Z   2
loop_
 _symmetry_equiv_pos_site_id
 _symmetry_equiv_pos_as_xyz
  1  'x, y, z'
loop_
 _atom_site_type_symbol
 _atom_site_label
 _atom_site_symmetry_multiplicity
 _atom_site_fract_x
 _atom_site_fract_y
 _atom_site_fract_z
 _atom_site_occupancy
  Na  Na0  1  0.76764500  0.77843400  0.45281100  1
  Na  Na1  1  0.73577500  0.46179800  0.75040800  1
  Na  Na2  1  0.23235500  0.22156600  0.54718900  1
  Na  Na3  1  0.19492200  0.02198900  0.17484100  1
  Na  Na4  1  0.80507800  0.97801100  0.82515900  1
  Na  Na5  1  0.26422500  0.53820200  0.24959200  1
  Ca  Ca6  1  0.74780400  0.52592600  0.11995800  1
  Ca  Ca7  1  0.25219600  0.47407400  0.88004200  1
  B  B8  1  0.26749100  0.85568100  0.71238100  1
  B  B9  1  0.11459500  0.81508900  0.91929500  1
  B  B10  1  0.55864600  0.28544200  0.39381200  1
  B  B11  1  0.88540500  0.18491100  0.08070500  1
  B  B12  1  0.61349900  0.84116300  0.13181000  1
  B  B13  1  0.38650100  0.15883700  0.86819000  1
  B  B14  1  0.44135400  0.71455800  0.60618800  1
  B  B15  1  0.12770300  0.75785600  0.44560400  1
  B  B16  1  0.73250900  0.14431900  0.28761900  1
  B  B17  1  0.87229700  0.24214400  0.55439600  1
  O  O18  1  0.98343000  0.70805100  0.99803600  1
  O  O19  1  0.01657000  0.29194900  0.00196400  1
  O  O20  1  0.40050000  0.07498200  0.75818600  1
  O  O21  1  0.59950000  0.92501800  0.24181400  1
  O  O22  1  0.98481100  0.74313400  0.31530600  1
  O  O23  1  0.86895000  0.26924700  0.19072500  1
  O  O24  1  0.75909400  0.97055400  0.05587500  1
  O  O25  1  0.60905500  0.68587200  0.62661800  1
  O  O26  1  0.41010100  0.76815700  0.72531300  1
  O  O27  1  0.49725600  0.63974900  0.09954500  1
  O  O28  1  0.13105000  0.73075300  0.80927500  1
  O  O29  1  0.28549500  0.69534500  0.46863300  1
  O  O30  1  0.12702100  0.84176500  0.56346800  1
  O  O31  1  0.39094500  0.31412800  0.37338200  1
  O  O32  1  0.24090600  0.02944600  0.94412500  1
  O  O33  1  0.01518900  0.25686600  0.68469400  1
  O  O34  1  0.58989900  0.23184300  0.27468700  1
  O  O35  1  0.87297900  0.15823500  0.43653200  1
  O  O36  1  0.50274400  0.36025100  0.90045500  1
  O  O37  1  0.71450500  0.30465500  0.53136700  1
