# generated using pymatgen
data_TlPF6
_symmetry_space_group_name_H-M   'P 1'
_cell_length_a   5.61853793
_cell_length_b   5.61853793
_cell_length_c   14.38903189
_cell_angle_alpha   90.00000000
_cell_angle_beta   90.00000000
_cell_angle_gamma   120.00000000
_symmetry_Int_Tables_number   1
_chemical_formula_structural   TlPF6
_chemical_formula_sum   'Tl3 P3 F18'
_cell_volume   393.37688869
_cell_formula_units_Z   3
loop_
 _symmetry_equiv_pos_site_id
 _symmetry_equiv_pos_as_xyz
  1  'x, y, z'
loop_
 _atom_site_type_symbol
 _atom_site_label
 _atom_site_symmetry_multiplicity
 _atom_site_fract_x
 _atom_site_fract_y
 _atom_site_fract_z
 _atom_site_occupancy
  Tl  Tl0  1  0.33333333  0.66666667  0.16666667  1
  Tl  Tl1  1  1.00000000  1.00000000  0.50000000  1
  Tl  Tl2  1  0.66666667  0.33333333  0.83333333  1
  P  P3  1  0.00000000  0.00000000  0.00000000  1
  P  P4  1  0.66666667  0.33333333  0.33333333  1
  P  P5  1  0.33333333  0.66666667  0.66666667  1
  F  F6  1  0.39133133  0.19566567  0.26743067  1
  F  F7  1  0.80433433  0.19566567  0.26743067  1
  F  F8  1  0.80433433  0.60866867  0.26743067  1
  F  F9  1  0.86233233  0.72466467  0.06590267  1
  F  F10  1  0.86233233  0.13766767  0.06590267  1
  F  F11  1  0.27533533  0.13766767  0.06590267  1
  F  F12  1  0.05799800  0.52899900  0.60076400  1
  F  F13  1  0.47100100  0.52899900  0.60076400  1
  F  F14  1  0.47100100  0.94200200  0.60076400  1
  F  F15  1  0.52899900  0.05799800  0.39923600  1
  F  F16  1  0.52899900  0.47100100  0.39923600  1
  F  F17  1  0.94200200  0.47100100  0.39923600  1
  F  F18  1  0.72466467  0.86233233  0.93409733  1
  F  F19  1  0.13766767  0.86233233  0.93409733  1
  F  F20  1  0.13766767  0.27533533  0.93409733  1
  F  F21  1  0.19566567  0.39133133  0.73256933  1
  F  F22  1  0.19566567  0.80433433  0.73256933  1
  F  F23  1  0.60866867  0.80433433  0.73256933  1
