# generated using pymatgen
data_NaTaO3
_symmetry_space_group_name_H-M   'P 1'
_cell_length_a   7.44413581
_cell_length_b   7.44500799
_cell_length_c   12.67807022
_cell_angle_alpha   105.73839283
_cell_angle_beta   90.74533088
_cell_angle_gamma   118.86891634
_symmetry_Int_Tables_number   1
_chemical_formula_structural   NaTaO3
_chemical_formula_sum   'Na8 Ta8 O24'
_cell_volume   583.54911575
_cell_formula_units_Z   8
loop_
 _symmetry_equiv_pos_site_id
 _symmetry_equiv_pos_as_xyz
  1  'x, y, z'
loop_
 _atom_site_type_symbol
 _atom_site_label
 _atom_site_symmetry_multiplicity
 _atom_site_fract_x
 _atom_site_fract_y
 _atom_site_fract_z
 _atom_site_occupancy
  Na  Na0  1  0.96070647  0.48836955  0.52336835  1
  Na  Na1  1  0.96888290  0.21929459  0.77217305  1
  Na  Na2  1  0.98635097  0.76658751  0.76290009  1
  Na  Na3  1  0.52435667  0.77483741  0.74581305  1
  Na  Na4  1  0.03917372  0.80245854  0.22734695  1
  Na  Na5  1  0.02395890  0.02456453  0.48614427  1
  Na  Na6  1  0.49725439  0.24037072  0.24711123  1
  Na  Na7  1  0.98225107  0.46664139  0.02587037  1
  Ta  Ta8  1  0.99528274  0.99439907  0.00137565  1
  Ta  Ta9  1  0.48788913  0.24787443  0.75305777  1
  Ta  Ta10  1  0.50650171  0.50416382  0.99453068  1
  Ta  Ta11  1  0.44600843  0.97084252  0.51240538  1
  Ta  Ta12  1  0.49656322  0.74575765  0.25316109  1
  Ta  Ta13  1  0.00018977  0.29743211  0.30020582  1
  Ta  Ta14  1  0.50954081  0.00363835  0.99607789  1
  Ta  Ta15  1  0.43956367  0.46919438  0.51456429  1
  O  O16  1  0.82650508  0.10549582  0.96145053  1
  O  O17  1  0.59155751  0.44919186  0.61367598  1
  O  O18  1  0.83149913  0.72599533  0.95662984  1
  O  O19  1  0.51615400  0.74968806  0.54750401  1
  O  O20  1  0.59791416  0.49570690  0.82060314  1
  O  O21  1  0.80892741  0.89059201  0.15417791  1
  O  O22  1  0.48673866  0.04977000  0.65351505  1
  O  O23  1  0.45918379  0.73456576  0.94882336  1
  O  O24  1  0.43936043  0.90733697  0.15154844  1
  O  O25  1  0.79638955  0.18740540  0.44509864  1
  O  O26  1  0.60763153  0.12665182  0.82641970  1
  O  O27  1  0.13965676  0.80670373  0.57158721  1
  O  O28  1  0.10814421  0.11436728  0.29095633  1
  O  O29  1  0.57704553  0.28781602  0.02096324  1
  O  O30  1  0.49968454  0.92910598  0.35451198  1
  O  O31  1  0.14107362  0.33967179  0.58632498  1
  O  O32  1  0.18455725  0.10861621  0.82012956  1
  O  O33  1  0.43661207  0.53264237  0.14866594  1
  O  O34  1  0.42809279  0.21670630  0.46697340  1
  O  O35  1  0.55048960  0.58734712  0.35506781  1
  O  O36  1  0.88078376  0.35694355  0.20578186  1
  O  O37  1  0.20970457  0.28505691  0.00774480  1
  O  O38  1  0.20092948  0.91012125  0.01833930  1
  O  O39  1  0.17289203  0.56707502  0.33240106  1
