# generated using pymatgen
data_Na3PH24SO15
_symmetry_space_group_name_H-M   'P 1'
_cell_length_a   9.33710372
_cell_length_b   9.33710372
_cell_length_c   38.37310721
_cell_angle_alpha   90.00000000
_cell_angle_beta   90.00000000
_cell_angle_gamma   120.00000000
_symmetry_Int_Tables_number   1
_chemical_formula_structural   Na3PH24SO15
_chemical_formula_sum   'Na18 P6 H144 S6 O90'
_cell_volume   2897.22327123
_cell_formula_units_Z   6
loop_
 _symmetry_equiv_pos_site_id
 _symmetry_equiv_pos_as_xyz
  1  'x, y, z'
loop_
 _atom_site_type_symbol
 _atom_site_label
 _atom_site_symmetry_multiplicity
 _atom_site_fract_x
 _atom_site_fract_y
 _atom_site_fract_z
 _atom_site_occupancy
  Na  Na0  1  0.00000000  0.00000000  0.23460800  1
  Na  Na1  1  0.33333333  0.66666667  0.04311667  1
  Na  Na2  1  0.33333333  0.66666667  0.29021667  1
  Na  Na3  1  0.66666667  0.33333333  0.09872533  1
  Na  Na4  1  0.66666667  0.33333333  0.18151633  1
  Na  Na5  1  0.00000000  0.00000000  0.15181700  1
  Na  Na6  1  0.66666667  0.33333333  0.56794133  1
  Na  Na7  1  0.00000000  0.00000000  0.37645000  1
  Na  Na8  1  1.00000000  0.00000000  0.62355000  1
  Na  Na9  1  0.33333333  0.66666667  0.43205867  1
  Na  Na10  1  0.33333333  0.66666667  0.51484967  1
  Na  Na11  1  0.66666667  0.33333333  0.48515033  1
  Na  Na12  1  0.33333333  0.66666667  0.90127467  1
  Na  Na13  1  0.66666667  0.33333333  0.70978333  1
  Na  Na14  1  0.66666667  0.33333333  0.95688333  1
  Na  Na15  1  0.00000000  0.00000000  0.76539200  1
  Na  Na16  1  0.00000000  0.00000000  0.84818300  1
  Na  Na17  1  0.33333333  0.66666667  0.81848367  1
  P  P18  1  0.33333333  0.66666667  0.19383067  1
  P  P19  1  0.33333333  0.66666667  0.13950267  1
  P  P20  1  0.00000000  0.00000000  0.52716400  1
  P  P21  1  1.00000000  0.00000000  0.47283600  1
  P  P22  1  0.66666667  0.33333333  0.86049733  1
  P  P23  1  0.66666667  0.33333333  0.80616933  1
  H  H24  1  0.06523533  0.74638667  0.19584767  1
  H  H25  1  0.25361333  0.31884867  0.19584767  1
  H  H26  1  0.10661400  0.69622200  0.25382100  1
  H  H27  1  0.68115133  0.93476467  0.19584767  1
  H  H28  1  0.94694733  0.48415067  0.29051667  1
  H  H29  1  0.30377800  0.41039200  0.25382100  1
  H  H30  1  0.18359000  0.30821800  0.28451200  1
  H  H31  1  0.58960800  0.89338600  0.25382100  1
  H  H32  1  0.12462800  0.81641000  0.28451200  1
  H  H33  1  0.51584933  0.46279667  0.29051667  1
  H  H34  1  0.53720333  0.05305267  0.29051667  1
  H  H35  1  0.15081733  0.28028067  0.04281667  1
  H  H36  1  0.69178200  0.87537200  0.28451200  1
  H  H37  1  0.28487000  0.03224500  0.03937300  1
  H  H38  1  0.54203867  0.02511533  0.04882133  1
  H  H39  1  0.48307667  0.45796133  0.04882133  1
  H  H40  1  0.36288867  0.43994733  0.07951233  1
  H  H41  1  0.74737500  0.71513000  0.03937300  1
  H  H42  1  0.71971933  0.87053667  0.04281667  1
  H  H43  1  0.19636367  0.98730533  0.09051533  1
  H  H44  1  0.96775500  0.25262500  0.03937300  1
  H  H45  1  0.56005267  0.92294133  0.07951233  1
  H  H46  1  0.97488467  0.51692333  0.04882133  1
  H  H47  1  0.25720300  0.92641900  0.12319300  1
  H  H48  1  0.12946333  0.84918267  0.04281667  1
  H  H49  1  0.36031367  0.21109833  0.12866633  1
  H  H50  1  0.79094167  0.80363633  0.09051533  1
  H  H51  1  0.41305333  0.39856867  0.13748567  1
  H  H52  1  0.07705867  0.63711133  0.07951233  1
  H  H53  1  0.66921600  0.74279700  0.12319300  1
  H  H54  1  0.60143133  0.01448467  0.13748567  1
  H  H55  1  0.01269467  0.20905833  0.09051533  1
  H  H56  1  0.78890167  0.14921533  0.12866633  1
  H  H57  1  0.85078467  0.63968633  0.12866633  1
  H  H58  1  0.98551533  0.58694667  0.13748567  1
  H  H59  1  0.30635300  0.18411800  0.20466700  1
  H  H60  1  0.07358100  0.33078400  0.12319300  1
  H  H61  1  0.40946367  0.00254933  0.21014033  1
  H  H62  1  0.59308567  0.59053633  0.21014033  1
  H  H63  1  0.81588200  0.12223500  0.20466700  1
  H  H64  1  0.47030300  0.12427500  0.24281800  1
  H  H65  1  0.87776500  0.69364700  0.20466700  1
  H  H66  1  0.65397200  0.52969700  0.24281800  1
  H  H67  1  0.99745067  0.40691433  0.21014033  1
  H  H68  1  0.38179667  0.08070833  0.29396033  1
  H  H69  1  0.87572500  0.34602800  0.24281800  1
  H  H70  1  0.69891167  0.61820333  0.29396033  1
  H  H71  1  0.91929167  0.30108833  0.29396033  1
  H  H72  1  0.73190200  0.07972000  0.52918100  1
  H  H73  1  0.92028000  0.65218200  0.52918100  1
  H  H74  1  0.77328067  0.02955533  0.58715433  1
  H  H75  1  0.34781800  0.26809800  0.52918100  1
  H  H76  1  0.61361400  0.81748400  0.62385000  1
  H  H77  1  0.97044467  0.74372533  0.58715433  1
  H  H78  1  0.85025667  0.64155133  0.61784533  1
  H  H79  1  0.25627467  0.22671933  0.58715433  1
  H  H80  1  0.79129467  0.14974333  0.61784533  1
  H  H81  1  0.18251600  0.79613000  0.62385000  1
  H  H82  1  0.20387000  0.38638600  0.62385000  1
  H  H83  1  0.81748400  0.61361400  0.37615000  1
  H  H84  1  0.35844867  0.20870533  0.61784533  1
  H  H85  1  0.95153667  0.36557833  0.37270633  1
  H  H86  1  0.20870533  0.35844867  0.38215467  1
  H  H87  1  0.14974333  0.79129467  0.38215467  1
  H  H88  1  0.02955533  0.77328067  0.41284567  1
  H  H89  1  0.41404167  0.04846333  0.37270633  1
  H  H90  1  0.38638600  0.20387000  0.37615000  1
  H  H91  1  0.86303033  0.32063867  0.42384867  1
  H  H92  1  0.63442167  0.58595833  0.37270633  1
  H  H93  1  0.22671933  0.25627467  0.41284567  1
  H  H94  1  0.64155133  0.85025667  0.38215467  1
  H  H95  1  0.92386967  0.25975233  0.45652633  1
  H  H96  1  0.79613000  0.18251600  0.37615000  1
  H  H97  1  0.02698033  0.54443167  0.46199967  1
  H  H98  1  0.45760833  0.13696967  0.42384867  1
  H  H99  1  0.07972000  0.73190200  0.47081900  1
  H  H100  1  0.74372533  0.97044467  0.41284567  1
  H  H101  1  0.33588267  0.07613033  0.45652633  1
  H  H102  1  0.26809800  0.34781800  0.47081900  1
  H  H103  1  0.67936133  0.54239167  0.42384867  1
  H  H104  1  0.45556833  0.48254867  0.46199967  1
  H  H105  1  0.51745133  0.97301967  0.46199967  1
  H  H106  1  0.65218200  0.92028000  0.47081900  1
  H  H107  1  0.97301967  0.51745133  0.53800033  1
  H  H108  1  0.74024767  0.66411733  0.45652633  1
  H  H109  1  0.07613033  0.33588267  0.54347367  1
  H  H110  1  0.25975233  0.92386967  0.54347367  1
  H  H111  1  0.48254867  0.45556833  0.53800033  1
  H  H112  1  0.13696967  0.45760833  0.57615133  1
  H  H113  1  0.54443167  0.02698033  0.53800033  1
  H  H114  1  0.32063867  0.86303033  0.57615133  1
  H  H115  1  0.66411733  0.74024767  0.54347367  1
  H  H116  1  0.04846333  0.41404167  0.62729367  1
  H  H117  1  0.54239167  0.67936133  0.57615133  1
  H  H118  1  0.36557833  0.95153667  0.62729367  1
  H  H119  1  0.58595833  0.63442167  0.62729367  1
  H  H120  1  0.39856867  0.41305333  0.86251433  1
  H  H121  1  0.58694667  0.98551533  0.86251433  1
  H  H122  1  0.43994733  0.36288867  0.92048767  1
  H  H123  1  0.01448467  0.60143133  0.86251433  1
  H  H124  1  0.28028067  0.15081733  0.95718333  1
  H  H125  1  0.63711133  0.07705867  0.92048767  1
  H  H126  1  0.51692333  0.97488467  0.95117867  1
  H  H127  1  0.92294133  0.56005267  0.92048767  1
  H  H128  1  0.45796133  0.48307667  0.95117867  1
  H  H129  1  0.84918267  0.12946333  0.95718333  1
  H  H130  1  0.87053667  0.71971933  0.95718333  1
  H  H131  1  0.48415067  0.94694733  0.70948333  1
  H  H132  1  0.02511533  0.54203867  0.95117867  1
  H  H133  1  0.61820333  0.69891167  0.70603967  1
  H  H134  1  0.87537200  0.69178200  0.71548800  1
  H  H135  1  0.81641000  0.12462800  0.71548800  1
  H  H136  1  0.69622200  0.10661400  0.74617900  1
  H  H137  1  0.08070833  0.38179667  0.70603967  1
  H  H138  1  0.05305267  0.53720333  0.70948333  1
  H  H139  1  0.52969700  0.65397200  0.75718200  1
  H  H140  1  0.30108833  0.91929167  0.70603967  1
  H  H141  1  0.89338600  0.58960800  0.74617900  1
  H  H142  1  0.30821800  0.18359000  0.71548800  1
  H  H143  1  0.59053633  0.59308567  0.78985967  1
  H  H144  1  0.46279667  0.51584933  0.70948333  1
  H  H145  1  0.69364700  0.87776500  0.79533300  1
  H  H146  1  0.12427500  0.47030300  0.75718200  1
  H  H147  1  0.74638667  0.06523533  0.80415233  1
  H  H148  1  0.41039200  0.30377800  0.74617900  1
  H  H149  1  0.00254933  0.40946367  0.78985967  1
  H  H150  1  0.93476467  0.68115133  0.80415233  1
  H  H151  1  0.34602800  0.87572500  0.75718200  1
  H  H152  1  0.12223500  0.81588200  0.79533300  1
  H  H153  1  0.18411800  0.30635300  0.79533300  1
  H  H154  1  0.31884867  0.25361333  0.80415233  1
  H  H155  1  0.63968633  0.85078467  0.87133367  1
  H  H156  1  0.40691433  0.99745067  0.78985967  1
  H  H157  1  0.74279700  0.66921600  0.87680700  1
  H  H158  1  0.92641900  0.25720300  0.87680700  1
  H  H159  1  0.14921533  0.78890167  0.87133367  1
  H  H160  1  0.80363633  0.79094167  0.90948467  1
  H  H161  1  0.21109833  0.36031367  0.87133367  1
  H  H162  1  0.98730533  0.19636367  0.90948467  1
  H  H163  1  0.33078400  0.07358100  0.87680700  1
  H  H164  1  0.71513000  0.74737500  0.96062700  1
  H  H165  1  0.20905833  0.01269467  0.90948467  1
  H  H166  1  0.03224500  0.28487000  0.96062700  1
  H  H167  1  0.25262500  0.96775500  0.96062700  1
  S  S168  1  0.00000000  0.00000000  0.30628100  1
  S  S169  1  0.66666667  0.33333333  0.02705233  1
  S  S170  1  0.66666667  0.33333333  0.63961433  1
  S  S171  1  0.33333333  0.66666667  0.36038567  1
  S  S172  1  0.33333333  0.66666667  0.97294767  1
  S  S173  1  0.00000000  0.00000000  0.69371900  1
  O  O174  1  0.11994033  0.70743267  0.27897867  1
  O  O175  1  0.00575333  0.15313667  0.28967267  1
  O  O176  1  0.14738333  0.99424667  0.28967267  1
  O  O177  1  0.29256733  0.41250767  0.27897867  1
  O  O178  1  0.58749233  0.88005967  0.27897867  1
  O  O179  1  0.84686333  0.85261667  0.28967267  1
  O  O180  1  0.37409933  0.45327367  0.05435467  1
  O  O181  1  0.51928333  0.18019667  0.04366067  1
  O  O182  1  0.66091333  0.48071667  0.04366067  1
  O  O183  1  0.54672633  0.92082567  0.05435467  1
  O  O184  1  0.81980333  0.33908667  0.04366067  1
  O  O185  1  0.21560800  0.00097900  0.11707600  1
  O  O186  1  0.07917433  0.62590067  0.05435467  1
  O  O187  1  0.45611500  0.32291700  0.13423000  1
  O  O188  1  0.78537100  0.78439200  0.11707600  1
  O  O189  1  0.67708300  0.13319800  0.13423000  1
  O  O190  1  0.86680200  0.54388500  0.13423000  1
  O  O191  1  0.99902100  0.21462900  0.11707600  1
  O  O192  1  0.21055167  0.20013533  0.19910333  1
  O  O193  1  0.45105867  0.11870433  0.21625733  1
  O  O194  1  0.66764567  0.54894133  0.21625733  1
  O  O195  1  0.79986467  0.01041633  0.19910333  1
  O  O196  1  0.98958367  0.78944833  0.19910333  1
  O  O197  1  0.88129567  0.33235433  0.21625733  1
  O  O198  1  0.49219933  0.12430767  0.28368167  1
  O  O199  1  0.63210833  0.50780067  0.28368167  1
  O  O200  1  0.87569233  0.36789167  0.28368167  1
  O  O201  1  0.79097433  0.82553267  0.04965167  1
  O  O202  1  0.03455833  0.20902567  0.04965167  1
  O  O203  1  0.17446733  0.96544167  0.04965167  1
  O  O204  1  0.78660700  0.04076600  0.61231200  1
  O  O205  1  0.67242000  0.48647000  0.62300600  1
  O  O206  1  0.81405000  0.32758000  0.62300600  1
  O  O207  1  0.95923400  0.74584100  0.61231200  1
  O  O208  1  0.25415900  0.21339300  0.61231200  1
  O  O209  1  0.51353000  0.18595000  0.62300600  1
  O  O210  1  0.04076600  0.78660700  0.38768800  1
  O  O211  1  0.18595000  0.51353000  0.37699400  1
  O  O212  1  0.32758000  0.81405000  0.37699400  1
  O  O213  1  0.21339300  0.25415900  0.38768800  1
  O  O214  1  0.48647000  0.67242000  0.37699400  1
  O  O215  1  0.88227467  0.33431233  0.45040933  1
  O  O216  1  0.74584100  0.95923400  0.38768800  1
  O  O217  1  0.12278167  0.65625033  0.46756333  1
  O  O218  1  0.45203767  0.11772533  0.45040933  1
  O  O219  1  0.34374967  0.46653133  0.46756333  1
  O  O220  1  0.53346867  0.87721833  0.46756333  1
  O  O221  1  0.66568767  0.54796233  0.45040933  1
  O  O222  1  0.87721833  0.53346867  0.53243667  1
  O  O223  1  0.11772533  0.45203767  0.54959067  1
  O  O224  1  0.33431233  0.88227467  0.54959067  1
  O  O225  1  0.46653133  0.34374967  0.53243667  1
  O  O226  1  0.65625033  0.12278167  0.53243667  1
  O  O227  1  0.54796233  0.66568767  0.54959067  1
  O  O228  1  0.15886600  0.45764100  0.61701500  1
  O  O229  1  0.29877500  0.84113400  0.61701500  1
  O  O230  1  0.54235900  0.70122500  0.61701500  1
  O  O231  1  0.45764100  0.15886600  0.38298500  1
  O  O232  1  0.70122500  0.54235900  0.38298500  1
  O  O233  1  0.84113400  0.29877500  0.38298500  1
  O  O234  1  0.45327367  0.37409933  0.94564533  1
  O  O235  1  0.33908667  0.81980333  0.95633933  1
  O  O236  1  0.48071667  0.66091333  0.95633933  1
  O  O237  1  0.62590067  0.07917433  0.94564533  1
  O  O238  1  0.92082567  0.54672633  0.94564533  1
  O  O239  1  0.18019667  0.51928333  0.95633933  1
  O  O240  1  0.70743267  0.11994033  0.72102133  1
  O  O241  1  0.85261667  0.84686333  0.71032733  1
  O  O242  1  0.99424667  0.14738333  0.71032733  1
  O  O243  1  0.88005967  0.58749233  0.72102133  1
  O  O244  1  0.15313667  0.00575333  0.71032733  1
  O  O245  1  0.54894133  0.66764567  0.78374267  1
  O  O246  1  0.41250767  0.29256733  0.72102133  1
  O  O247  1  0.78944833  0.98958367  0.80089667  1
  O  O248  1  0.11870433  0.45105867  0.78374267  1
  O  O249  1  0.01041633  0.79986467  0.80089667  1
  O  O250  1  0.20013533  0.21055167  0.80089667  1
  O  O251  1  0.33235433  0.88129567  0.78374267  1
  O  O252  1  0.54388500  0.86680200  0.86577000  1
  O  O253  1  0.78439200  0.78537100  0.88292400  1
  O  O254  1  0.00097900  0.21560800  0.88292400  1
  O  O255  1  0.13319800  0.67708300  0.86577000  1
  O  O256  1  0.32291700  0.45611500  0.86577000  1
  O  O257  1  0.21462900  0.99902100  0.88292400  1
  O  O258  1  0.82553267  0.79097433  0.95034833  1
  O  O259  1  0.96544167  0.17446733  0.95034833  1
  O  O260  1  0.20902567  0.03455833  0.95034833  1
  O  O261  1  0.12430767  0.49219933  0.71631833  1
  O  O262  1  0.36789167  0.87569233  0.71631833  1
  O  O263  1  0.50780067  0.63210833  0.71631833  1
