# generated using pymatgen
data_Sr(H8O5)2
_symmetry_space_group_name_H-M   'P 1'
_cell_length_a   6.13050100
_cell_length_b   6.40791600
_cell_length_c   11.55117335
_cell_angle_alpha   92.06798924
_cell_angle_beta   90.33977857
_cell_angle_gamma   89.99871244
_symmetry_Int_Tables_number   1
_chemical_formula_structural   Sr(H8O5)2
_chemical_formula_sum   'Sr2 H32 O20'
_cell_volume   453.46971808
_cell_formula_units_Z   2
loop_
 _symmetry_equiv_pos_site_id
 _symmetry_equiv_pos_as_xyz
  1  'x, y, z'
loop_
 _atom_site_type_symbol
 _atom_site_label
 _atom_site_symmetry_multiplicity
 _atom_site_fract_x
 _atom_site_fract_y
 _atom_site_fract_z
 _atom_site_occupancy
  Sr  Sr0  1  0.99568300  0.99765700  0.50174600  1
  Sr  Sr1  1  0.00475500  0.99892100  0.99856800  1
  H  H2  1  0.54070900  0.96169900  0.62901300  1
  H  H3  1  0.61171300  0.72827900  0.60146200  1
  H  H4  1  0.26991300  0.19100300  0.70785800  1
  H  H5  1  0.38531400  0.28047900  0.59464900  1
  H  H6  1  0.71613900  0.39098000  0.60018000  1
  H  H7  1  0.96059100  0.44695900  0.63124000  1
  H  H8  1  0.21017700  0.74381000  0.70592000  1
  H  H9  1  0.27621900  0.60940300  0.59303700  1
  H  H10  1  0.70591300  0.11860100  0.20945600  1
  H  H11  1  0.60925100  0.26780400  0.11061100  1
  H  H12  1  0.44440500  0.95806600  0.12178600  1
  H  H13  1  0.38610800  0.72001100  0.10640800  1
  H  H14  1  0.96793500  0.59846200  0.06599700  1
  H  H15  1  0.72646800  0.61113900  0.10662200  1
  H  H16  1  0.03502300  0.38753300  0.16665600  1
  H  H17  1  0.27474900  0.38713100  0.10801600  1
  H  H18  1  0.30019400  0.10025000  0.29456500  1
  H  H19  1  0.39734000  0.27052600  0.38976900  1
  H  H20  1  0.55895700  0.95010100  0.37664400  1
  H  H21  1  0.64336600  0.72092700  0.37582700  1
  H  H22  1  0.27728200  0.60775300  0.38395000  1
  H  H23  1  0.09842500  0.69675500  0.29296400  1
  H  H24  1  0.97553600  0.40098100  0.36097200  1
  H  H25  1  0.72818100  0.37401900  0.38679900  1
  H  H26  1  0.43658100  0.94894600  0.86900200  1
  H  H27  1  0.38314400  0.71455400  0.89488000  1
  H  H28  1  0.60553200  0.26946700  0.89166500  1
  H  H29  1  0.69246200  0.11012000  0.78992500  1
  H  H30  1  0.03316000  0.38382000  0.84304300  1
  H  H31  1  0.27560200  0.37653200  0.88961800  1
  H  H32  1  0.88438800  0.68139200  0.79377000  1
  H  H33  1  0.72429600  0.60503200  0.89415700  1
  O  O34  1  0.48743000  0.49327200  0.54988300  1
  O  O35  1  0.50189400  0.49124100  0.06622500  1
  O  O36  1  0.49636300  0.48515000  0.42029300  1
  O  O37  1  0.50085900  0.49124000  0.93612400  1
  O  O38  1  0.66928900  0.86763800  0.62994100  1
  O  O39  1  0.32543100  0.14759400  0.63037600  1
  O  O40  1  0.85593100  0.33049900  0.63214800  1
  O  O41  1  0.14645300  0.68551800  0.63292300  1
  O  O42  1  0.66851300  0.12352100  0.12660100  1
  O  O43  1  0.31899200  0.86042200  0.12625900  1
  O  O44  1  0.87779100  0.67172400  0.12408400  1
  O  O45  1  0.14654500  0.29710500  0.13139000  1
  O  O46  1  0.33528300  0.11943300  0.37721700  1
  O  O47  1  0.69301200  0.86540200  0.36379500  1
  O  O48  1  0.12300000  0.66535200  0.37461500  1
  O  O49  1  0.86251700  0.29202000  0.36145300  1
  O  O50  1  0.31600400  0.84567900  0.86403400  1
  O  O51  1  0.66548700  0.12287300  0.87361400  1
  O  O52  1  0.15249700  0.28560000  0.85651700  1
  O  O53  1  0.87535400  0.66305200  0.87747600  1
