# generated using pymatgen
data_Na4Zr2(SiO4)3
_symmetry_space_group_name_H-M   'P 1'
_cell_length_a   9.32627377
_cell_length_b   9.32627377
_cell_length_c   22.37860685
_cell_angle_alpha   90.00000000
_cell_angle_beta   90.00000000
_cell_angle_gamma   120.00000000
_symmetry_Int_Tables_number   1
_chemical_formula_structural   Na4Zr2(SiO4)3
_chemical_formula_sum   'Na24 Zr12 Si18 O72'
_cell_volume   1685.69887906
_cell_formula_units_Z   6
loop_
 _symmetry_equiv_pos_site_id
 _symmetry_equiv_pos_as_xyz
  1  'x, y, z'
loop_
 _atom_site_type_symbol
 _atom_site_label
 _atom_site_symmetry_multiplicity
 _atom_site_fract_x
 _atom_site_fract_y
 _atom_site_fract_z
 _atom_site_occupancy
  Na  Na0  1  0.00000000  0.00000000  0.00000000  1
  Na  Na1  1  0.29890967  0.33333333  0.08333333  1
  Na  Na2  1  0.03442367  0.70109033  0.08333333  1
  Na  Na3  1  0.66666667  0.96557633  0.08333333  1
  Na  Na4  1  0.00000000  0.36775700  0.25000000  1
  Na  Na5  1  0.63224300  0.63224300  0.25000000  1
  Na  Na6  1  0.33333333  0.66666667  0.16666667  1
  Na  Na7  1  0.36775700  0.00000000  0.25000000  1
  Na  Na8  1  0.66666667  0.33333333  0.33333333  1
  Na  Na9  1  0.96557633  0.66666667  0.41666667  1
  Na  Na10  1  0.70109033  0.03442367  0.41666667  1
  Na  Na11  1  0.33333333  0.29890967  0.41666667  1
  Na  Na12  1  0.66666667  0.70109033  0.58333333  1
  Na  Na13  1  0.29890967  0.96557633  0.58333333  1
  Na  Na14  1  0.00000000  0.00000000  0.50000000  1
  Na  Na15  1  0.03442367  0.33333333  0.58333333  1
  Na  Na16  1  0.33333333  0.66666667  0.66666667  1
  Na  Na17  1  0.63224300  0.00000000  0.75000000  1
  Na  Na18  1  0.36775700  0.36775700  0.75000000  1
  Na  Na19  1  0.00000000  0.63224300  0.75000000  1
  Na  Na20  1  0.33333333  0.03442367  0.91666667  1
  Na  Na21  1  0.96557633  0.29890967  0.91666667  1
  Na  Na22  1  0.66666667  0.33333333  0.83333333  1
  Na  Na23  1  0.70109033  0.66666667  0.91666667  1
  Zr  Zr24  1  0.33333333  0.66666667  0.02017867  1
  Zr  Zr25  1  0.33333333  0.66666667  0.52017867  1
  Zr  Zr26  1  0.33333333  0.66666667  0.31315467  1
  Zr  Zr27  1  0.33333333  0.66666667  0.81315467  1
  Zr  Zr28  1  0.00000000  0.00000000  0.35351200  1
  Zr  Zr29  1  0.00000000  0.00000000  0.85351200  1
  Zr  Zr30  1  0.00000000  0.00000000  0.64648800  1
  Zr  Zr31  1  1.00000000  0.00000000  0.14648800  1
  Zr  Zr32  1  0.66666667  0.33333333  0.68684533  1
  Zr  Zr33  1  0.66666667  0.33333333  0.18684533  1
  Zr  Zr34  1  0.66666667  0.33333333  0.97982133  1
  Zr  Zr35  1  0.66666667  0.33333333  0.47982133  1
  Si  Si36  1  0.70301300  0.00000000  0.25000000  1
  Si  Si37  1  0.66666667  0.63032033  0.08333333  1
  Si  Si38  1  0.00000000  0.70301300  0.25000000  1
  Si  Si39  1  0.96365367  0.33333333  0.08333333  1
  Si  Si40  1  0.36967967  0.03634633  0.08333333  1
  Si  Si41  1  0.29698700  0.29698700  0.25000000  1
  Si  Si42  1  0.36967967  0.33333333  0.58333333  1
  Si  Si43  1  0.33333333  0.96365367  0.41666667  1
  Si  Si44  1  0.66666667  0.03634633  0.58333333  1
  Si  Si45  1  0.63032033  0.66666667  0.41666667  1
  Si  Si46  1  0.03634633  0.36967967  0.41666667  1
  Si  Si47  1  0.96365367  0.63032033  0.58333333  1
  Si  Si48  1  0.03634633  0.66666667  0.91666667  1
  Si  Si49  1  0.00000000  0.29698700  0.75000000  1
  Si  Si50  1  0.33333333  0.36967967  0.91666667  1
  Si  Si51  1  0.29698700  0.00000000  0.75000000  1
  Si  Si52  1  0.70301300  0.70301300  0.75000000  1
  Si  Si53  1  0.63032033  0.96365367  0.91666667  1
  O  O54  1  0.34732800  0.86725200  0.35737500  1
  O  O55  1  0.13274800  0.48007600  0.35737500  1
  O  O56  1  0.51992400  0.65267200  0.35737500  1
  O  O57  1  0.65267200  0.51992400  0.14262500  1
  O  O58  1  0.48007600  0.13274800  0.14262500  1
  O  O59  1  0.86725200  0.34732800  0.14262500  1
  O  O60  1  0.31933867  0.46608133  0.97595833  1
  O  O61  1  0.53391867  0.85325733  0.97595833  1
  O  O62  1  0.14674267  0.68066133  0.97595833  1
  O  O63  1  0.01399467  0.81340933  0.19070833  1
  O  O64  1  0.18659067  0.20058533  0.19070833  1
  O  O65  1  0.79941467  0.98600533  0.19070833  1
  O  O66  1  0.16661767  0.68532933  0.25036633  1
  O  O67  1  0.31467067  0.48128833  0.25036633  1
  O  O68  1  0.51871167  0.83338233  0.25036633  1
  O  O69  1  0.83338233  0.51871167  0.24963367  1
  O  O70  1  0.48128833  0.31467067  0.24963367  1
  O  O71  1  0.68532933  0.16661767  0.24963367  1
  O  O72  1  0.98133733  0.16671567  0.08369967  1
  O  O73  1  0.18537833  0.01866267  0.08369967  1
  O  O74  1  0.83328433  0.81462167  0.08369967  1
  O  O75  1  0.14795500  0.49995100  0.08296700  1
  O  O76  1  0.35199600  0.85204500  0.08296700  1
  O  O77  1  0.50004900  0.64800400  0.08296700  1
  O  O78  1  0.01399467  0.20058533  0.69070833  1
  O  O79  1  0.79941467  0.81340933  0.69070833  1
  O  O80  1  0.18659067  0.98600533  0.69070833  1
  O  O81  1  0.31933867  0.85325733  0.47595833  1
  O  O82  1  0.14674267  0.46608133  0.47595833  1
  O  O83  1  0.53391867  0.68066133  0.47595833  1
  O  O84  1  0.98600533  0.79941467  0.30929167  1
  O  O85  1  0.20058533  0.18659067  0.30929167  1
  O  O86  1  0.81340933  0.01399467  0.30929167  1
  O  O87  1  0.68066133  0.14674267  0.52404167  1
  O  O88  1  0.85325733  0.53391867  0.52404167  1
  O  O89  1  0.46608133  0.31933867  0.52404167  1
  O  O90  1  0.83328433  0.01866267  0.58369967  1
  O  O91  1  0.98133733  0.81462167  0.58369967  1
  O  O92  1  0.18537833  0.16671567  0.58369967  1
  O  O93  1  0.50004900  0.85204500  0.58296700  1
  O  O94  1  0.14795500  0.64800400  0.58296700  1
  O  O95  1  0.35199600  0.49995100  0.58296700  1
  O  O96  1  0.64800400  0.50004900  0.41703300  1
  O  O97  1  0.85204500  0.35199600  0.41703300  1
  O  O98  1  0.49995100  0.14795500  0.41703300  1
  O  O99  1  0.81462167  0.83328433  0.41630033  1
  O  O100  1  0.01866267  0.18537833  0.41630033  1
  O  O101  1  0.16671567  0.98133733  0.41630033  1
  O  O102  1  0.68066133  0.53391867  0.02404167  1
  O  O103  1  0.46608133  0.14674267  0.02404167  1
  O  O104  1  0.85325733  0.31933867  0.02404167  1
  O  O105  1  0.98600533  0.18659067  0.80929167  1
  O  O106  1  0.81340933  0.79941467  0.80929167  1
  O  O107  1  0.20058533  0.01399467  0.80929167  1
  O  O108  1  0.65267200  0.13274800  0.64262500  1
  O  O109  1  0.86725200  0.51992400  0.64262500  1
  O  O110  1  0.48007600  0.34732800  0.64262500  1
  O  O111  1  0.34732800  0.48007600  0.85737500  1
  O  O112  1  0.51992400  0.86725200  0.85737500  1
  O  O113  1  0.13274800  0.65267200  0.85737500  1
  O  O114  1  0.49995100  0.35199600  0.91703300  1
  O  O115  1  0.64800400  0.14795500  0.91703300  1
  O  O116  1  0.85204500  0.50004900  0.91703300  1
  O  O117  1  0.16671567  0.18537833  0.91630033  1
  O  O118  1  0.81462167  0.98133733  0.91630033  1
  O  O119  1  0.01866267  0.83328433  0.91630033  1
  O  O120  1  0.31467067  0.83338233  0.75036633  1
  O  O121  1  0.51871167  0.68532933  0.75036633  1
  O  O122  1  0.16661767  0.48128833  0.75036633  1
  O  O123  1  0.48128833  0.16661767  0.74963367  1
  O  O124  1  0.68532933  0.51871167  0.74963367  1
  O  O125  1  0.83338233  0.31467067  0.74963367  1
