# generated using pymatgen
data_Ba2Ta6Te2O21
_symmetry_space_group_name_H-M   'P 1'
_cell_length_a   16.88397800
_cell_length_b   5.74668000
_cell_length_c   9.74284072
_cell_angle_alpha   90.00000000
_cell_angle_beta   96.80475574
_cell_angle_gamma   90.00000000
_symmetry_Int_Tables_number   1
_chemical_formula_structural   Ba2Ta6Te2O21
_chemical_formula_sum   'Ba4 Ta12 Te4 O42'
_cell_volume   938.65772264
_cell_formula_units_Z   2
loop_
 _symmetry_equiv_pos_site_id
 _symmetry_equiv_pos_as_xyz
  1  'x, y, z'
loop_
 _atom_site_type_symbol
 _atom_site_label
 _atom_site_symmetry_multiplicity
 _atom_site_fract_x
 _atom_site_fract_y
 _atom_site_fract_z
 _atom_site_occupancy
  Ba  Ba0  1  0.63766800  0.50000000  0.52813100  1
  Ba  Ba1  1  0.86233200  0.00000000  0.47186900  1
  Ba  Ba2  1  0.13766800  0.00000000  0.52813100  1
  Ba  Ba3  1  0.36233200  0.50000000  0.47186900  1
  Ta  Ta4  1  0.90065600  0.00000000  0.08153700  1
  Ta  Ta5  1  0.59934400  0.50000000  0.91846300  1
  Ta  Ta6  1  0.97908900  0.50000000  0.33566900  1
  Ta  Ta7  1  0.52091100  0.00000000  0.66433100  1
  Ta  Ta8  1  0.67601000  0.00000000  0.17247100  1
  Ta  Ta9  1  0.82399000  0.50000000  0.82752900  1
  Ta  Ta10  1  0.40065600  0.50000000  0.08153700  1
  Ta  Ta11  1  0.09934400  0.00000000  0.91846300  1
  Ta  Ta12  1  0.47908900  0.00000000  0.33566900  1
  Ta  Ta13  1  0.02091100  0.50000000  0.66433100  1
  Ta  Ta14  1  0.17601000  0.50000000  0.17247100  1
  Ta  Ta15  1  0.32399000  0.00000000  0.82752900  1
  Te  Te16  1  0.77420000  0.50000000  0.24656400  1
  Te  Te17  1  0.72580000  0.00000000  0.75343600  1
  Te  Te18  1  0.27420000  0.00000000  0.24656400  1
  Te  Te19  1  0.22580000  0.50000000  0.75343600  1
  O  O20  1  0.91858700  0.50000000  0.72247400  1
  O  O21  1  0.58141300  0.00000000  0.27752600  1
  O  O22  1  0.70955000  0.50000000  0.84924800  1
  O  O23  1  0.79045000  0.00000000  0.15075200  1
  O  O24  1  0.00000000  0.00000000  0.00000000  1
  O  O25  1  0.93440150  0.75888750  0.22047000  1
  O  O26  1  0.56559850  0.25888750  0.77953000  1
  O  O27  1  0.56559850  0.74111250  0.77953000  1
  O  O28  1  0.93440150  0.24111250  0.22047000  1
  O  O29  1  0.64501450  0.74897650  0.05283300  1
  O  O30  1  0.00000000  0.72054700  0.50000000  1
  O  O31  1  0.00000000  0.27945300  0.50000000  1
  O  O32  1  0.64227800  0.00000000  0.60385800  1
  O  O33  1  0.85772200  0.50000000  0.39614200  1
  O  O34  1  0.78267750  0.24075550  0.67020700  1
  O  O35  1  0.71732250  0.74075550  0.32979300  1
  O  O36  1  0.71732250  0.25924450  0.32979300  1
  O  O37  1  0.78267750  0.75924450  0.67020700  1
  O  O38  1  0.64501450  0.25102350  0.05283300  1
  O  O39  1  0.85498550  0.75102350  0.94716700  1
  O  O40  1  0.85498550  0.24897650  0.94716700  1
  O  O41  1  0.41858700  0.00000000  0.72247400  1
  O  O42  1  0.08141300  0.50000000  0.27752600  1
  O  O43  1  0.20955000  0.00000000  0.84924800  1
  O  O44  1  0.29045000  0.50000000  0.15075200  1
  O  O45  1  0.50000000  0.50000000  0.00000000  1
  O  O46  1  0.43440150  0.25888750  0.22047000  1
  O  O47  1  0.06559850  0.75888750  0.77953000  1
  O  O48  1  0.06559850  0.24111250  0.77953000  1
  O  O49  1  0.43440150  0.74111250  0.22047000  1
  O  O50  1  0.14501450  0.24897650  0.05283300  1
  O  O51  1  0.50000000  0.22054700  0.50000000  1
  O  O52  1  0.50000000  0.77945300  0.50000000  1
  O  O53  1  0.14227800  0.50000000  0.60385800  1
  O  O54  1  0.35772200  0.00000000  0.39614200  1
  O  O55  1  0.28267750  0.74075550  0.67020700  1
  O  O56  1  0.21732250  0.24075550  0.32979300  1
  O  O57  1  0.21732250  0.75924450  0.32979300  1
  O  O58  1  0.28267750  0.25924450  0.67020700  1
  O  O59  1  0.14501450  0.75102350  0.05283300  1
  O  O60  1  0.35498550  0.25102350  0.94716700  1
  O  O61  1  0.35498550  0.74897650  0.94716700  1
