# generated using pymatgen
data_As3Pb5ClO12
_symmetry_space_group_name_H-M   'P 1'
_cell_length_a   10.46292232
_cell_length_b   10.46292232
_cell_length_c   7.48190000
_cell_angle_alpha   90.00000000
_cell_angle_beta   90.00000000
_cell_angle_gamma   120.00000000
_symmetry_Int_Tables_number   1
_chemical_formula_structural   As3Pb5ClO12
_chemical_formula_sum   'As6 Pb10 Cl2 O24'
_cell_volume   709.33033539
_cell_formula_units_Z   2
loop_
 _symmetry_equiv_pos_site_id
 _symmetry_equiv_pos_as_xyz
  1  'x, y, z'
loop_
 _atom_site_type_symbol
 _atom_site_label
 _atom_site_symmetry_multiplicity
 _atom_site_fract_x
 _atom_site_fract_y
 _atom_site_fract_z
 _atom_site_occupancy
  As  As0  1  0.97492900  0.59451400  0.25000000  1
  As  As1  1  0.61958500  0.02507100  0.25000000  1
  As  As2  1  0.59451400  0.61958500  0.75000000  1
  As  As3  1  0.40548600  0.38041500  0.25000000  1
  As  As4  1  0.38041500  0.97492900  0.75000000  1
  As  As5  1  0.02507100  0.40548600  0.75000000  1
  Pb  Pb6  1  0.01037300  0.75696800  0.75000000  1
  Pb  Pb7  1  0.33333333  0.66666667  0.00370100  1
  Pb  Pb8  1  0.25340500  0.01037300  0.25000000  1
  Pb  Pb9  1  0.74659500  0.98962700  0.75000000  1
  Pb  Pb10  1  0.66666667  0.33333333  0.99629900  1
  Pb  Pb11  1  0.24303200  0.25340500  0.75000000  1
  Pb  Pb12  1  0.33333333  0.66666667  0.49629900  1
  Pb  Pb13  1  0.75696800  0.74659500  0.25000000  1
  Pb  Pb14  1  0.66666667  0.33333333  0.50370100  1
  Pb  Pb15  1  0.98962700  0.24303200  0.25000000  1
  Cl  Cl16  1  0.00000000  0.00000000  0.50000000  1
  Cl  Cl17  1  0.00000000  0.00000000  0.00000000  1
  O  O18  1  0.64379600  0.73512600  0.56694000  1
  O  O19  1  0.90867000  0.64379600  0.43306000  1
  O  O20  1  0.73512600  0.09133000  0.43306000  1
  O  O21  1  0.83552700  0.32853600  0.75000000  1
  O  O22  1  0.49300900  0.16447300  0.75000000  1
  O  O23  1  0.11513900  0.59801200  0.75000000  1
  O  O24  1  0.90867000  0.64379600  0.06694000  1
  O  O25  1  0.26487400  0.90867000  0.93306000  1
  O  O26  1  0.64379600  0.73512600  0.93306000  1
  O  O27  1  0.35620400  0.26487400  0.43306000  1
  O  O28  1  0.59801200  0.48287300  0.25000000  1
  O  O29  1  0.48287300  0.88486100  0.75000000  1
  O  O30  1  0.40198800  0.51712700  0.75000000  1
  O  O31  1  0.50699100  0.83552700  0.25000000  1
  O  O32  1  0.32853600  0.49300900  0.25000000  1
  O  O33  1  0.51712700  0.11513900  0.25000000  1
  O  O34  1  0.67146400  0.50699100  0.75000000  1
  O  O35  1  0.73512600  0.09133000  0.06694000  1
  O  O36  1  0.35620400  0.26487400  0.06694000  1
  O  O37  1  0.09133000  0.35620400  0.56694000  1
  O  O38  1  0.09133000  0.35620400  0.93306000  1
  O  O39  1  0.88486100  0.40198800  0.25000000  1
  O  O40  1  0.26487400  0.90867000  0.56694000  1
  O  O41  1  0.16447300  0.67146400  0.25000000  1
