# generated using pymatgen
data_SiO2
_symmetry_space_group_name_H-M   'P 1'
_cell_length_a   8.39526200
_cell_length_b   14.82844000
_cell_length_c   27.84312400
_cell_angle_alpha   90.00000000
_cell_angle_beta   90.00000000
_cell_angle_gamma   90.00000000
_symmetry_Int_Tables_number   1
_chemical_formula_structural   SiO2
_chemical_formula_sum   'Si64 O128'
_cell_volume   3466.15260813
_cell_formula_units_Z   64
loop_
 _symmetry_equiv_pos_site_id
 _symmetry_equiv_pos_as_xyz
  1  'x, y, z'
loop_
 _atom_site_type_symbol
 _atom_site_label
 _atom_site_symmetry_multiplicity
 _atom_site_fract_x
 _atom_site_fract_y
 _atom_site_fract_z
 _atom_site_occupancy
  Si  Si0  1  0.81410850  0.59538450  0.27596950  1
  Si  Si1  1  0.18589150  0.09538450  0.22403050  1
  Si  Si2  1  0.68589150  0.40461550  0.27596950  1
  Si  Si3  1  0.31410850  0.90461550  0.22403050  1
  Si  Si4  1  0.68589150  0.90461550  0.22403050  1
  Si  Si5  1  0.31410850  0.40461550  0.27596950  1
  Si  Si6  1  0.81410850  0.09538450  0.22403050  1
  Si  Si7  1  0.18589150  0.59538450  0.27596950  1
  Si  Si8  1  0.31337950  0.60061350  0.17169650  1
  Si  Si9  1  0.68662050  0.10061350  0.32830350  1
  Si  Si10  1  0.18662050  0.39938650  0.17169650  1
  Si  Si11  1  0.81337950  0.89938650  0.32830350  1
  Si  Si12  1  0.18662050  0.89938650  0.32830350  1
  Si  Si13  1  0.81337950  0.39938650  0.17169650  1
  Si  Si14  1  0.31337950  0.10061350  0.32830350  1
  Si  Si15  1  0.68662050  0.60061350  0.17169650  1
  Si  Si16  1  0.81518400  0.78310000  0.14207600  1
  Si  Si17  1  0.18481600  0.28310000  0.35792400  1
  Si  Si18  1  0.68481600  0.21690000  0.14207600  1
  Si  Si19  1  0.31518400  0.71690000  0.35792400  1
  Si  Si20  1  0.68481600  0.71690000  0.35792400  1
  Si  Si21  1  0.31518400  0.21690000  0.14207600  1
  Si  Si22  1  0.81518400  0.28310000  0.35792400  1
  Si  Si23  1  0.18481600  0.78310000  0.14207600  1
  Si  Si24  1  0.80754400  0.10043900  0.05462900  1
  Si  Si25  1  0.19245600  0.60043900  0.44537100  1
  Si  Si26  1  0.69245600  0.89956100  0.05462900  1
  Si  Si27  1  0.30754400  0.39956100  0.44537100  1
  Si  Si28  1  0.69245600  0.39956100  0.44537100  1
  Si  Si29  1  0.30754400  0.89956100  0.05462900  1
  Si  Si30  1  0.80754400  0.60043900  0.44537100  1
  Si  Si31  1  0.19245600  0.10043900  0.05462900  1
  Si  Si32  1  0.31410850  0.09538450  0.77596950  1
  Si  Si33  1  0.68589150  0.59538450  0.72403050  1
  Si  Si34  1  0.18589150  0.90461550  0.77596950  1
  Si  Si35  1  0.81410850  0.40461550  0.72403050  1
  Si  Si36  1  0.18589150  0.40461550  0.72403050  1
  Si  Si37  1  0.81410850  0.90461550  0.77596950  1
  Si  Si38  1  0.31410850  0.59538450  0.72403050  1
  Si  Si39  1  0.68589150  0.09538450  0.77596950  1
  Si  Si40  1  0.81337950  0.10061350  0.67169650  1
  Si  Si41  1  0.18662050  0.60061350  0.82830350  1
  Si  Si42  1  0.68662050  0.89938650  0.67169650  1
  Si  Si43  1  0.31337950  0.39938650  0.82830350  1
  Si  Si44  1  0.68662050  0.39938650  0.82830350  1
  Si  Si45  1  0.31337950  0.89938650  0.67169650  1
  Si  Si46  1  0.81337950  0.60061350  0.82830350  1
  Si  Si47  1  0.18662050  0.10061350  0.67169650  1
  Si  Si48  1  0.31518400  0.28310000  0.64207600  1
  Si  Si49  1  0.68481600  0.78310000  0.85792400  1
  Si  Si50  1  0.18481600  0.71690000  0.64207600  1
  Si  Si51  1  0.81518400  0.21690000  0.85792400  1
  Si  Si52  1  0.18481600  0.21690000  0.85792400  1
  Si  Si53  1  0.81518400  0.71690000  0.64207600  1
  Si  Si54  1  0.31518400  0.78310000  0.85792400  1
  Si  Si55  1  0.68481600  0.28310000  0.64207600  1
  Si  Si56  1  0.30754400  0.60043900  0.55462900  1
  Si  Si57  1  0.69245600  0.10043900  0.94537100  1
  Si  Si58  1  0.19245600  0.39956100  0.55462900  1
  Si  Si59  1  0.80754400  0.89956100  0.94537100  1
  Si  Si60  1  0.19245600  0.89956100  0.94537100  1
  Si  Si61  1  0.80754400  0.39956100  0.55462900  1
  Si  Si62  1  0.30754400  0.10043900  0.94537100  1
  Si  Si63  1  0.69245600  0.60043900  0.55462900  1
  O  O64  1  0.75000000  0.50000000  0.29805900  1
  O  O65  1  0.25000000  0.00000000  0.20194100  1
  O  O66  1  0.75000000  0.00000000  0.20194100  1
  O  O67  1  0.25000000  0.50000000  0.29805900  1
  O  O68  1  0.79963300  0.67285100  0.31667500  1
  O  O69  1  0.20036700  0.17285100  0.18332500  1
  O  O70  1  0.70036700  0.32714900  0.31667500  1
  O  O71  1  0.29963300  0.82714900  0.18332500  1
  O  O72  1  0.70036700  0.82714900  0.18332500  1
  O  O73  1  0.29963300  0.32714900  0.31667500  1
  O  O74  1  0.79963300  0.17285100  0.18332500  1
  O  O75  1  0.20036700  0.67285100  0.31667500  1
  O  O76  1  0.70816650  0.62157650  0.22913650  1
  O  O77  1  0.29183350  0.12157650  0.27086350  1
  O  O78  1  0.79183350  0.37842350  0.22913650  1
  O  O79  1  0.20816650  0.87842350  0.27086350  1
  O  O80  1  0.79183350  0.87842350  0.27086350  1
  O  O81  1  0.20816650  0.37842350  0.22913650  1
  O  O82  1  0.70816650  0.12157650  0.27086350  1
  O  O83  1  0.29183350  0.62157650  0.22913650  1
  O  O84  1  0.00000000  0.58487450  0.25979150  1
  O  O85  1  0.00000000  0.08487450  0.24020850  1
  O  O86  1  0.50000000  0.41512550  0.25979150  1
  O  O87  1  0.50000000  0.91512550  0.24020850  1
  O  O88  1  0.21224000  0.67447800  0.14104500  1
  O  O89  1  0.78776000  0.17447800  0.35895500  1
  O  O90  1  0.28776000  0.32552200  0.14104500  1
  O  O91  1  0.71224000  0.82552200  0.35895500  1
  O  O92  1  0.28776000  0.82552200  0.35895500  1
  O  O93  1  0.71224000  0.32552200  0.14104500  1
  O  O94  1  0.21224000  0.17447800  0.35895500  1
  O  O95  1  0.78776000  0.67447800  0.14104500  1
  O  O96  1  0.25000000  0.50000000  0.15891600  1
  O  O97  1  0.75000000  0.00000000  0.34108400  1
  O  O98  1  0.25000000  0.00000000  0.34108400  1
  O  O99  1  0.75000000  0.50000000  0.15891600  1
  O  O100  1  0.50000000  0.60904900  0.15738500  1
  O  O101  1  0.50000000  0.10904900  0.34261500  1
  O  O102  1  0.00000000  0.39095100  0.15738500  1
  O  O103  1  0.00000000  0.89095100  0.34261500  1
  O  O104  1  0.00000000  0.80508600  0.15539400  1
  O  O105  1  0.00000000  0.30508600  0.34460600  1
  O  O106  1  0.50000000  0.19491400  0.15539400  1
  O  O107  1  0.50000000  0.69491400  0.34460600  1
  O  O108  1  0.77208550  0.82503350  0.08985150  1
  O  O109  1  0.22791450  0.32503350  0.41014850  1
  O  O110  1  0.72791450  0.17496650  0.08985150  1
  O  O111  1  0.27208550  0.67496650  0.41014850  1
  O  O112  1  0.72791450  0.67496650  0.41014850  1
  O  O113  1  0.27208550  0.17496650  0.08985150  1
  O  O114  1  0.77208550  0.32503350  0.41014850  1
  O  O115  1  0.22791450  0.82503350  0.08985150  1
  O  O116  1  0.75000000  0.00000000  0.07100300  1
  O  O117  1  0.25000000  0.50000000  0.42899700  1
  O  O118  1  0.75000000  0.50000000  0.42899700  1
  O  O119  1  0.25000000  0.00000000  0.07100300  1
  O  O120  1  0.00000000  0.10715550  0.05819650  1
  O  O121  1  0.00000000  0.60715550  0.44180350  1
  O  O122  1  0.50000000  0.89284450  0.05819650  1
  O  O123  1  0.50000000  0.39284450  0.44180350  1
  O  O124  1  0.75000000  0.12104900  0.00000000  1
  O  O125  1  0.75000000  0.87895100  0.00000000  1
  O  O126  1  0.25000000  0.87895100  0.00000000  1
  O  O127  1  0.25000000  0.12104900  0.00000000  1
  O  O128  1  0.25000000  0.00000000  0.79805900  1
  O  O129  1  0.75000000  0.50000000  0.70194100  1
  O  O130  1  0.25000000  0.50000000  0.70194100  1
  O  O131  1  0.75000000  0.00000000  0.79805900  1
  O  O132  1  0.29963300  0.17285100  0.81667500  1
  O  O133  1  0.70036700  0.67285100  0.68332500  1
  O  O134  1  0.20036700  0.82714900  0.81667500  1
  O  O135  1  0.79963300  0.32714900  0.68332500  1
  O  O136  1  0.20036700  0.32714900  0.68332500  1
  O  O137  1  0.79963300  0.82714900  0.81667500  1
  O  O138  1  0.29963300  0.67285100  0.68332500  1
  O  O139  1  0.70036700  0.17285100  0.81667500  1
  O  O140  1  0.20816650  0.12157650  0.72913650  1
  O  O141  1  0.79183350  0.62157650  0.77086350  1
  O  O142  1  0.29183350  0.87842350  0.72913650  1
  O  O143  1  0.70816650  0.37842350  0.77086350  1
  O  O144  1  0.29183350  0.37842350  0.77086350  1
  O  O145  1  0.70816650  0.87842350  0.72913650  1
  O  O146  1  0.20816650  0.62157650  0.77086350  1
  O  O147  1  0.79183350  0.12157650  0.72913650  1
  O  O148  1  0.50000000  0.08487450  0.75979150  1
  O  O149  1  0.50000000  0.58487450  0.74020850  1
  O  O150  1  0.00000000  0.91512550  0.75979150  1
  O  O151  1  0.00000000  0.41512550  0.74020850  1
  O  O152  1  0.71224000  0.17447800  0.64104500  1
  O  O153  1  0.28776000  0.67447800  0.85895500  1
  O  O154  1  0.78776000  0.82552200  0.64104500  1
  O  O155  1  0.21224000  0.32552200  0.85895500  1
  O  O156  1  0.78776000  0.32552200  0.85895500  1
  O  O157  1  0.21224000  0.82552200  0.64104500  1
  O  O158  1  0.71224000  0.67447800  0.85895500  1
  O  O159  1  0.28776000  0.17447800  0.64104500  1
  O  O160  1  0.75000000  0.00000000  0.65891600  1
  O  O161  1  0.25000000  0.50000000  0.84108400  1
  O  O162  1  0.75000000  0.50000000  0.84108400  1
  O  O163  1  0.25000000  0.00000000  0.65891600  1
  O  O164  1  0.00000000  0.10904900  0.65738500  1
  O  O165  1  0.00000000  0.60904900  0.84261500  1
  O  O166  1  0.50000000  0.89095100  0.65738500  1
  O  O167  1  0.50000000  0.39095100  0.84261500  1
  O  O168  1  0.50000000  0.30508600  0.65539400  1
  O  O169  1  0.50000000  0.80508600  0.84460600  1
  O  O170  1  0.00000000  0.69491400  0.65539400  1
  O  O171  1  0.00000000  0.19491400  0.84460600  1
  O  O172  1  0.27208550  0.32503350  0.58985150  1
  O  O173  1  0.72791450  0.82503350  0.91014850  1
  O  O174  1  0.22791450  0.67496650  0.58985150  1
  O  O175  1  0.77208550  0.17496650  0.91014850  1
  O  O176  1  0.22791450  0.17496650  0.91014850  1
  O  O177  1  0.77208550  0.67496650  0.58985150  1
  O  O178  1  0.27208550  0.82503350  0.91014850  1
  O  O179  1  0.72791450  0.32503350  0.58985150  1
  O  O180  1  0.25000000  0.50000000  0.57100300  1
  O  O181  1  0.75000000  0.00000000  0.92899700  1
  O  O182  1  0.25000000  0.00000000  0.92899700  1
  O  O183  1  0.75000000  0.50000000  0.57100300  1
  O  O184  1  0.50000000  0.60715550  0.55819650  1
  O  O185  1  0.50000000  0.10715550  0.94180350  1
  O  O186  1  0.00000000  0.39284450  0.55819650  1
  O  O187  1  0.00000000  0.89284450  0.94180350  1
  O  O188  1  0.25000000  0.62104900  0.50000000  1
  O  O189  1  0.25000000  0.37895100  0.50000000  1
  O  O190  1  0.75000000  0.37895100  0.50000000  1
  O  O191  1  0.75000000  0.62104900  0.50000000  1
