# generated using pymatgen
data_Ba2AlH7
_symmetry_space_group_name_H-M   'P 1'
_cell_length_a   14.27719400
_cell_length_b   10.33929800
_cell_length_c   8.56715393
_cell_angle_alpha   90.00000000
_cell_angle_beta   114.83894540
_cell_angle_gamma   90.00000000
_symmetry_Int_Tables_number   1
_chemical_formula_structural   Ba2AlH7
_chemical_formula_sum   'Ba16 Al8 H56'
_cell_volume   1147.66031414
_cell_formula_units_Z   8
loop_
 _symmetry_equiv_pos_site_id
 _symmetry_equiv_pos_as_xyz
  1  'x, y, z'
loop_
 _atom_site_type_symbol
 _atom_site_label
 _atom_site_symmetry_multiplicity
 _atom_site_fract_x
 _atom_site_fract_y
 _atom_site_fract_z
 _atom_site_occupancy
  Ba  Ba0  1  0.09396200  0.83465800  0.51734300  1
  Ba  Ba1  1  0.90603800  0.83465800  0.98265700  1
  Ba  Ba2  1  0.90603800  0.16534200  0.48265700  1
  Ba  Ba3  1  0.09396200  0.16534200  0.01734300  1
  Ba  Ba4  1  0.85735500  0.57673400  0.51950300  1
  Ba  Ba5  1  0.14264500  0.57673400  0.98049700  1
  Ba  Ba6  1  0.14264500  0.42326600  0.48049700  1
  Ba  Ba7  1  0.85735500  0.42326600  0.01950300  1
  Ba  Ba8  1  0.59396200  0.33465800  0.51734300  1
  Ba  Ba9  1  0.40603800  0.33465800  0.98265700  1
  Ba  Ba10  1  0.40603800  0.66534200  0.48265700  1
  Ba  Ba11  1  0.59396200  0.66534200  0.01734300  1
  Ba  Ba12  1  0.35735500  0.07673400  0.51950300  1
  Ba  Ba13  1  0.64264500  0.07673400  0.98049700  1
  Ba  Ba14  1  0.64264500  0.92326600  0.48049700  1
  Ba  Ba15  1  0.35735500  0.92326600  0.01950300  1
  Al  Al16  1  0.67500400  0.35679600  0.19760300  1
  Al  Al17  1  0.32499600  0.35679600  0.30239700  1
  Al  Al18  1  0.32499600  0.64320400  0.80239700  1
  Al  Al19  1  0.67500400  0.64320400  0.69760300  1
  Al  Al20  1  0.17500400  0.85679600  0.19760300  1
  Al  Al21  1  0.82499600  0.85679600  0.30239700  1
  Al  Al22  1  0.82499600  0.14320400  0.80239700  1
  Al  Al23  1  0.17500400  0.14320400  0.69760300  1
  H  H24  1  0.74822150  0.35761750  0.41937400  1
  H  H25  1  0.25177850  0.35761750  0.08062600  1
  H  H26  1  0.25177850  0.64238250  0.58062600  1
  H  H27  1  0.74822150  0.64238250  0.91937400  1
  H  H28  1  0.10042050  0.72337250  0.21899600  1
  H  H29  1  0.89957950  0.72337250  0.28100400  1
  H  H30  1  0.89957950  0.27662750  0.78100400  1
  H  H31  1  0.10042050  0.27662750  0.71899600  1
  H  H32  1  0.76468100  0.25267800  0.17248500  1
  H  H33  1  0.23531900  0.25267800  0.32751500  1
  H  H34  1  0.23531900  0.74732200  0.82751500  1
  H  H35  1  0.76468100  0.74732200  0.67248500  1
  H  H36  1  0.09955150  0.84563050  0.97443600  1
  H  H37  1  0.90044850  0.84563050  0.52556400  1
  H  H38  1  0.90044850  0.15436950  0.02556400  1
  H  H39  1  0.09955150  0.15436950  0.47443600  1
  H  H40  1  0.74149700  0.49430200  0.17921000  1
  H  H41  1  0.25850300  0.49430200  0.32079000  1
  H  H42  1  0.25850300  0.50569800  0.82079000  1
  H  H43  1  0.74149700  0.50569800  0.67921000  1
  H  H44  1  0.58113450  0.45754150  0.21260300  1
  H  H45  1  0.41886550  0.45754150  0.28739700  1
  H  H46  1  0.41886550  0.54245850  0.78739700  1
  H  H47  1  0.58113450  0.54245850  0.71260300  1
  H  H48  1  0.94220300  0.60448300  0.87390400  1
  H  H49  1  0.05779700  0.60448300  0.62609600  1
  H  H50  1  0.05779700  0.39551700  0.12609600  1
  H  H51  1  0.94220300  0.39551700  0.37390400  1
  H  H52  1  0.24822150  0.85761750  0.41937400  1
  H  H53  1  0.75177850  0.85761750  0.08062600  1
  H  H54  1  0.75177850  0.14238250  0.58062600  1
  H  H55  1  0.24822150  0.14238250  0.91937400  1
  H  H56  1  0.60042050  0.22337250  0.21899600  1
  H  H57  1  0.39957950  0.22337250  0.28100400  1
  H  H58  1  0.39957950  0.77662750  0.78100400  1
  H  H59  1  0.60042050  0.77662750  0.71899600  1
  H  H60  1  0.26468100  0.75267800  0.17248500  1
  H  H61  1  0.73531900  0.75267800  0.32751500  1
  H  H62  1  0.73531900  0.24732200  0.82751500  1
  H  H63  1  0.26468100  0.24732200  0.67248500  1
  H  H64  1  0.59955150  0.34563050  0.97443600  1
  H  H65  1  0.40044850  0.34563050  0.52556400  1
  H  H66  1  0.40044850  0.65436950  0.02556400  1
  H  H67  1  0.59955150  0.65436950  0.47443600  1
  H  H68  1  0.24149700  0.99430200  0.17921000  1
  H  H69  1  0.75850300  0.99430200  0.32079000  1
  H  H70  1  0.75850300  0.00569800  0.82079000  1
  H  H71  1  0.24149700  0.00569800  0.67921000  1
  H  H72  1  0.08113450  0.95754150  0.21260300  1
  H  H73  1  0.91886550  0.95754150  0.28739700  1
  H  H74  1  0.91886550  0.04245850  0.78739700  1
  H  H75  1  0.08113450  0.04245850  0.71260300  1
  H  H76  1  0.44220300  0.10448300  0.87390400  1
  H  H77  1  0.55779700  0.10448300  0.62609600  1
  H  H78  1  0.55779700  0.89551700  0.12609600  1
  H  H79  1  0.44220300  0.89551700  0.37390400  1
