# generated using pymatgen
data_CaMg2H24(ClO2)6
_symmetry_space_group_name_H-M   'P 1'
_cell_length_a   10.25306251
_cell_length_b   10.25306251
_cell_length_c   17.77170912
_cell_angle_alpha   90.00000000
_cell_angle_beta   90.00000000
_cell_angle_gamma   120.00000000
_symmetry_Int_Tables_number   1
_chemical_formula_structural   CaMg2H24(ClO2)6
_chemical_formula_sum   'Ca3 Mg6 H72 Cl18 O36'
_cell_volume   1617.95723557
_cell_formula_units_Z   3
loop_
 _symmetry_equiv_pos_site_id
 _symmetry_equiv_pos_as_xyz
  1  'x, y, z'
loop_
 _atom_site_type_symbol
 _atom_site_label
 _atom_site_symmetry_multiplicity
 _atom_site_fract_x
 _atom_site_fract_y
 _atom_site_fract_z
 _atom_site_occupancy
  Ca  Ca0  1  0.00000000  0.00000000  0.00000000  1
  Ca  Ca1  1  0.66666667  0.33333333  0.33333333  1
  Ca  Ca2  1  0.33333333  0.66666667  0.66666667  1
  Mg  Mg3  1  0.33333333  0.66666667  0.34400167  1
  Mg  Mg4  1  0.33333333  0.66666667  0.98933167  1
  Mg  Mg5  1  0.00000000  0.00000000  0.67733500  1
  Mg  Mg6  1  0.00000000  0.00000000  0.32266500  1
  Mg  Mg7  1  0.66666667  0.33333333  0.01066833  1
  Mg  Mg8  1  0.66666667  0.33333333  0.65599833  1
  H  H9  1  0.37353167  0.85196333  0.46270733  1
  H  H10  1  0.14803667  0.52156833  0.46270733  1
  H  H11  1  0.47843167  0.62646833  0.46270733  1
  H  H12  1  0.29313500  0.48137000  0.87062600  1
  H  H13  1  0.51863000  0.81176500  0.87062600  1
  H  H14  1  0.18823500  0.70686500  0.87062600  1
  H  H15  1  0.51287400  0.94286800  0.40830400  1
  H  H16  1  0.05713200  0.57000600  0.40830400  1
  H  H17  1  0.42999400  0.48712600  0.40830400  1
  H  H18  1  0.15379267  0.39046533  0.92502933  1
  H  H19  1  0.60953467  0.76332733  0.92502933  1
  H  H20  1  0.23667267  0.84620733  0.92502933  1
  H  H21  1  0.34473467  0.45836533  0.24916733  1
  H  H22  1  0.54163467  0.88636933  0.24916733  1
  H  H23  1  0.11363067  0.65526533  0.24916733  1
  H  H24  1  0.32193200  0.87496800  0.08416600  1
  H  H25  1  0.12503200  0.44696400  0.08416600  1
  H  H26  1  0.55303600  0.67806800  0.08416600  1
  H  H27  1  0.17664167  0.42976033  0.24844833  1
  H  H28  1  0.57023967  0.74688133  0.24844833  1
  H  H29  1  0.25311867  0.82335833  0.24844833  1
  H  H30  1  0.49002500  0.90357300  0.08488500  1
  H  H31  1  0.09642700  0.58645200  0.08488500  1
  H  H32  1  0.41354800  0.50997500  0.08488500  1
  H  H33  1  0.04019833  0.18529667  0.79604067  1
  H  H34  1  0.81470333  0.85490167  0.79604067  1
  H  H35  1  0.14509833  0.95980167  0.79604067  1
  H  H36  1  0.95980167  0.81470333  0.20395933  1
  H  H37  1  0.18529667  0.14509833  0.20395933  1
  H  H38  1  0.85490167  0.04019833  0.20395933  1
  H  H39  1  0.17954067  0.27620133  0.74163733  1
  H  H40  1  0.72379867  0.90333933  0.74163733  1
  H  H41  1  0.09666067  0.82045933  0.74163733  1
  H  H42  1  0.82045933  0.72379867  0.25836267  1
  H  H43  1  0.27620133  0.09666067  0.25836267  1
  H  H44  1  0.90333933  0.17954067  0.25836267  1
  H  H45  1  0.01140133  0.79169867  0.58250067  1
  H  H46  1  0.20830133  0.21970267  0.58250067  1
  H  H47  1  0.78029733  0.98859867  0.58250067  1
  H  H48  1  0.98859867  0.20830133  0.41749933  1
  H  H49  1  0.79169867  0.78029733  0.41749933  1
  H  H50  1  0.21970267  0.01140133  0.41749933  1
  H  H51  1  0.84330833  0.76309367  0.58178167  1
  H  H52  1  0.23690633  0.08021467  0.58178167  1
  H  H53  1  0.91978533  0.15669167  0.58178167  1
  H  H54  1  0.15669167  0.23690633  0.41821833  1
  H  H55  1  0.76309367  0.91978533  0.41821833  1
  H  H56  1  0.08021467  0.84330833  0.41821833  1
  H  H57  1  0.70686500  0.51863000  0.12937400  1
  H  H58  1  0.48137000  0.18823500  0.12937400  1
  H  H59  1  0.81176500  0.29313500  0.12937400  1
  H  H60  1  0.62646833  0.14803667  0.53729267  1
  H  H61  1  0.85196333  0.47843167  0.53729267  1
  H  H62  1  0.52156833  0.37353167  0.53729267  1
  H  H63  1  0.84620733  0.60953467  0.07497067  1
  H  H64  1  0.39046533  0.23667267  0.07497067  1
  H  H65  1  0.76332733  0.15379267  0.07497067  1
  H  H66  1  0.48712600  0.05713200  0.59169600  1
  H  H67  1  0.94286800  0.42999400  0.59169600  1
  H  H68  1  0.57000600  0.51287400  0.59169600  1
  H  H69  1  0.67806800  0.12503200  0.91583400  1
  H  H70  1  0.87496800  0.55303600  0.91583400  1
  H  H71  1  0.44696400  0.32193200  0.91583400  1
  H  H72  1  0.65526533  0.54163467  0.75083267  1
  H  H73  1  0.45836533  0.11363067  0.75083267  1
  H  H74  1  0.88636933  0.34473467  0.75083267  1
  H  H75  1  0.50997500  0.09642700  0.91511500  1
  H  H76  1  0.90357300  0.41354800  0.91511500  1
  H  H77  1  0.58645200  0.49002500  0.91511500  1
  H  H78  1  0.82335833  0.57023967  0.75155167  1
  H  H79  1  0.42976033  0.25311867  0.75155167  1
  H  H80  1  0.74688133  0.17664167  0.75155167  1
  Cl  Cl81  1  0.59813100  0.51441000  0.23876800  1
  Cl  Cl82  1  0.48559000  0.08372100  0.23876800  1
  Cl  Cl83  1  0.91627900  0.40186900  0.23876800  1
  Cl  Cl84  1  0.06853567  0.81892333  0.09456533  1
  Cl  Cl85  1  0.18107667  0.24961233  0.09456533  1
  Cl  Cl86  1  0.75038767  0.93146433  0.09456533  1
  Cl  Cl87  1  0.26479767  0.84774333  0.57210133  1
  Cl  Cl88  1  0.15225667  0.41705433  0.57210133  1
  Cl  Cl89  1  0.58294567  0.73520233  0.57210133  1
  Cl  Cl90  1  0.73520233  0.15225667  0.42789867  1
  Cl  Cl91  1  0.84774333  0.58294567  0.42789867  1
  Cl  Cl92  1  0.41705433  0.26479767  0.42789867  1
  Cl  Cl93  1  0.93146433  0.18107667  0.90543467  1
  Cl  Cl94  1  0.81892333  0.75038767  0.90543467  1
  Cl  Cl95  1  0.24961233  0.06853567  0.90543467  1
  Cl  Cl96  1  0.40186900  0.48559000  0.76123200  1
  Cl  Cl97  1  0.51441000  0.91627900  0.76123200  1
  Cl  Cl98  1  0.08372100  0.59813100  0.76123200  1
  O  O99  1  0.40898100  0.85669800  0.41059100  1
  O  O100  1  0.14330200  0.55228300  0.41059100  1
  O  O101  1  0.44771700  0.59101900  0.41059100  1
  O  O102  1  0.25768567  0.47663533  0.92274233  1
  O  O103  1  0.52336467  0.78105033  0.92274233  1
  O  O104  1  0.21894967  0.74231433  0.92274233  1
  O  O105  1  0.27284633  0.47931567  0.27517667  1
  O  O106  1  0.52068433  0.79353067  0.27517667  1
  O  O107  1  0.20646933  0.72715367  0.27517667  1
  O  O108  1  0.39382033  0.85401767  0.05815667  1
  O  O109  1  0.14598233  0.53980267  0.05815667  1
  O  O110  1  0.46019733  0.60617967  0.05815667  1
  O  O111  1  0.07564767  0.19003133  0.74392433  1
  O  O112  1  0.80996867  0.88561633  0.74392433  1
  O  O113  1  0.11438367  0.92435233  0.74392433  1
  O  O114  1  0.92435233  0.80996867  0.25607567  1
  O  O115  1  0.19003133  0.11438367  0.25607567  1
  O  O116  1  0.88561633  0.07564767  0.25607567  1
  O  O117  1  0.93951300  0.81264900  0.60851000  1
  O  O118  1  0.18735100  0.12686400  0.60851000  1
  O  O119  1  0.87313600  0.06048700  0.60851000  1
  O  O120  1  0.06048700  0.18735100  0.39149000  1
  O  O121  1  0.81264900  0.87313600  0.39149000  1
  O  O122  1  0.12686400  0.93951300  0.39149000  1
  O  O123  1  0.74231433  0.52336467  0.07725767  1
  O  O124  1  0.47663533  0.21894967  0.07725767  1
  O  O125  1  0.78105033  0.25768567  0.07725767  1
  O  O126  1  0.59101900  0.14330200  0.58940900  1
  O  O127  1  0.85669800  0.44771700  0.58940900  1
  O  O128  1  0.55228300  0.40898100  0.58940900  1
  O  O129  1  0.60617967  0.14598233  0.94184333  1
  O  O130  1  0.85401767  0.46019733  0.94184333  1
  O  O131  1  0.53980267  0.39382033  0.94184333  1
  O  O132  1  0.72715367  0.52068433  0.72482333  1
  O  O133  1  0.47931567  0.20646933  0.72482333  1
  O  O134  1  0.79353067  0.27284633  0.72482333  1
