# generated using pymatgen
data_Rb2NaCo(CN)6
_symmetry_space_group_name_H-M   'P 1'
_cell_length_a   7.34243400
_cell_length_b   7.72976600
_cell_length_c   12.86335274
_cell_angle_alpha   90.00000000
_cell_angle_beta   124.34152017
_cell_angle_gamma   90.00000000
_symmetry_Int_Tables_number   1
_chemical_formula_structural   Rb2NaCo(CN)6
_chemical_formula_sum   'Rb4 Na2 Co2 C12 N12'
_cell_volume   602.80583838
_cell_formula_units_Z   2
loop_
 _symmetry_equiv_pos_site_id
 _symmetry_equiv_pos_as_xyz
  1  'x, y, z'
loop_
 _atom_site_type_symbol
 _atom_site_label
 _atom_site_symmetry_multiplicity
 _atom_site_fract_x
 _atom_site_fract_y
 _atom_site_fract_z
 _atom_site_occupancy
  Rb  Rb0  1  0.27097700  0.43429200  0.25072500  1
  Rb  Rb1  1  0.72902300  0.93429200  0.24927500  1
  Rb  Rb2  1  0.72902300  0.56570800  0.74927500  1
  Rb  Rb3  1  0.27097700  0.06570800  0.75072500  1
  Na  Na4  1  0.50000000  0.00000000  0.50000000  1
  Na  Na5  1  0.50000000  0.50000000  0.00000000  1
  Co  Co6  1  0.00000000  0.00000000  0.00000000  1
  Co  Co7  1  0.00000000  0.50000000  0.50000000  1
  C  C8  1  0.76103200  0.86579300  0.96880400  1
  C  C9  1  0.76103200  0.63420700  0.46880400  1
  C  C10  1  0.23896800  0.13420700  0.03119600  1
  C  C11  1  0.23896800  0.36579300  0.53119600  1
  C  C12  1  0.17010300  0.70123900  0.53835800  1
  C  C13  1  0.82989700  0.20123900  0.96164200  1
  C  C14  1  0.82989700  0.29876100  0.46164200  1
  C  C15  1  0.17010300  0.79876100  0.03835800  1
  C  C16  1  0.89913700  0.98052600  0.83025800  1
  C  C17  1  0.10086300  0.48052600  0.66974200  1
  C  C18  1  0.10086300  0.01947400  0.16974200  1
  C  C19  1  0.89913700  0.51947400  0.33025800  1
  N  N20  1  0.83448200  0.96597600  0.72371500  1
  N  N21  1  0.16551800  0.46597600  0.77628500  1
  N  N22  1  0.16551800  0.03402400  0.27628500  1
  N  N23  1  0.83448200  0.53402400  0.22371500  1
  N  N24  1  0.27860000  0.82616900  0.56302900  1
  N  N25  1  0.27860000  0.67383100  0.06302900  1
  N  N26  1  0.72140000  0.17383100  0.43697100  1
  N  N27  1  0.72140000  0.32616900  0.93697100  1
  N  N28  1  0.61006200  0.78195000  0.94769400  1
  N  N29  1  0.38993800  0.28195000  0.55230600  1
  N  N30  1  0.38993800  0.21805000  0.05230600  1
  N  N31  1  0.61006200  0.71805000  0.44769400  1
