# generated using pymatgen
data_KH2I3O
_symmetry_space_group_name_H-M   'P 1'
_cell_length_a   4.69073900
_cell_length_b   10.17997700
_cell_length_c   9.77311943
_cell_angle_alpha   90.00000000
_cell_angle_beta   116.31482823
_cell_angle_gamma   90.00000000
_symmetry_Int_Tables_number   1
_chemical_formula_structural   KH2I3O
_chemical_formula_sum   'K2 H4 I6 O2'
_cell_volume   418.32076613
_cell_formula_units_Z   2
loop_
 _symmetry_equiv_pos_site_id
 _symmetry_equiv_pos_as_xyz
  1  'x, y, z'
loop_
 _atom_site_type_symbol
 _atom_site_label
 _atom_site_symmetry_multiplicity
 _atom_site_fract_x
 _atom_site_fract_y
 _atom_site_fract_z
 _atom_site_occupancy
  K  K0  1  0.97356200  0.23639300  0.37889700  1
  K  K1  1  0.97356200  0.76360700  0.87889700  1
  H  H2  1  0.24213700  0.20372600  0.12606500  1
  H  H3  1  0.24213700  0.79627400  0.62606500  1
  H  H4  1  0.28595600  0.35350100  0.16238500  1
  H  H5  1  0.28595600  0.64649900  0.66238500  1
  I  I6  1  0.66617600  0.54533400  0.09459900  1
  I  I7  1  0.66617600  0.45466600  0.59459900  1
  I  I8  1  0.63399800  0.75651700  0.29760400  1
  I  I9  1  0.63399800  0.24348300  0.79760400  1
  I  I10  1  0.61152300  0.96829600  0.50084400  1
  I  I11  1  0.61152300  0.03170400  0.00084400  1
  O  O12  1  0.31344900  0.26708100  0.21040600  1
  O  O13  1  0.31344900  0.73291900  0.71040600  1
