# generated using pymatgen
data_Th2Cu(PO4)3
_symmetry_space_group_name_H-M   'P 1'
_cell_length_a   22.08182400
_cell_length_b   6.79082000
_cell_length_c   7.12744036
_cell_angle_alpha   90.00000000
_cell_angle_beta   107.11382008
_cell_angle_gamma   90.00000000
_symmetry_Int_Tables_number   1
_chemical_formula_structural   Th2Cu(PO4)3
_chemical_formula_sum   'Th8 Cu4 P12 O48'
_cell_volume   1021.46235714
_cell_formula_units_Z   4
loop_
 _symmetry_equiv_pos_site_id
 _symmetry_equiv_pos_as_xyz
  1  'x, y, z'
loop_
 _atom_site_type_symbol
 _atom_site_label
 _atom_site_symmetry_multiplicity
 _atom_site_fract_x
 _atom_site_fract_y
 _atom_site_fract_z
 _atom_site_occupancy
  Th  Th0  1  0.13991750  0.14643950  0.65696800  1
  Th  Th1  1  0.36008250  0.64643950  0.84303200  1
  Th  Th2  1  0.36008250  0.35356050  0.34303200  1
  Th  Th3  1  0.13991750  0.85356050  0.15696800  1
  Th  Th4  1  0.63991750  0.64643950  0.65696800  1
  Th  Th5  1  0.86008250  0.14643950  0.84303200  1
  Th  Th6  1  0.86008250  0.85356050  0.34303200  1
  Th  Th7  1  0.63991750  0.35356050  0.15696800  1
  Cu  Cu8  1  0.00000000  0.50000000  0.00000000  1
  Cu  Cu9  1  0.00000000  0.50000000  0.50000000  1
  Cu  Cu10  1  0.50000000  0.00000000  0.00000000  1
  Cu  Cu11  1  0.50000000  0.00000000  0.50000000  1
  P  P12  1  0.00000000  0.14098900  0.25000000  1
  P  P13  1  0.00000000  0.85901100  0.75000000  1
  P  P14  1  0.31852600  0.18269700  0.80506500  1
  P  P15  1  0.18147400  0.68269700  0.69493500  1
  P  P16  1  0.18147400  0.31730300  0.19493500  1
  P  P17  1  0.31852600  0.81730300  0.30506500  1
  P  P18  1  0.50000000  0.64098900  0.25000000  1
  P  P19  1  0.50000000  0.35901100  0.75000000  1
  P  P20  1  0.81852600  0.68269700  0.80506500  1
  P  P21  1  0.68147400  0.18269700  0.69493500  1
  P  P22  1  0.68147400  0.81730300  0.19493500  1
  P  P23  1  0.81852600  0.31730300  0.30506500  1
  O  O24  1  0.05224900  0.01348000  0.21145100  1
  O  O25  1  0.44775100  0.51348000  0.28854900  1
  O  O26  1  0.44775100  0.48652000  0.78854900  1
  O  O27  1  0.05224900  0.98652000  0.71145100  1
  O  O28  1  0.03529950  0.27664750  0.42710900  1
  O  O29  1  0.46470050  0.77664750  0.07289100  1
  O  O30  1  0.46470050  0.22335250  0.57289100  1
  O  O31  1  0.03529950  0.72335250  0.92710900  1
  O  O32  1  0.32945800  0.31287000  0.63797900  1
  O  O33  1  0.17054200  0.81287000  0.86202100  1
  O  O34  1  0.17054200  0.18713000  0.36202100  1
  O  O35  1  0.32945800  0.68713000  0.13797900  1
  O  O36  1  0.35404100  0.01419500  0.32234600  1
  O  O37  1  0.14595900  0.51419500  0.17765400  1
  O  O38  1  0.14595900  0.48580500  0.67765400  1
  O  O39  1  0.35404100  0.98580500  0.82234600  1
  O  O40  1  0.34713450  0.68490150  0.49178700  1
  O  O41  1  0.15286550  0.18490150  0.00821300  1
  O  O42  1  0.15286550  0.81509850  0.50821300  1
  O  O43  1  0.34713450  0.31509850  0.99178700  1
  O  O44  1  0.24777000  0.85180700  0.27581800  1
  O  O45  1  0.25223000  0.35180700  0.22418200  1
  O  O46  1  0.25223000  0.64819300  0.72418200  1
  O  O47  1  0.24777000  0.14819300  0.77581800  1
  O  O48  1  0.55224900  0.51348000  0.21145100  1
  O  O49  1  0.94775100  0.01348000  0.28854900  1
  O  O50  1  0.94775100  0.98652000  0.78854900  1
  O  O51  1  0.55224900  0.48652000  0.71145100  1
  O  O52  1  0.53529950  0.77664750  0.42710900  1
  O  O53  1  0.96470050  0.27664750  0.07289100  1
  O  O54  1  0.96470050  0.72335250  0.57289100  1
  O  O55  1  0.53529950  0.22335250  0.92710900  1
  O  O56  1  0.82945800  0.81287000  0.63797900  1
  O  O57  1  0.67054200  0.31287000  0.86202100  1
  O  O58  1  0.67054200  0.68713000  0.36202100  1
  O  O59  1  0.82945800  0.18713000  0.13797900  1
  O  O60  1  0.85404100  0.51419500  0.32234600  1
  O  O61  1  0.64595900  0.01419500  0.17765400  1
  O  O62  1  0.64595900  0.98580500  0.67765400  1
  O  O63  1  0.85404100  0.48580500  0.82234600  1
  O  O64  1  0.84713450  0.18490150  0.49178700  1
  O  O65  1  0.65286550  0.68490150  0.00821300  1
  O  O66  1  0.65286550  0.31509850  0.50821300  1
  O  O67  1  0.84713450  0.81509850  0.99178700  1
  O  O68  1  0.74777000  0.35180700  0.27581800  1
  O  O69  1  0.75223000  0.85180700  0.22418200  1
  O  O70  1  0.75223000  0.14819300  0.72418200  1
  O  O71  1  0.74777000  0.64819300  0.77581800  1
