# generated using pymatgen
data_SnSe
_symmetry_space_group_name_H-M   'P 1'
_cell_length_a   4.00164800
_cell_length_b   11.19847800
_cell_length_c   6.12512300
_cell_angle_alpha   90.00000000
_cell_angle_beta   90.00000000
_cell_angle_gamma   90.00000000
_symmetry_Int_Tables_number   1
_chemical_formula_structural   SnSe
_chemical_formula_sum   'Sn4 Se4'
_cell_volume   274.48126036
_cell_formula_units_Z   4
loop_
 _symmetry_equiv_pos_site_id
 _symmetry_equiv_pos_as_xyz
  1  'x, y, z'
loop_
 _atom_site_type_symbol
 _atom_site_label
 _atom_site_symmetry_multiplicity
 _atom_site_fract_x
 _atom_site_fract_y
 _atom_site_fract_z
 _atom_site_occupancy
  Sn  Sn0  1  0.50000000  0.33898900  0.75000000  1
  Sn  Sn1  1  0.00000000  0.16101100  0.25000000  1
  Sn  Sn2  1  0.00000000  0.83898900  0.75000000  1
  Sn  Sn3  1  0.50000000  0.66101100  0.25000000  1
  Se  Se4  1  0.00000000  0.16862800  0.75000000  1
  Se  Se5  1  0.50000000  0.33137200  0.25000000  1
  Se  Se6  1  0.50000000  0.66862800  0.75000000  1
  Se  Se7  1  0.00000000  0.83137200  0.25000000  1
