# generated using pymatgen
data_Ag3SI
_symmetry_space_group_name_H-M   'P 1'
_cell_length_a   4.31969000
_cell_length_b   4.73214816
_cell_length_c   13.27867368
_cell_angle_alpha   89.65796526
_cell_angle_beta   87.07948282
_cell_angle_gamma   89.88724023
_symmetry_Int_Tables_number   1
_chemical_formula_structural   Ag3SI
_chemical_formula_sum   'Ag6 S2 I2'
_cell_volume   271.07710160
_cell_formula_units_Z   2
loop_
 _symmetry_equiv_pos_site_id
 _symmetry_equiv_pos_as_xyz
  1  'x, y, z'
loop_
 _atom_site_type_symbol
 _atom_site_label
 _atom_site_symmetry_multiplicity
 _atom_site_fract_x
 _atom_site_fract_y
 _atom_site_fract_z
 _atom_site_occupancy
  Ag  Ag0  1  0.77760600  0.44815900  0.06725600  1
  Ag  Ag1  1  0.60394300  0.94397300  0.17434400  1
  Ag  Ag2  1  0.93103900  0.51598600  0.64033800  1
  Ag  Ag3  1  0.51040100  0.80623200  0.90894600  1
  Ag  Ag4  1  0.45115200  0.97677800  0.67606300  1
  Ag  Ag5  1  0.90401400  0.29647700  0.85354000  1
  S  S6  1  0.40623200  0.48646000  0.76491300  1
  S  S7  1  0.96084200  0.96201600  0.00559200  1
  I  I8  1  0.38720800  0.44658700  0.26522000  1
  I  I9  1  0.96756100  0.01733300  0.51878800  1
