# generated using pymatgen
data_Rb11Al14Si10(AgO16)3
_symmetry_space_group_name_H-M   'P 1'
_cell_length_a   12.44671000
_cell_length_b   12.47035044
_cell_length_c   12.71646823
_cell_angle_alpha   89.89503316
_cell_angle_beta   89.70711435
_cell_angle_gamma   89.87763757
_symmetry_Int_Tables_number   1
_chemical_formula_structural   Rb11Al14Si10(AgO16)3
_chemical_formula_sum   'Rb11 Al14 Si10 Ag3 O48'
_cell_volume   1973.75096254
_cell_formula_units_Z   1
loop_
 _symmetry_equiv_pos_site_id
 _symmetry_equiv_pos_as_xyz
  1  'x, y, z'
loop_
 _atom_site_type_symbol
 _atom_site_label
 _atom_site_symmetry_multiplicity
 _atom_site_fract_x
 _atom_site_fract_y
 _atom_site_fract_z
 _atom_site_occupancy
  Rb  Rb0  1  0.25725000  0.75315800  0.73789200  1
  Rb  Rb1  1  0.50330600  0.00151100  0.51008300  1
  Rb  Rb2  1  0.00395900  0.49337500  0.48845800  1
  Rb  Rb3  1  0.25708000  0.26558500  0.28913100  1
  Rb  Rb4  1  0.24874300  0.75199000  0.25885900  1
  Rb  Rb5  1  0.73174800  0.74225700  0.29157300  1
  Rb  Rb6  1  0.73016600  0.26820100  0.29208600  1
  Rb  Rb7  1  0.13489800  0.09188300  0.11411500  1
  Rb  Rb8  1  0.90734100  0.86523300  0.12251900  1
  Rb  Rb9  1  0.86310200  0.13362400  0.10246200  1
  Rb  Rb10  1  0.51952600  0.48677600  0.98038900  1
  Al  Al11  1  0.37059800  0.99985100  0.82167200  1
  Al  Al12  1  0.99664100  0.80407100  0.62903400  1
  Al  Al13  1  0.19006700  0.99830800  0.62491300  1
  Al  Al14  1  0.00290500  0.19855700  0.63156600  1
  Al  Al15  1  0.80881300  0.00065300  0.63203900  1
  Al  Al16  1  0.99606400  0.80701500  0.38183700  1
  Al  Al17  1  0.18717200  0.99843900  0.37521800  1
  Al  Al18  1  0.99980200  0.19071900  0.37919900  1
  Al  Al19  1  0.81074900  0.00310900  0.37837900  1
  Al  Al20  1  0.99851200  0.62517400  0.17677600  1
  Al  Al21  1  0.99908000  0.37305900  0.17732800  1
  Al  Al22  1  0.37516600  0.99814200  0.17590800  1
  Al  Al23  1  0.62551700  0.99826100  0.17719800  1
  Al  Al24  1  0.81075200  0.37555600  0.99559900  1
  Si  Si25  1  0.00483400  0.37375900  0.82332900  1
  Si  Si26  1  0.62454000  0.00204100  0.82181800  1
  Si  Si27  1  0.00367800  0.62697500  0.82577100  1
  Si  Si28  1  0.18700900  0.37290500  0.99583000  1
  Si  Si29  1  0.18843300  0.62581100  0.99870500  1
  Si  Si30  1  0.37575000  0.80953400  0.99651900  1
  Si  Si31  1  0.37034200  0.18805200  0.99528500  1
  Si  Si32  1  0.62713500  0.81507900  0.99551500  1
  Si  Si33  1  0.61969200  0.18771500  0.99510900  1
  Si  Si34  1  0.81124000  0.62721100  0.99395500  1
  Ag  Ag35  1  0.50464300  0.66191900  0.49561700  1
  Ag  Ag36  1  0.50502100  0.33786100  0.50095600  1
  Ag  Ag37  1  0.64037300  0.49987500  0.50492400  1
  O  O38  1  0.50297500  0.76454700  0.99706000  1
  O  O39  1  0.29851600  0.30100200  0.99547200  1
  O  O40  1  0.70801600  0.71081000  0.98556500  1
  O  O41  1  0.75848500  0.50828400  0.98944600  1
  O  O42  1  0.69413000  0.29404900  0.99204100  1
  O  O43  1  0.11650000  0.65110900  0.89319600  1
  O  O44  1  0.35049600  0.87714400  0.89216600  1
  O  O45  1  0.33957300  0.11384600  0.89783100  1
  O  O46  1  0.89568500  0.65128700  0.89634200  1
  O  O47  1  0.11780300  0.35207600  0.89014200  1
  O  O48  1  0.64554400  0.89363600  0.89509700  1
  O  O49  1  0.64464300  0.10913900  0.89574900  1
  O  O50  1  0.89993700  0.34754000  0.89288700  1
  O  O51  1  0.00702500  0.50217600  0.79055100  1
  O  O52  1  0.50377600  0.00133500  0.77868700  1
  O  O53  1  0.29630300  0.98477100  0.70979300  1
  O  O54  1  0.00954200  0.30927000  0.71451600  1
  O  O55  1  0.70607700  0.00327500  0.72485900  1
  O  O56  1  0.00977500  0.70025000  0.72292300  1
  O  O57  1  0.11197400  0.88261700  0.64272300  1
  O  O58  1  0.11179000  0.11213800  0.65003200  1
  O  O59  1  0.88623800  0.88599700  0.65145400  1
  O  O60  1  0.89160300  0.11383300  0.65233800  1
  O  O61  1  0.99858900  0.74020400  0.50438900  1
  O  O62  1  0.25021900  0.99695400  0.49813100  1
  O  O63  1  0.75023400  0.00640100  0.50461700  1
  O  O64  1  0.99804400  0.25291800  0.50329000  1
  O  O65  1  0.11374200  0.88044000  0.36352300  1
  O  O66  1  0.11457100  0.11518100  0.35377400  1
  O  O67  1  0.88134400  0.88376700  0.35936000  1
  O  O68  1  0.87997400  0.12308900  0.35418800  1
  O  O69  1  0.01091600  0.28598900  0.28133200  1
  O  O70  1  0.27413700  0.99822500  0.26797200  1
  O  O71  1  0.72352700  0.00228300  0.27117800  1
  O  O72  1  0.99344300  0.72055600  0.27388300  1
  O  O73  1  0.49966000  0.99276600  0.23208400  1
  O  O74  1  0.00621800  0.49973100  0.22933800  1
  O  O75  1  0.11808500  0.65562900  0.10117900  1
  O  O76  1  0.34915800  0.87820300  0.10125900  1
  O  O77  1  0.34959800  0.12357600  0.10596900  1
  O  O78  1  0.87682100  0.65126300  0.10227700  1
  O  O79  1  0.11906100  0.34107900  0.10031800  1
  O  O80  1  0.65702700  0.87785000  0.10341400  1
  O  O81  1  0.64365200  0.11993900  0.10255700  1
  O  O82  1  0.87692500  0.34520600  0.11311900  1
  O  O83  1  0.23031600  0.49951000  0.99687700  1
  O  O84  1  0.30145500  0.69655500  0.99372700  1
  O  O85  1  0.49493200  0.23461000  0.99190900  1
