# generated using pymatgen
data_Rb2Sn(H2N)6
_symmetry_space_group_name_H-M   'P 1'
_cell_length_a   6.79299591
_cell_length_b   6.79299591
_cell_length_c   5.71732500
_cell_angle_alpha   90.00000000
_cell_angle_beta   90.00000000
_cell_angle_gamma   120.00000000
_symmetry_Int_Tables_number   1
_chemical_formula_structural   Rb2Sn(H2N)6
_chemical_formula_sum   'Rb2 Sn1 H12 N6'
_cell_volume   228.47896260
_cell_formula_units_Z   1
loop_
 _symmetry_equiv_pos_site_id
 _symmetry_equiv_pos_as_xyz
  1  'x, y, z'
loop_
 _atom_site_type_symbol
 _atom_site_label
 _atom_site_symmetry_multiplicity
 _atom_site_fract_x
 _atom_site_fract_y
 _atom_site_fract_z
 _atom_site_occupancy
  Rb  Rb0  1  0.66666667  0.33333333  0.79495300  1
  Rb  Rb1  1  0.33333333  0.66666667  0.20504700  1
  Sn  Sn2  1  0.00000000  0.00000000  0.00000000  1
  H  H3  1  0.26536900  0.41513700  0.78308900  1
  H  H4  1  0.14976800  0.73463100  0.78308900  1
  H  H5  1  0.58486300  0.85023200  0.78308900  1
  H  H6  1  0.73463100  0.58486300  0.21691100  1
  H  H7  1  0.85023200  0.26536900  0.21691100  1
  H  H8  1  0.41513700  0.14976800  0.21691100  1
  H  H9  1  0.05463500  0.25499600  0.61107600  1
  H  H10  1  0.20036100  0.94536500  0.61107600  1
  H  H11  1  0.74500400  0.79963900  0.61107600  1
  H  H12  1  0.94536500  0.74500400  0.38892400  1
  H  H13  1  0.79963900  0.05463500  0.38892400  1
  H  H14  1  0.25499600  0.20036100  0.38892400  1
  N  N15  1  0.09232300  0.30552300  0.78231500  1
  N  N16  1  0.21320000  0.90767700  0.78231500  1
  N  N17  1  0.69447700  0.78680000  0.78231500  1
  N  N18  1  0.90767700  0.69447700  0.21768500  1
  N  N19  1  0.78680000  0.09232300  0.21768500  1
  N  N20  1  0.30552300  0.21320000  0.21768500  1
