# generated using pymatgen
data_K2Dy4Cu4S9
_symmetry_space_group_name_H-M   'P 1'
_cell_length_a   13.77432530
_cell_length_b   3.95073900
_cell_length_c   15.92345416
_cell_angle_alpha   90.00000000
_cell_angle_beta   109.73421064
_cell_angle_gamma   90.00000000
_symmetry_Int_Tables_number   1
_chemical_formula_structural   K2Dy4Cu4S9
_chemical_formula_sum   'K4 Dy8 Cu8 S18'
_cell_volume   815.64233562
_cell_formula_units_Z   2
loop_
 _symmetry_equiv_pos_site_id
 _symmetry_equiv_pos_as_xyz
  1  'x, y, z'
loop_
 _atom_site_type_symbol
 _atom_site_label
 _atom_site_symmetry_multiplicity
 _atom_site_fract_x
 _atom_site_fract_y
 _atom_site_fract_z
 _atom_site_occupancy
  K  K0  1  0.47282250  0.49264250  0.73064950  1
  K  K1  1  0.52717750  0.49264250  0.26935050  1
  K  K2  1  0.97282250  0.99264250  0.73064950  1
  K  K3  1  0.02717750  0.99264250  0.26935050  1
  Dy  Dy4  1  0.84627200  0.49655700  0.44348650  1
  Dy  Dy5  1  0.15372800  0.49655700  0.55651350  1
  Dy  Dy6  1  0.73517350  0.49867150  0.10250850  1
  Dy  Dy7  1  0.26952550  0.50212650  0.89378050  1
  Dy  Dy8  1  0.34627200  0.99655700  0.44348650  1
  Dy  Dy9  1  0.65372800  0.99655700  0.55651350  1
  Dy  Dy10  1  0.23517350  0.99867150  0.10250850  1
  Dy  Dy11  1  0.76952550  0.00212650  0.89378050  1
  Cu  Cu12  1  0.75565800  0.99337700  0.26941250  1
  Cu  Cu13  1  0.24434200  0.99337700  0.73058750  1
  Cu  Cu14  1  0.43265000  0.00495000  0.03745850  1
  Cu  Cu15  1  0.57275300  0.99935800  0.95924850  1
  Cu  Cu16  1  0.25565800  0.49337700  0.26941250  1
  Cu  Cu17  1  0.74434200  0.49337700  0.73058750  1
  Cu  Cu18  1  0.93265000  0.50495000  0.03745850  1
  Cu  Cu19  1  0.07275300  0.49935800  0.95924850  1
  S  S20  1  0.36511900  0.50204000  0.07388750  1
  S  S21  1  0.63919500  0.50029000  0.92215850  1
  S  S22  1  0.15274500  0.49469700  0.72022550  1
  S  S23  1  0.61150750  0.99786750  0.12452450  1
  S  S24  1  0.30157800  0.99423700  0.60175050  1
  S  S25  1  0.69842200  0.99423700  0.39824950  1
  S  S26  1  0.84725500  0.49469700  0.27977450  1
  S  S27  1  0.39334250  0.00245650  0.87167350  1
  S  S28  1  0.50000000  0.49528750  0.50000000  1
  S  S29  1  0.86511900  0.00204000  0.07388750  1
  S  S30  1  0.13919500  0.00029000  0.92215850  1
  S  S31  1  0.65274500  0.99469700  0.72022550  1
  S  S32  1  0.11150750  0.49786750  0.12452450  1
  S  S33  1  0.80157800  0.49423700  0.60175050  1
  S  S34  1  0.19842200  0.49423700  0.39824950  1
  S  S35  1  0.34725500  0.99469700  0.27977450  1
  S  S36  1  0.89334250  0.50245650  0.87167350  1
  S  S37  1  0.00000000  0.99528750  0.50000000  1
