# generated using pymatgen
data_MoSe2Cl4O
_symmetry_space_group_name_H-M   'P 1'
_cell_length_a   14.51094500
_cell_length_b   7.93481800
_cell_length_c   16.22736434
_cell_angle_alpha   90.00000000
_cell_angle_beta   110.97080465
_cell_angle_gamma   90.00000000
_symmetry_Int_Tables_number   1
_chemical_formula_structural   MoSe2Cl4O
_chemical_formula_sum   'Mo8 Se16 Cl32 O8'
_cell_volume   1744.68599071
_cell_formula_units_Z   8
loop_
 _symmetry_equiv_pos_site_id
 _symmetry_equiv_pos_as_xyz
  1  'x, y, z'
loop_
 _atom_site_type_symbol
 _atom_site_label
 _atom_site_symmetry_multiplicity
 _atom_site_fract_x
 _atom_site_fract_y
 _atom_site_fract_z
 _atom_site_occupancy
  Mo  Mo0  1  0.54222800  0.71488800  0.09055800  1
  Mo  Mo1  1  0.11661200  0.10531900  0.96356800  1
  Mo  Mo2  1  0.45777200  0.28511200  0.90944200  1
  Mo  Mo3  1  0.88338800  0.60531900  0.53643200  1
  Mo  Mo4  1  0.54222800  0.78511200  0.59055800  1
  Mo  Mo5  1  0.88338800  0.89468100  0.03643200  1
  Mo  Mo6  1  0.11661200  0.39468100  0.46356800  1
  Mo  Mo7  1  0.45777200  0.21488800  0.40944200  1
  Se  Se8  1  0.31691000  0.77380800  0.23583500  1
  Se  Se9  1  0.15836400  0.03770000  0.71443800  1
  Se  Se10  1  0.68309000  0.27380800  0.26416500  1
  Se  Se11  1  0.19184900  0.77994800  0.78971900  1
  Se  Se12  1  0.71778300  0.01791200  0.34217300  1
  Se  Se13  1  0.80815100  0.22005200  0.21028100  1
  Se  Se14  1  0.80815100  0.27994800  0.71028100  1
  Se  Se15  1  0.28221700  0.98208800  0.65782700  1
  Se  Se16  1  0.19184900  0.72005200  0.28971900  1
  Se  Se17  1  0.84163600  0.53770000  0.78556200  1
  Se  Se18  1  0.31691000  0.72619200  0.73583500  1
  Se  Se19  1  0.68309000  0.22619200  0.76416500  1
  Se  Se20  1  0.15836400  0.46230000  0.21443800  1
  Se  Se21  1  0.71778300  0.48208800  0.84217300  1
  Se  Se22  1  0.84163600  0.96230000  0.28556200  1
  Se  Se23  1  0.28221700  0.51791200  0.15782700  1
  Cl  Cl24  1  0.47193300  0.34383800  0.05929900  1
  Cl  Cl25  1  0.92689000  0.16647700  0.99369100  1
  Cl  Cl26  1  0.52806700  0.65616200  0.94070100  1
  Cl  Cl27  1  0.98960200  0.53366700  0.68661300  1
  Cl  Cl28  1  0.18968400  0.16094200  0.12091900  1
  Cl  Cl29  1  0.52806700  0.84383800  0.44070100  1
  Cl  Cl30  1  0.01039800  0.46633300  0.31338700  1
  Cl  Cl31  1  0.36772600  0.74765000  0.53955000  1
  Cl  Cl32  1  0.01039800  0.03366700  0.81338700  1
  Cl  Cl33  1  0.09075500  0.10551300  0.43599900  1
  Cl  Cl34  1  0.90924500  0.60551300  0.06400100  1
  Cl  Cl35  1  0.47193300  0.15616200  0.55929900  1
  Cl  Cl36  1  0.07311000  0.66647700  0.50630900  1
  Cl  Cl37  1  0.81031600  0.83905800  0.87908100  1
  Cl  Cl38  1  0.29954900  0.42709900  0.86002400  1
  Cl  Cl39  1  0.18968400  0.33905800  0.62091900  1
  Cl  Cl40  1  0.90924500  0.89448700  0.56400100  1
  Cl  Cl41  1  0.07311000  0.83352300  0.00630900  1
  Cl  Cl42  1  0.63227400  0.25235000  0.46045000  1
  Cl  Cl43  1  0.53369400  0.64752800  0.23105000  1
  Cl  Cl44  1  0.98960200  0.96633300  0.18661300  1
  Cl  Cl45  1  0.09075500  0.39448700  0.93599900  1
  Cl  Cl46  1  0.70045100  0.57290100  0.13997600  1
  Cl  Cl47  1  0.29954900  0.07290100  0.36002400  1
  Cl  Cl48  1  0.81031600  0.66094200  0.37908100  1
  Cl  Cl49  1  0.70045100  0.92709900  0.63997600  1
  Cl  Cl50  1  0.92689000  0.33352300  0.49369100  1
  Cl  Cl51  1  0.36772600  0.75235000  0.03955000  1
  Cl  Cl52  1  0.46630600  0.35247200  0.76895000  1
  Cl  Cl53  1  0.63227400  0.24765000  0.96045000  1
  Cl  Cl54  1  0.53369400  0.85247200  0.73105000  1
  Cl  Cl55  1  0.46630600  0.14752800  0.26895000  1
  O  O56  1  0.41821300  0.08286600  0.89495200  1
  O  O57  1  0.58178700  0.91713400  0.10504800  1
  O  O58  1  0.77603500  0.93050000  0.05291600  1
  O  O59  1  0.22396500  0.43050000  0.44708400  1
  O  O60  1  0.58178700  0.58286600  0.60504800  1
  O  O61  1  0.22396500  0.06950000  0.94708400  1
  O  O62  1  0.41821300  0.41713400  0.39495200  1
  O  O63  1  0.77603500  0.56950000  0.55291600  1
