# generated using pymatgen
data_SiO2
_symmetry_space_group_name_H-M   'P 1'
_cell_length_a   12.66501400
_cell_length_b   13.73310200
_cell_length_c   18.57909800
_cell_angle_alpha   90.00000000
_cell_angle_beta   90.00000000
_cell_angle_gamma   90.00000000
_symmetry_Int_Tables_number   1
_chemical_formula_structural   SiO2
_chemical_formula_sum   'Si48 O96'
_cell_volume   3231.46119776
_cell_formula_units_Z   48
loop_
 _symmetry_equiv_pos_site_id
 _symmetry_equiv_pos_as_xyz
  1  'x, y, z'
loop_
 _atom_site_type_symbol
 _atom_site_label
 _atom_site_symmetry_multiplicity
 _atom_site_fract_x
 _atom_site_fract_y
 _atom_site_fract_z
 _atom_site_occupancy
  Si  Si0  1  0.53657850  0.38681350  0.16654700  1
  Si  Si1  1  0.46342150  0.38681350  0.83345300  1
  Si  Si2  1  0.53657850  0.61318650  0.33345300  1
  Si  Si3  1  0.46342150  0.61318650  0.66654700  1
  Si  Si4  1  0.46342150  0.61318650  0.83345300  1
  Si  Si5  1  0.53657850  0.61318650  0.16654700  1
  Si  Si6  1  0.46342150  0.38681350  0.66654700  1
  Si  Si7  1  0.53657850  0.38681350  0.33345300  1
  Si  Si8  1  0.77060700  0.88718000  0.93908700  1
  Si  Si9  1  0.22939300  0.88718000  0.06091300  1
  Si  Si10  1  0.77060700  0.11282000  0.56091300  1
  Si  Si11  1  0.22939300  0.11282000  0.43908700  1
  Si  Si12  1  0.22939300  0.11282000  0.06091300  1
  Si  Si13  1  0.77060700  0.11282000  0.93908700  1
  Si  Si14  1  0.22939300  0.88718000  0.43908700  1
  Si  Si15  1  0.77060700  0.88718000  0.56091300  1
  Si  Si16  1  0.40411800  0.72718200  0.05248200  1
  Si  Si17  1  0.59588200  0.72718200  0.94751800  1
  Si  Si18  1  0.40411800  0.27281800  0.44751800  1
  Si  Si19  1  0.59588200  0.27281800  0.55248200  1
  Si  Si20  1  0.59588200  0.27281800  0.94751800  1
  Si  Si21  1  0.40411800  0.27281800  0.05248200  1
  Si  Si22  1  0.59588200  0.72718200  0.55248200  1
  Si  Si23  1  0.40411800  0.72718200  0.44751800  1
  Si  Si24  1  0.03657850  0.88681350  0.16654700  1
  Si  Si25  1  0.96342150  0.88681350  0.83345300  1
  Si  Si26  1  0.03657850  0.11318650  0.33345300  1
  Si  Si27  1  0.96342150  0.11318650  0.66654700  1
  Si  Si28  1  0.96342150  0.11318650  0.83345300  1
  Si  Si29  1  0.03657850  0.11318650  0.16654700  1
  Si  Si30  1  0.96342150  0.88681350  0.66654700  1
  Si  Si31  1  0.03657850  0.88681350  0.33345300  1
  Si  Si32  1  0.27060700  0.38718000  0.93908700  1
  Si  Si33  1  0.72939300  0.38718000  0.06091300  1
  Si  Si34  1  0.27060700  0.61282000  0.56091300  1
  Si  Si35  1  0.72939300  0.61282000  0.43908700  1
  Si  Si36  1  0.72939300  0.61282000  0.06091300  1
  Si  Si37  1  0.27060700  0.61282000  0.93908700  1
  Si  Si38  1  0.72939300  0.38718000  0.43908700  1
  Si  Si39  1  0.27060700  0.38718000  0.56091300  1
  Si  Si40  1  0.90411800  0.22718200  0.05248200  1
  Si  Si41  1  0.09588200  0.22718200  0.94751800  1
  Si  Si42  1  0.90411800  0.77281800  0.44751800  1
  Si  Si43  1  0.09588200  0.77281800  0.55248200  1
  Si  Si44  1  0.09588200  0.77281800  0.94751800  1
  Si  Si45  1  0.90411800  0.77281800  0.05248200  1
  Si  Si46  1  0.09588200  0.22718200  0.55248200  1
  Si  Si47  1  0.90411800  0.22718200  0.44751800  1
  O  O48  1  0.99884900  0.00000000  0.16045400  1
  O  O49  1  0.00115100  0.00000000  0.83954600  1
  O  O50  1  0.99884900  0.00000000  0.33954600  1
  O  O51  1  0.00115100  0.00000000  0.66045400  1
  O  O52  1  0.54379000  0.35345500  0.25000000  1
  O  O53  1  0.45621000  0.35345500  0.75000000  1
  O  O54  1  0.54379000  0.64654500  0.25000000  1
  O  O55  1  0.45621000  0.64654500  0.75000000  1
  O  O56  1  0.15265900  0.87344400  0.13038000  1
  O  O57  1  0.84734100  0.87344400  0.86962000  1
  O  O58  1  0.15265900  0.12655600  0.36962000  1
  O  O59  1  0.84734100  0.12655600  0.63038000  1
  O  O60  1  0.84734100  0.12655600  0.86962000  1
  O  O61  1  0.15265900  0.12655600  0.13038000  1
  O  O62  1  0.84734100  0.87344400  0.63038000  1
  O  O63  1  0.15265900  0.87344400  0.36962000  1
  O  O64  1  0.45028500  0.31907900  0.12622600  1
  O  O65  1  0.54971500  0.31907900  0.87377400  1
  O  O66  1  0.45028500  0.68092100  0.37377400  1
  O  O67  1  0.54971500  0.68092100  0.62622600  1
  O  O68  1  0.54971500  0.68092100  0.87377400  1
  O  O69  1  0.45028500  0.68092100  0.12622600  1
  O  O70  1  0.54971500  0.31907900  0.62622600  1
  O  O71  1  0.45028500  0.31907900  0.37377400  1
  O  O72  1  0.83206250  0.85489550  0.01239500  1
  O  O73  1  0.16793750  0.85489550  0.98760500  1
  O  O74  1  0.83206250  0.14510450  0.48760500  1
  O  O75  1  0.16793750  0.14510450  0.51239500  1
  O  O76  1  0.16793750  0.14510450  0.98760500  1
  O  O77  1  0.83206250  0.14510450  0.01239500  1
  O  O78  1  0.16793750  0.85489550  0.51239500  1
  O  O79  1  0.83206250  0.85489550  0.48760500  1
  O  O80  1  0.73495500  0.00000000  0.94721500  1
  O  O81  1  0.26504500  0.00000000  0.05278500  1
  O  O82  1  0.73495500  0.00000000  0.55278500  1
  O  O83  1  0.26504500  0.00000000  0.44721500  1
  O  O84  1  0.66584900  0.82170300  0.92700900  1
  O  O85  1  0.33415100  0.82170300  0.07299100  1
  O  O86  1  0.66584900  0.17829700  0.57299100  1
  O  O87  1  0.33415100  0.17829700  0.42700900  1
  O  O88  1  0.33415100  0.17829700  0.07299100  1
  O  O89  1  0.66584900  0.17829700  0.92700900  1
  O  O90  1  0.33415100  0.82170300  0.42700900  1
  O  O91  1  0.66584900  0.82170300  0.57299100  1
  O  O92  1  0.50000000  0.76167200  0.00000000  1
  O  O93  1  0.50000000  0.23832800  0.50000000  1
  O  O94  1  0.50000000  0.23832800  0.00000000  1
  O  O95  1  0.50000000  0.76167200  0.50000000  1
  O  O96  1  0.49884900  0.50000000  0.16045400  1
  O  O97  1  0.50115100  0.50000000  0.83954600  1
  O  O98  1  0.49884900  0.50000000  0.33954600  1
  O  O99  1  0.50115100  0.50000000  0.66045400  1
  O  O100  1  0.04379000  0.85345500  0.25000000  1
  O  O101  1  0.95621000  0.85345500  0.75000000  1
  O  O102  1  0.04379000  0.14654500  0.25000000  1
  O  O103  1  0.95621000  0.14654500  0.75000000  1
  O  O104  1  0.65265900  0.37344400  0.13038000  1
  O  O105  1  0.34734100  0.37344400  0.86962000  1
  O  O106  1  0.65265900  0.62655600  0.36962000  1
  O  O107  1  0.34734100  0.62655600  0.63038000  1
  O  O108  1  0.34734100  0.62655600  0.86962000  1
  O  O109  1  0.65265900  0.62655600  0.13038000  1
  O  O110  1  0.34734100  0.37344400  0.63038000  1
  O  O111  1  0.65265900  0.37344400  0.36962000  1
  O  O112  1  0.95028500  0.81907900  0.12622600  1
  O  O113  1  0.04971500  0.81907900  0.87377400  1
  O  O114  1  0.95028500  0.18092100  0.37377400  1
  O  O115  1  0.04971500  0.18092100  0.62622600  1
  O  O116  1  0.04971500  0.18092100  0.87377400  1
  O  O117  1  0.95028500  0.18092100  0.12622600  1
  O  O118  1  0.04971500  0.81907900  0.62622600  1
  O  O119  1  0.95028500  0.81907900  0.37377400  1
  O  O120  1  0.33206250  0.35489550  0.01239500  1
  O  O121  1  0.66793750  0.35489550  0.98760500  1
  O  O122  1  0.33206250  0.64510450  0.48760500  1
  O  O123  1  0.66793750  0.64510450  0.51239500  1
  O  O124  1  0.66793750  0.64510450  0.98760500  1
  O  O125  1  0.33206250  0.64510450  0.01239500  1
  O  O126  1  0.66793750  0.35489550  0.51239500  1
  O  O127  1  0.33206250  0.35489550  0.48760500  1
  O  O128  1  0.23495500  0.50000000  0.94721500  1
  O  O129  1  0.76504500  0.50000000  0.05278500  1
  O  O130  1  0.23495500  0.50000000  0.55278500  1
  O  O131  1  0.76504500  0.50000000  0.44721500  1
  O  O132  1  0.16584900  0.32170300  0.92700900  1
  O  O133  1  0.83415100  0.32170300  0.07299100  1
  O  O134  1  0.16584900  0.67829700  0.57299100  1
  O  O135  1  0.83415100  0.67829700  0.42700900  1
  O  O136  1  0.83415100  0.67829700  0.07299100  1
  O  O137  1  0.16584900  0.67829700  0.92700900  1
  O  O138  1  0.83415100  0.32170300  0.42700900  1
  O  O139  1  0.16584900  0.32170300  0.57299100  1
  O  O140  1  0.00000000  0.26167200  0.00000000  1
  O  O141  1  0.00000000  0.73832800  0.50000000  1
  O  O142  1  0.00000000  0.73832800  0.00000000  1
  O  O143  1  0.00000000  0.26167200  0.50000000  1
