# generated using pymatgen
data_Bi32P10Pb3O76
_symmetry_space_group_name_H-M   'P 1'
_cell_length_a   19.80659600
_cell_length_b   11.58756000
_cell_length_c   16.54691218
_cell_angle_alpha   90.00000000
_cell_angle_beta   101.25918844
_cell_angle_gamma   90.00000000
_symmetry_Int_Tables_number   1
_chemical_formula_structural   Bi32P10Pb3O76
_chemical_formula_sum   'Bi64 P20 Pb6 O152'
_cell_volume   3724.59349954
_cell_formula_units_Z   2
loop_
 _symmetry_equiv_pos_site_id
 _symmetry_equiv_pos_as_xyz
  1  'x, y, z'
loop_
 _atom_site_type_symbol
 _atom_site_label
 _atom_site_symmetry_multiplicity
 _atom_site_fract_x
 _atom_site_fract_y
 _atom_site_fract_z
 _atom_site_occupancy
  Bi  Bi0  1  0.60742300  0.31399000  0.18731200  1
  Bi  Bi1  1  0.62498750  0.85992650  0.59322100  1
  Bi  Bi2  1  0.38008000  0.67105900  0.80571600  1
  Bi  Bi3  1  0.61992000  0.67105900  0.19428400  1
  Bi  Bi4  1  0.22168400  0.83773100  0.79354900  1
  Bi  Bi5  1  0.65956900  0.00906300  0.97271300  1
  Bi  Bi6  1  0.34043100  0.00906300  0.02728700  1
  Bi  Bi7  1  0.12071000  0.04343200  0.60723900  1
  Bi  Bi8  1  0.54716800  0.82171900  0.78883700  1
  Bi  Bi9  1  0.20976650  0.02826250  0.40236400  1
  Bi  Bi10  1  0.70010200  0.19519800  0.39008800  1
  Bi  Bi11  1  0.45283200  0.82171900  0.21116300  1
  Bi  Bi12  1  0.44671100  0.02358600  0.59701200  1
  Bi  Bi13  1  0.29989800  0.19519800  0.60991200  1
  Bi  Bi14  1  0.55328900  0.02358600  0.40298800  1
  Bi  Bi15  1  0.43870350  0.13531850  0.20284700  1
  Bi  Bi16  1  0.87929000  0.04343200  0.39276100  1
  Bi  Bi17  1  0.37501250  0.85992650  0.40677900  1
  Bi  Bi18  1  0.33780500  0.33454700  0.00261300  1
  Bi  Bi19  1  0.56129650  0.13531850  0.79715300  1
  Bi  Bi20  1  0.26856850  0.87277750  0.60084800  1
  Bi  Bi21  1  0.50000000  0.51221200  0.00000000  1
  Bi  Bi22  1  0.23443750  0.16632650  0.82660900  1
  Bi  Bi23  1  0.66219500  0.33454700  0.99738700  1
  Bi  Bi24  1  0.73143150  0.87277750  0.39915200  1
  Bi  Bi25  1  0.76556250  0.16632650  0.17339100  1
  Bi  Bi26  1  0.50000000  0.84749100  0.00000000  1
  Bi  Bi27  1  0.45677900  0.35452100  0.60177800  1
  Bi  Bi28  1  0.54322100  0.35452100  0.39822200  1
  Bi  Bi29  1  0.39257700  0.31399000  0.81268800  1
  Bi  Bi30  1  0.77831600  0.83773100  0.20645100  1
  Bi  Bi31  1  0.79023350  0.02826250  0.59763600  1
  Bi  Bi32  1  0.10742300  0.81399000  0.18731200  1
  Bi  Bi33  1  0.12498750  0.35992650  0.59322100  1
  Bi  Bi34  1  0.88008000  0.17105900  0.80571600  1
  Bi  Bi35  1  0.11992000  0.17105900  0.19428400  1
  Bi  Bi36  1  0.72168400  0.33773100  0.79354900  1
  Bi  Bi37  1  0.15956900  0.50906300  0.97271300  1
  Bi  Bi38  1  0.84043100  0.50906300  0.02728700  1
  Bi  Bi39  1  0.62071000  0.54343200  0.60723900  1
  Bi  Bi40  1  0.04716800  0.32171900  0.78883700  1
  Bi  Bi41  1  0.70976650  0.52826250  0.40236400  1
  Bi  Bi42  1  0.20010200  0.69519800  0.39008800  1
  Bi  Bi43  1  0.95283200  0.32171900  0.21116300  1
  Bi  Bi44  1  0.94671100  0.52358600  0.59701200  1
  Bi  Bi45  1  0.79989800  0.69519800  0.60991200  1
  Bi  Bi46  1  0.05328900  0.52358600  0.40298800  1
  Bi  Bi47  1  0.93870350  0.63531850  0.20284700  1
  Bi  Bi48  1  0.37929000  0.54343200  0.39276100  1
  Bi  Bi49  1  0.87501250  0.35992650  0.40677900  1
  Bi  Bi50  1  0.83780500  0.83454700  0.00261300  1
  Bi  Bi51  1  0.06129650  0.63531850  0.79715300  1
  Bi  Bi52  1  0.76856850  0.37277750  0.60084800  1
  Bi  Bi53  1  0.00000000  0.01221200  0.00000000  1
  Bi  Bi54  1  0.73443750  0.66632650  0.82660900  1
  Bi  Bi55  1  0.16219500  0.83454700  0.99738700  1
  Bi  Bi56  1  0.23143150  0.37277750  0.39915200  1
  Bi  Bi57  1  0.26556250  0.66632650  0.17339100  1
  Bi  Bi58  1  0.00000000  0.34749100  0.00000000  1
  Bi  Bi59  1  0.95677900  0.85452100  0.60177800  1
  Bi  Bi60  1  0.04322100  0.85452100  0.39822200  1
  Bi  Bi61  1  0.89257700  0.81399000  0.81268800  1
  Bi  Bi62  1  0.27831600  0.33773100  0.20645100  1
  Bi  Bi63  1  0.29023350  0.52826250  0.59763600  1
  P  P64  1  0.28265050  0.97813050  0.20852500  1
  P  P65  1  0.44438900  0.69477400  0.59993600  1
  P  P66  1  0.55561100  0.69477400  0.40006400  1
  P  P67  1  0.71734950  0.97813050  0.79147500  1
  P  P68  1  0.62061700  0.19762900  0.58488000  1
  P  P69  1  0.33911250  0.68571250  0.99268700  1
  P  P70  1  0.66088750  0.68571250  0.00731300  1
  P  P71  1  0.37938300  0.19762900  0.41512000  1
  P  P72  1  0.05057050  0.97038050  0.80044000  1
  P  P73  1  0.94942950  0.97038050  0.19956000  1
  P  P74  1  0.78265050  0.47813050  0.20852500  1
  P  P75  1  0.94438900  0.19477400  0.59993600  1
  P  P76  1  0.05561100  0.19477400  0.40006400  1
  P  P77  1  0.21734950  0.47813050  0.79147500  1
  P  P78  1  0.12061700  0.69762900  0.58488000  1
  P  P79  1  0.83911250  0.18571250  0.99268700  1
  P  P80  1  0.16088750  0.18571250  0.00731300  1
  P  P81  1  0.87938300  0.69762900  0.41512000  1
  P  P82  1  0.55057050  0.47038050  0.80044000  1
  P  P83  1  0.44942950  0.47038050  0.19956000  1
  Pb  Pb84  1  0.61370400  0.99439600  0.19147300  1
  Pb  Pb85  1  0.38629600  0.99439600  0.80852700  1
  Pb  Pb86  1  0.50000000  0.16806300  0.00000000  1
  Pb  Pb87  1  0.11370400  0.49439600  0.19147300  1
  Pb  Pb88  1  0.88629600  0.49439600  0.80852700  1
  Pb  Pb89  1  0.00000000  0.66806300  0.00000000  1
  O  O90  1  0.67212900  0.70262900  0.64146500  1
  O  O91  1  0.68908300  0.19490200  0.25907400  1
  O  O92  1  0.38614500  0.31308500  0.46794300  1
  O  O93  1  0.49773500  0.52897700  0.14700400  1
  O  O94  1  0.43022900  0.97268700  0.12988900  1
  O  O95  1  0.35301750  0.09887850  0.46660100  1
  O  O96  1  0.50494850  0.38016150  0.74121100  1
  O  O97  1  0.56999850  0.57622850  0.44515500  1
  O  O98  1  0.20961100  0.95811400  0.68794100  1
  O  O99  1  0.89278300  0.89832000  0.14261800  1
  O  O100  1  0.30623400  0.08621100  0.16600200  1
  O  O101  1  0.22914850  0.16749150  0.97452700  1
  O  O102  1  0.61385500  0.31308500  0.53205700  1
  O  O103  1  0.91597400  0.05884400  0.24949400  1
  O  O104  1  0.86057250  0.88788650  0.63800100  1
  O  O105  1  0.27481750  0.88256450  0.43654700  1
  O  O106  1  0.39678950  0.79009650  0.54922200  1
  O  O107  1  0.26074250  0.88396550  0.14101500  1
  O  O108  1  0.10721700  0.89832000  0.85738200  1
  O  O109  1  0.56795850  0.36527350  0.04207700  1
  O  O110  1  0.61272700  0.17829200  0.93463600  1
  O  O111  1  0.45184800  0.16661600  0.39812800  1
  O  O112  1  0.72518250  0.88256450  0.56345300  1
  O  O113  1  0.49505150  0.38016150  0.25878900  1
  O  O114  1  0.32573200  0.21721600  0.33607800  1
  O  O115  1  0.53468700  0.17441500  0.16049800  1
  O  O116  1  0.32267100  0.75233800  0.90805900  1
  O  O117  1  0.49770000  0.97557000  0.72102500  1
  O  O118  1  0.57498300  0.98434000  0.04007100  1
  O  O119  1  0.68664700  0.80318600  0.25840800  1
  O  O120  1  0.38945500  0.76110000  0.05558300  1
  O  O121  1  0.79169650  0.02413150  0.46304500  1
  O  O122  1  0.31091700  0.19490200  0.74092600  1
  O  O123  1  0.57544500  0.68500300  0.31366700  1
  O  O124  1  0.66326350  0.21363350  0.10294000  1
  O  O125  1  0.47907600  0.73139200  0.38872900  1
  O  O126  1  0.57870250  0.18984850  0.35908900  1
  O  O127  1  0.12785450  0.06937250  0.02484600  1
  O  O128  1  0.72738850  0.99146450  0.14090900  1
  O  O129  1  0.61054500  0.76110000  0.94441700  1
  O  O130  1  0.65358350  0.00317950  0.36662600  1
  O  O131  1  0.31335300  0.80318600  0.74159200  1
  O  O132  1  0.54040700  0.80134500  0.14987300  1
  O  O133  1  0.69376600  0.08621100  0.83399800  1
  O  O134  1  0.67426800  0.21721600  0.66392200  1
  O  O135  1  0.79038900  0.95811400  0.31205900  1
  O  O136  1  0.50226500  0.52897700  0.85299600  1
  O  O137  1  0.54815200  0.16661600  0.60187200  1
  O  O138  1  0.73925750  0.88396550  0.85898500  1
  O  O139  1  0.50230000  0.97557000  0.27897500  1
  O  O140  1  0.64698250  0.09887850  0.53339900  1
  O  O141  1  0.77085150  0.16749150  0.02547300  1
  O  O142  1  0.42129750  0.18984850  0.64091100  1
  O  O143  1  0.43000150  0.57622850  0.55484500  1
  O  O144  1  0.20830350  0.02413150  0.53695500  1
  O  O145  1  0.34680750  0.92940950  0.27179700  1
  O  O146  1  0.52092400  0.73139200  0.61127100  1
  O  O147  1  0.67732900  0.75233800  0.09194100  1
  O  O148  1  0.34641650  0.00317950  0.63337400  1
  O  O149  1  0.38727300  0.17829200  0.06536400  1
  O  O150  1  0.32787100  0.70262900  0.35853500  1
  O  O151  1  0.77793250  0.00544450  0.74729500  1
  O  O152  1  0.42501700  0.98434000  0.95992900  1
  O  O153  1  0.42455500  0.68500300  0.68633300  1
  O  O154  1  0.46531300  0.17441500  0.83950200  1
  O  O155  1  0.33673650  0.21363350  0.89706000  1
  O  O156  1  0.43204150  0.36527350  0.95792300  1
  O  O157  1  0.56977100  0.97268700  0.87011100  1
  O  O158  1  0.87214550  0.06937250  0.97515400  1
  O  O159  1  0.27261150  0.99146450  0.85909100  1
  O  O160  1  0.08402600  0.05884400  0.75050600  1
  O  O161  1  0.65319250  0.92940950  0.72820300  1
  O  O162  1  0.13942750  0.88788650  0.36199900  1
  O  O163  1  0.22206750  0.00544450  0.25270500  1
  O  O164  1  0.60321050  0.79009650  0.45077800  1
  O  O165  1  0.45959300  0.80134500  0.85012700  1
  O  O166  1  0.17212900  0.20262900  0.64146500  1
  O  O167  1  0.18908300  0.69490200  0.25907400  1
  O  O168  1  0.88614500  0.81308500  0.46794300  1
  O  O169  1  0.99773500  0.02897700  0.14700400  1
  O  O170  1  0.93022900  0.47268700  0.12988900  1
  O  O171  1  0.85301750  0.59887850  0.46660100  1
  O  O172  1  0.00494850  0.88016150  0.74121100  1
  O  O173  1  0.06999850  0.07622850  0.44515500  1
  O  O174  1  0.70961100  0.45811400  0.68794100  1
  O  O175  1  0.39278300  0.39832000  0.14261800  1
  O  O176  1  0.80623400  0.58621100  0.16600200  1
  O  O177  1  0.72914850  0.66749150  0.97452700  1
  O  O178  1  0.11385500  0.81308500  0.53205700  1
  O  O179  1  0.41597400  0.55884400  0.24949400  1
  O  O180  1  0.36057250  0.38788650  0.63800100  1
  O  O181  1  0.77481750  0.38256450  0.43654700  1
  O  O182  1  0.89678950  0.29009650  0.54922200  1
  O  O183  1  0.76074250  0.38396550  0.14101500  1
  O  O184  1  0.60721700  0.39832000  0.85738200  1
  O  O185  1  0.06795850  0.86527350  0.04207700  1
  O  O186  1  0.11272700  0.67829200  0.93463600  1
  O  O187  1  0.95184800  0.66661600  0.39812800  1
  O  O188  1  0.22518250  0.38256450  0.56345300  1
  O  O189  1  0.99505150  0.88016150  0.25878900  1
  O  O190  1  0.82573200  0.71721600  0.33607800  1
  O  O191  1  0.03468700  0.67441500  0.16049800  1
  O  O192  1  0.82267100  0.25233800  0.90805900  1
  O  O193  1  0.99770000  0.47557000  0.72102500  1
  O  O194  1  0.07498300  0.48434000  0.04007100  1
  O  O195  1  0.18664700  0.30318600  0.25840800  1
  O  O196  1  0.88945500  0.26110000  0.05558300  1
  O  O197  1  0.29169650  0.52413150  0.46304500  1
  O  O198  1  0.81091700  0.69490200  0.74092600  1
  O  O199  1  0.07544500  0.18500300  0.31366700  1
  O  O200  1  0.16326350  0.71363350  0.10294000  1
  O  O201  1  0.97907600  0.23139200  0.38872900  1
  O  O202  1  0.07870250  0.68984850  0.35908900  1
  O  O203  1  0.62785450  0.56937250  0.02484600  1
  O  O204  1  0.22738850  0.49146450  0.14090900  1
  O  O205  1  0.11054500  0.26110000  0.94441700  1
  O  O206  1  0.15358350  0.50317950  0.36662600  1
  O  O207  1  0.81335300  0.30318600  0.74159200  1
  O  O208  1  0.04040700  0.30134500  0.14987300  1
  O  O209  1  0.19376600  0.58621100  0.83399800  1
  O  O210  1  0.17426800  0.71721600  0.66392200  1
  O  O211  1  0.29038900  0.45811400  0.31205900  1
  O  O212  1  0.00226500  0.02897700  0.85299600  1
  O  O213  1  0.04815200  0.66661600  0.60187200  1
  O  O214  1  0.23925750  0.38396550  0.85898500  1
  O  O215  1  0.00230000  0.47557000  0.27897500  1
  O  O216  1  0.14698250  0.59887850  0.53339900  1
  O  O217  1  0.27085150  0.66749150  0.02547300  1
  O  O218  1  0.92129750  0.68984850  0.64091100  1
  O  O219  1  0.93000150  0.07622850  0.55484500  1
  O  O220  1  0.70830350  0.52413150  0.53695500  1
  O  O221  1  0.84680750  0.42940950  0.27179700  1
  O  O222  1  0.02092400  0.23139200  0.61127100  1
  O  O223  1  0.17732900  0.25233800  0.09194100  1
  O  O224  1  0.84641650  0.50317950  0.63337400  1
  O  O225  1  0.88727300  0.67829200  0.06536400  1
  O  O226  1  0.82787100  0.20262900  0.35853500  1
  O  O227  1  0.27793250  0.50544450  0.74729500  1
  O  O228  1  0.92501700  0.48434000  0.95992900  1
  O  O229  1  0.92455500  0.18500300  0.68633300  1
  O  O230  1  0.96531300  0.67441500  0.83950200  1
  O  O231  1  0.83673650  0.71363350  0.89706000  1
  O  O232  1  0.93204150  0.86527350  0.95792300  1
  O  O233  1  0.06977100  0.47268700  0.87011100  1
  O  O234  1  0.37214550  0.56937250  0.97515400  1
  O  O235  1  0.77261150  0.49146450  0.85909100  1
  O  O236  1  0.58402600  0.55884400  0.75050600  1
  O  O237  1  0.15319250  0.42940950  0.72820300  1
  O  O238  1  0.63942750  0.38788650  0.36199900  1
  O  O239  1  0.72206750  0.50544450  0.25270500  1
  O  O240  1  0.10321050  0.29009650  0.45077800  1
  O  O241  1  0.95959300  0.30134500  0.85012700  1
