# generated using pymatgen
data_PSeCl9
_symmetry_space_group_name_H-M   'P 1'
_cell_length_a   12.24547600
_cell_length_b   12.30857200
_cell_length_c   17.39838600
_cell_angle_alpha   90.00000000
_cell_angle_beta   90.00000000
_cell_angle_gamma   90.00000000
_symmetry_Int_Tables_number   1
_chemical_formula_structural   PSeCl9
_chemical_formula_sum   'P8 Se8 Cl72'
_cell_volume   2622.35995150
_cell_formula_units_Z   8
loop_
 _symmetry_equiv_pos_site_id
 _symmetry_equiv_pos_as_xyz
  1  'x, y, z'
loop_
 _atom_site_type_symbol
 _atom_site_label
 _atom_site_symmetry_multiplicity
 _atom_site_fract_x
 _atom_site_fract_y
 _atom_site_fract_z
 _atom_site_occupancy
  P  P0  1  0.49170650  0.22865450  0.99036650  1
  P  P1  1  0.49170650  0.77134550  0.00963350  1
  P  P2  1  0.99170650  0.72865450  0.00963350  1
  P  P3  1  0.99170650  0.27134550  0.99036650  1
  P  P4  1  0.99170650  0.72865450  0.49036650  1
  P  P5  1  0.99170650  0.27134550  0.50963350  1
  P  P6  1  0.49170650  0.22865450  0.50963350  1
  P  P7  1  0.49170650  0.77134550  0.49036650  1
  Se  Se8  1  0.70021700  0.47062700  0.75000000  1
  Se  Se9  1  0.70021700  0.52937300  0.25000000  1
  Se  Se10  1  0.27074800  0.60577200  0.75000000  1
  Se  Se11  1  0.27074800  0.39422800  0.25000000  1
  Se  Se12  1  0.20021700  0.97062700  0.25000000  1
  Se  Se13  1  0.20021700  0.02937300  0.75000000  1
  Se  Se14  1  0.77074800  0.10577200  0.25000000  1
  Se  Se15  1  0.77074800  0.89422800  0.75000000  1
  Cl  Cl16  1  0.80667100  0.31586900  0.25000000  1
  Cl  Cl17  1  0.87466300  0.39002500  0.75000000  1
  Cl  Cl18  1  0.40830400  0.31925000  0.91846300  1
  Cl  Cl19  1  0.70621450  0.46692050  0.88969850  1
  Cl  Cl20  1  0.25863500  0.58187800  0.25000000  1
  Cl  Cl21  1  0.52478000  0.43151800  0.25000000  1
  Cl  Cl22  1  0.09172050  0.36393550  0.93016250  1
  Cl  Cl23  1  0.57443650  0.32122250  0.06038250  1
  Cl  Cl24  1  0.09244000  0.62945700  0.75000000  1
  Cl  Cl25  1  0.07443650  0.17877750  0.06038250  1
  Cl  Cl26  1  0.70621450  0.53307950  0.11030150  1
  Cl  Cl27  1  0.09244000  0.37054300  0.25000000  1
  Cl  Cl28  1  0.25863500  0.41812200  0.75000000  1
  Cl  Cl29  1  0.89220600  0.36484000  0.04931600  1
  Cl  Cl30  1  0.57443650  0.67877750  0.93961750  1
  Cl  Cl31  1  0.70621450  0.53307950  0.38969850  1
  Cl  Cl32  1  0.27660550  0.40305850  0.38883650  1
  Cl  Cl33  1  0.90830400  0.18075000  0.91846300  1
  Cl  Cl34  1  0.61205700  0.68929100  0.25000000  1
  Cl  Cl35  1  0.40830400  0.68075000  0.08153700  1
  Cl  Cl36  1  0.52478000  0.56848200  0.75000000  1
  Cl  Cl37  1  0.59172050  0.13606450  0.93016250  1
  Cl  Cl38  1  0.09172050  0.63606450  0.06983750  1
  Cl  Cl39  1  0.59172050  0.86393550  0.06983750  1
  Cl  Cl40  1  0.61205700  0.31070900  0.75000000  1
  Cl  Cl41  1  0.27660550  0.59694150  0.88883650  1
  Cl  Cl42  1  0.39220600  0.86484000  0.95068400  1
  Cl  Cl43  1  0.87466300  0.60997500  0.25000000  1
  Cl  Cl44  1  0.27660550  0.59694150  0.61116350  1
  Cl  Cl45  1  0.70621450  0.46692050  0.61030150  1
  Cl  Cl46  1  0.39220600  0.13516000  0.04931600  1
  Cl  Cl47  1  0.90830400  0.81925000  0.08153700  1
  Cl  Cl48  1  0.89220600  0.63516000  0.95068400  1
  Cl  Cl49  1  0.27660550  0.40305850  0.11116350  1
  Cl  Cl50  1  0.80667100  0.68413100  0.75000000  1
  Cl  Cl51  1  0.07443650  0.82122250  0.93961750  1
  Cl  Cl52  1  0.30667100  0.81586900  0.75000000  1
  Cl  Cl53  1  0.37466300  0.89002500  0.25000000  1
  Cl  Cl54  1  0.90830400  0.81925000  0.41846300  1
  Cl  Cl55  1  0.20621450  0.96692050  0.38969850  1
  Cl  Cl56  1  0.75863500  0.08187800  0.75000000  1
  Cl  Cl57  1  0.02478000  0.93151800  0.75000000  1
  Cl  Cl58  1  0.59172050  0.86393550  0.43016250  1
  Cl  Cl59  1  0.07443650  0.82122250  0.56038250  1
  Cl  Cl60  1  0.59244000  0.12945700  0.25000000  1
  Cl  Cl61  1  0.57443650  0.67877750  0.56038250  1
  Cl  Cl62  1  0.20621450  0.03307950  0.61030150  1
  Cl  Cl63  1  0.59244000  0.87054300  0.75000000  1
  Cl  Cl64  1  0.75863500  0.91812200  0.25000000  1
  Cl  Cl65  1  0.39220600  0.86484000  0.54931600  1
  Cl  Cl66  1  0.07443650  0.17877750  0.43961750  1
  Cl  Cl67  1  0.20621450  0.03307950  0.88969850  1
  Cl  Cl68  1  0.77660550  0.90305850  0.88883650  1
  Cl  Cl69  1  0.40830400  0.68075000  0.41846300  1
  Cl  Cl70  1  0.11205700  0.18929100  0.75000000  1
  Cl  Cl71  1  0.90830400  0.18075000  0.58153700  1
  Cl  Cl72  1  0.02478000  0.06848200  0.25000000  1
  Cl  Cl73  1  0.09172050  0.63606450  0.43016250  1
  Cl  Cl74  1  0.59172050  0.13606450  0.56983750  1
  Cl  Cl75  1  0.09172050  0.36393550  0.56983750  1
  Cl  Cl76  1  0.11205700  0.81070900  0.25000000  1
  Cl  Cl77  1  0.77660550  0.09694150  0.38883650  1
  Cl  Cl78  1  0.89220600  0.36484000  0.45068400  1
  Cl  Cl79  1  0.37466300  0.10997500  0.75000000  1
  Cl  Cl80  1  0.77660550  0.09694150  0.11116350  1
  Cl  Cl81  1  0.20621450  0.96692050  0.11030150  1
  Cl  Cl82  1  0.89220600  0.63516000  0.54931600  1
  Cl  Cl83  1  0.40830400  0.31925000  0.58153700  1
  Cl  Cl84  1  0.39220600  0.13516000  0.45068400  1
  Cl  Cl85  1  0.77660550  0.90305850  0.61116350  1
  Cl  Cl86  1  0.30667100  0.18413100  0.25000000  1
  Cl  Cl87  1  0.57443650  0.32122250  0.43961750  1
