# generated using pymatgen
data_SiO2
_symmetry_space_group_name_H-M   'P 1'
_cell_length_a   9.17696000
_cell_length_b   15.19281600
_cell_length_c   19.31486500
_cell_angle_alpha   90.00000000
_cell_angle_beta   90.00000000
_cell_angle_gamma   90.00000000
_symmetry_Int_Tables_number   1
_chemical_formula_structural   SiO2
_chemical_formula_sum   'Si48 O96'
_cell_volume   2692.95312483
_cell_formula_units_Z   48
loop_
 _symmetry_equiv_pos_site_id
 _symmetry_equiv_pos_as_xyz
  1  'x, y, z'
loop_
 _atom_site_type_symbol
 _atom_site_label
 _atom_site_symmetry_multiplicity
 _atom_site_fract_x
 _atom_site_fract_y
 _atom_site_fract_z
 _atom_site_occupancy
  Si  Si0  1  0.17580100  0.85713800  0.32206300  1
  Si  Si1  1  0.17580100  0.14286200  0.67793700  1
  Si  Si2  1  0.32419900  0.85713800  0.17793700  1
  Si  Si3  1  0.32419900  0.14286200  0.82206300  1
  Si  Si4  1  0.82419900  0.14286200  0.67793700  1
  Si  Si5  1  0.82419900  0.85713800  0.32206300  1
  Si  Si6  1  0.67580100  0.14286200  0.82206300  1
  Si  Si7  1  0.67580100  0.85713800  0.17793700  1
  Si  Si8  1  0.17138400  0.99693900  0.08242900  1
  Si  Si9  1  0.17138400  0.00306100  0.91757100  1
  Si  Si10  1  0.32861600  0.99693900  0.41757100  1
  Si  Si11  1  0.32861600  0.00306100  0.58242900  1
  Si  Si12  1  0.82861600  0.00306100  0.91757100  1
  Si  Si13  1  0.82861600  0.99693900  0.08242900  1
  Si  Si14  1  0.67138400  0.00306100  0.58242900  1
  Si  Si15  1  0.67138400  0.99693900  0.41757100  1
  Si  Si16  1  0.32567750  0.15580750  0.32091800  1
  Si  Si17  1  0.32567750  0.84419250  0.67908200  1
  Si  Si18  1  0.17432250  0.15580750  0.17908200  1
  Si  Si19  1  0.17432250  0.84419250  0.82091800  1
  Si  Si20  1  0.67432250  0.84419250  0.67908200  1
  Si  Si21  1  0.67432250  0.15580750  0.32091800  1
  Si  Si22  1  0.82567750  0.84419250  0.82091800  1
  Si  Si23  1  0.82567750  0.15580750  0.17908200  1
  Si  Si24  1  0.67580100  0.35713800  0.32206300  1
  Si  Si25  1  0.67580100  0.64286200  0.67793700  1
  Si  Si26  1  0.82419900  0.35713800  0.17793700  1
  Si  Si27  1  0.82419900  0.64286200  0.82206300  1
  Si  Si28  1  0.32419900  0.64286200  0.67793700  1
  Si  Si29  1  0.32419900  0.35713800  0.32206300  1
  Si  Si30  1  0.17580100  0.64286200  0.82206300  1
  Si  Si31  1  0.17580100  0.35713800  0.17793700  1
  Si  Si32  1  0.67138400  0.49693900  0.08242900  1
  Si  Si33  1  0.67138400  0.50306100  0.91757100  1
  Si  Si34  1  0.82861600  0.49693900  0.41757100  1
  Si  Si35  1  0.82861600  0.50306100  0.58242900  1
  Si  Si36  1  0.32861600  0.50306100  0.91757100  1
  Si  Si37  1  0.32861600  0.49693900  0.08242900  1
  Si  Si38  1  0.17138400  0.50306100  0.58242900  1
  Si  Si39  1  0.17138400  0.49693900  0.41757100  1
  Si  Si40  1  0.82567750  0.65580750  0.32091800  1
  Si  Si41  1  0.82567750  0.34419250  0.67908200  1
  Si  Si42  1  0.67432250  0.65580750  0.17908200  1
  Si  Si43  1  0.67432250  0.34419250  0.82091800  1
  Si  Si44  1  0.17432250  0.34419250  0.67908200  1
  Si  Si45  1  0.17432250  0.65580750  0.32091800  1
  Si  Si46  1  0.32567750  0.34419250  0.82091800  1
  Si  Si47  1  0.32567750  0.65580750  0.17908200  1
  O  O48  1  0.25000000  0.89055400  0.25000000  1
  O  O49  1  0.25000000  0.10944600  0.75000000  1
  O  O50  1  0.75000000  0.10944600  0.75000000  1
  O  O51  1  0.75000000  0.89055400  0.25000000  1
  O  O52  1  0.50000000  0.36295200  0.31523400  1
  O  O53  1  0.50000000  0.63704800  0.68476600  1
  O  O54  1  0.50000000  0.86295200  0.18476600  1
  O  O55  1  0.50000000  0.13704800  0.81523400  1
  O  O56  1  0.72643650  0.25600950  0.33823800  1
  O  O57  1  0.72643650  0.74399050  0.66176200  1
  O  O58  1  0.27356350  0.75600950  0.16176200  1
  O  O59  1  0.27356350  0.24399050  0.83823800  1
  O  O60  1  0.27356350  0.74399050  0.66176200  1
  O  O61  1  0.27356350  0.25600950  0.33823800  1
  O  O62  1  0.72643650  0.24399050  0.83823800  1
  O  O63  1  0.72643650  0.75600950  0.16176200  1
  O  O64  1  0.22977150  0.91876050  0.38529200  1
  O  O65  1  0.22977150  0.08123950  0.61470800  1
  O  O66  1  0.27022850  0.91876050  0.11470800  1
  O  O67  1  0.27022850  0.08123950  0.88529200  1
  O  O68  1  0.77022850  0.08123950  0.61470800  1
  O  O69  1  0.77022850  0.91876050  0.38529200  1
  O  O70  1  0.72977150  0.08123950  0.88529200  1
  O  O71  1  0.72977150  0.91876050  0.11470800  1
  O  O72  1  0.21941150  0.09158450  0.11532700  1
  O  O73  1  0.21941150  0.90841550  0.88467300  1
  O  O74  1  0.28058850  0.09158450  0.38467300  1
  O  O75  1  0.28058850  0.90841550  0.61532700  1
  O  O76  1  0.78058850  0.90841550  0.88467300  1
  O  O77  1  0.78058850  0.09158450  0.11532700  1
  O  O78  1  0.71941150  0.90841550  0.61532700  1
  O  O79  1  0.71941150  0.09158450  0.38467300  1
  O  O80  1  0.20020300  0.00000000  0.00000000  1
  O  O81  1  0.29979700  0.00000000  0.50000000  1
  O  O82  1  0.79979700  0.00000000  0.00000000  1
  O  O83  1  0.70020300  0.00000000  0.50000000  1
  O  O84  1  0.50000000  0.47729800  0.09899400  1
  O  O85  1  0.50000000  0.52270200  0.90100600  1
  O  O86  1  0.50000000  0.97729800  0.40100600  1
  O  O87  1  0.50000000  0.02270200  0.59899400  1
  O  O88  1  0.25000000  0.12080800  0.25000000  1
  O  O89  1  0.25000000  0.87919200  0.75000000  1
  O  O90  1  0.75000000  0.87919200  0.75000000  1
  O  O91  1  0.75000000  0.12080800  0.25000000  1
  O  O92  1  0.50000000  0.15395600  0.30932200  1
  O  O93  1  0.50000000  0.84604400  0.69067800  1
  O  O94  1  0.50000000  0.65395600  0.19067800  1
  O  O95  1  0.50000000  0.34604400  0.80932200  1
  O  O96  1  0.75000000  0.39055400  0.25000000  1
  O  O97  1  0.75000000  0.60944600  0.75000000  1
  O  O98  1  0.25000000  0.60944600  0.75000000  1
  O  O99  1  0.25000000  0.39055400  0.25000000  1
  O  O100  1  0.00000000  0.86295200  0.31523400  1
  O  O101  1  0.00000000  0.13704800  0.68476600  1
  O  O102  1  0.00000000  0.36295200  0.18476600  1
  O  O103  1  0.00000000  0.63704800  0.81523400  1
  O  O104  1  0.22643650  0.75600950  0.33823800  1
  O  O105  1  0.22643650  0.24399050  0.66176200  1
  O  O106  1  0.77356350  0.25600950  0.16176200  1
  O  O107  1  0.77356350  0.74399050  0.83823800  1
  O  O108  1  0.77356350  0.24399050  0.66176200  1
  O  O109  1  0.77356350  0.75600950  0.33823800  1
  O  O110  1  0.22643650  0.74399050  0.83823800  1
  O  O111  1  0.22643650  0.25600950  0.16176200  1
  O  O112  1  0.72977150  0.41876050  0.38529200  1
  O  O113  1  0.72977150  0.58123950  0.61470800  1
  O  O114  1  0.77022850  0.41876050  0.11470800  1
  O  O115  1  0.77022850  0.58123950  0.88529200  1
  O  O116  1  0.27022850  0.58123950  0.61470800  1
  O  O117  1  0.27022850  0.41876050  0.38529200  1
  O  O118  1  0.22977150  0.58123950  0.88529200  1
  O  O119  1  0.22977150  0.41876050  0.11470800  1
  O  O120  1  0.71941150  0.59158450  0.11532700  1
  O  O121  1  0.71941150  0.40841550  0.88467300  1
  O  O122  1  0.78058850  0.59158450  0.38467300  1
  O  O123  1  0.78058850  0.40841550  0.61532700  1
  O  O124  1  0.28058850  0.40841550  0.88467300  1
  O  O125  1  0.28058850  0.59158450  0.11532700  1
  O  O126  1  0.21941150  0.40841550  0.61532700  1
  O  O127  1  0.21941150  0.59158450  0.38467300  1
  O  O128  1  0.70020300  0.50000000  0.00000000  1
  O  O129  1  0.79979700  0.50000000  0.50000000  1
  O  O130  1  0.29979700  0.50000000  0.00000000  1
  O  O131  1  0.20020300  0.50000000  0.50000000  1
  O  O132  1  0.00000000  0.97729800  0.09899400  1
  O  O133  1  0.00000000  0.02270200  0.90100600  1
  O  O134  1  0.00000000  0.47729800  0.40100600  1
  O  O135  1  0.00000000  0.52270200  0.59899400  1
  O  O136  1  0.75000000  0.62080800  0.25000000  1
  O  O137  1  0.75000000  0.37919200  0.75000000  1
  O  O138  1  0.25000000  0.37919200  0.75000000  1
  O  O139  1  0.25000000  0.62080800  0.25000000  1
  O  O140  1  0.00000000  0.65395600  0.30932200  1
  O  O141  1  0.00000000  0.34604400  0.69067800  1
  O  O142  1  0.00000000  0.15395600  0.19067800  1
  O  O143  1  0.00000000  0.84604400  0.80932200  1
