# generated using pymatgen
data_Li4Mn5O12
_symmetry_space_group_name_H-M   'P 1'
_cell_length_a   8.26996000
_cell_length_b   8.24104200
_cell_length_c   13.02123451
_cell_angle_alpha   90.00000000
_cell_angle_beta   108.19736344
_cell_angle_gamma   90.00000000
_symmetry_Int_Tables_number   1
_chemical_formula_structural   Li4Mn5O12
_chemical_formula_sum   'Li16 Mn20 O48'
_cell_volume   843.05342222
_cell_formula_units_Z   4
loop_
 _symmetry_equiv_pos_site_id
 _symmetry_equiv_pos_as_xyz
  1  'x, y, z'
loop_
 _atom_site_type_symbol
 _atom_site_label
 _atom_site_symmetry_multiplicity
 _atom_site_fract_x
 _atom_site_fract_y
 _atom_site_fract_z
 _atom_site_occupancy
  Li  Li0  1  0.83708700  0.37733900  0.92033200  1
  Li  Li1  1  0.83708700  0.62266100  0.42033200  1
  Li  Li2  1  0.00000000  0.11869400  0.75000000  1
  Li  Li3  1  0.00000000  0.88130600  0.25000000  1
  Li  Li4  1  0.00000000  0.00000000  0.50000000  1
  Li  Li5  1  0.16291300  0.62266100  0.07966800  1
  Li  Li6  1  0.16291300  0.37733900  0.57966800  1
  Li  Li7  1  0.00000000  0.00000000  0.00000000  1
  Li  Li8  1  0.33708700  0.87733900  0.92033200  1
  Li  Li9  1  0.33708700  0.12266100  0.42033200  1
  Li  Li10  1  0.50000000  0.61869400  0.75000000  1
  Li  Li11  1  0.50000000  0.38130600  0.25000000  1
  Li  Li12  1  0.50000000  0.50000000  0.50000000  1
  Li  Li13  1  0.66291300  0.12266100  0.07966800  1
  Li  Li14  1  0.66291300  0.87733900  0.57966800  1
  Li  Li15  1  0.50000000  0.50000000  0.00000000  1
  Mn  Mn16  1  0.83235800  0.49859300  0.16493200  1
  Mn  Mn17  1  0.08202700  0.75121500  0.66368500  1
  Mn  Mn18  1  0.83235800  0.50140700  0.66493200  1
  Mn  Mn19  1  0.75000000  0.75000000  0.00000000  1
  Mn  Mn20  1  0.91797300  0.75121500  0.83631500  1
  Mn  Mn21  1  0.16764200  0.50140700  0.83506800  1
  Mn  Mn22  1  0.91797300  0.24878500  0.33631500  1
  Mn  Mn23  1  0.08202700  0.24878500  0.16368500  1
  Mn  Mn24  1  0.16764200  0.49859300  0.33506800  1
  Mn  Mn25  1  0.25000000  0.75000000  0.50000000  1
  Mn  Mn26  1  0.33235800  0.99859300  0.16493200  1
  Mn  Mn27  1  0.58202700  0.25121500  0.66368500  1
  Mn  Mn28  1  0.33235800  0.00140700  0.66493200  1
  Mn  Mn29  1  0.25000000  0.25000000  0.00000000  1
  Mn  Mn30  1  0.41797300  0.25121500  0.83631500  1
  Mn  Mn31  1  0.66764200  0.00140700  0.83506800  1
  Mn  Mn32  1  0.41797300  0.74878500  0.33631500  1
  Mn  Mn33  1  0.58202700  0.74878500  0.16368500  1
  Mn  Mn34  1  0.66764200  0.99859300  0.33506800  1
  Mn  Mn35  1  0.75000000  0.25000000  0.50000000  1
  O  O36  1  0.92750350  0.48453550  0.32415700  1
  O  O37  1  0.02439550  0.74972850  0.51350200  1
  O  O38  1  0.60393550  0.47934050  0.66884100  1
  O  O39  1  0.18400050  0.73695850  0.34148300  1
  O  O40  1  0.75552200  0.48115900  0.51357100  1
  O  O41  1  0.92750350  0.51546450  0.82415700  1
  O  O42  1  0.18400050  0.26304150  0.84148300  1
  O  O43  1  0.24447800  0.48115900  0.98642900  1
  O  O44  1  0.85096200  0.73483600  0.67379000  1
  O  O45  1  0.97560450  0.74972850  0.98649800  1
  O  O46  1  0.39606450  0.47934050  0.83115900  1
  O  O47  1  0.14903800  0.73483600  0.82621000  1
  O  O48  1  0.60393550  0.52065950  0.16884100  1
  O  O49  1  0.85096200  0.26516400  0.17379000  1
  O  O50  1  0.02439550  0.25027150  0.01350200  1
  O  O51  1  0.14903800  0.26516400  0.32621000  1
  O  O52  1  0.75552200  0.51884100  0.01357100  1
  O  O53  1  0.81599950  0.73695850  0.15851700  1
  O  O54  1  0.07249650  0.48453550  0.17584300  1
  O  O55  1  0.24447800  0.51884100  0.48642900  1
  O  O56  1  0.81599950  0.26304150  0.65851700  1
  O  O57  1  0.39606450  0.52065950  0.33115900  1
  O  O58  1  0.97560450  0.25027150  0.48649800  1
  O  O59  1  0.07249650  0.51546450  0.67584300  1
  O  O60  1  0.42750350  0.98453550  0.32415700  1
  O  O61  1  0.52439550  0.24972850  0.51350200  1
  O  O62  1  0.10393550  0.97934050  0.66884100  1
  O  O63  1  0.68400050  0.23695850  0.34148300  1
  O  O64  1  0.25552200  0.98115900  0.51357100  1
  O  O65  1  0.42750350  0.01546450  0.82415700  1
  O  O66  1  0.68400050  0.76304150  0.84148300  1
  O  O67  1  0.74447800  0.98115900  0.98642900  1
  O  O68  1  0.35096200  0.23483600  0.67379000  1
  O  O69  1  0.47560450  0.24972850  0.98649800  1
  O  O70  1  0.89606450  0.97934050  0.83115900  1
  O  O71  1  0.64903800  0.23483600  0.82621000  1
  O  O72  1  0.10393550  0.02065950  0.16884100  1
  O  O73  1  0.35096200  0.76516400  0.17379000  1
  O  O74  1  0.52439550  0.75027150  0.01350200  1
  O  O75  1  0.64903800  0.76516400  0.32621000  1
  O  O76  1  0.25552200  0.01884100  0.01357100  1
  O  O77  1  0.31599950  0.23695850  0.15851700  1
  O  O78  1  0.57249650  0.98453550  0.17584300  1
  O  O79  1  0.74447800  0.01884100  0.48642900  1
  O  O80  1  0.31599950  0.76304150  0.65851700  1
  O  O81  1  0.89606450  0.02065950  0.33115900  1
  O  O82  1  0.47560450  0.75027150  0.48649800  1
  O  O83  1  0.57249650  0.01546450  0.67584300  1
