# generated using pymatgen
data_ScTl(MoO4)2
_symmetry_space_group_name_H-M   'P 1'
_cell_length_a   5.91537000
_cell_length_b   9.03398900
_cell_length_c   15.32932200
_cell_angle_alpha   90.00000000
_cell_angle_beta   90.00000000
_cell_angle_gamma   90.00000000
_symmetry_Int_Tables_number   1
_chemical_formula_structural   ScTl(MoO4)2
_chemical_formula_sum   'Sc4 Tl4 Mo8 O32'
_cell_volume   819.18957864
_cell_formula_units_Z   4
loop_
 _symmetry_equiv_pos_site_id
 _symmetry_equiv_pos_as_xyz
  1  'x, y, z'
loop_
 _atom_site_type_symbol
 _atom_site_label
 _atom_site_symmetry_multiplicity
 _atom_site_fract_x
 _atom_site_fract_y
 _atom_site_fract_z
 _atom_site_occupancy
  Sc  Sc0  1  0.25000000  0.30658800  0.61296800  1
  Sc  Sc1  1  0.25000000  0.19341200  0.11296800  1
  Sc  Sc2  1  0.75000000  0.80658800  0.88703200  1
  Sc  Sc3  1  0.75000000  0.69341200  0.38703200  1
  Tl  Tl4  1  0.75000000  0.56137200  0.12561000  1
  Tl  Tl5  1  0.25000000  0.43862800  0.87439000  1
  Tl  Tl6  1  0.75000000  0.93862800  0.62561000  1
  Tl  Tl7  1  0.25000000  0.06137200  0.37439000  1
  Mo  Mo8  1  0.75000000  0.50222600  0.71729300  1
  Mo  Mo9  1  0.75000000  0.29005700  0.46409400  1
  Mo  Mo10  1  0.25000000  0.70994300  0.53590600  1
  Mo  Mo11  1  0.25000000  0.79005700  0.03590600  1
  Mo  Mo12  1  0.75000000  0.99777400  0.21729300  1
  Mo  Mo13  1  0.25000000  0.49777400  0.28270700  1
  Mo  Mo14  1  0.75000000  0.20994300  0.96409400  1
  Mo  Mo15  1  0.25000000  0.00222600  0.78270700  1
  O  O16  1  0.75000000  0.20135900  0.36225400  1
  O  O17  1  0.99675400  0.22849300  0.52556300  1
  O  O18  1  0.99509100  0.60670100  0.29935000  1
  O  O19  1  0.75000000  0.01279900  0.95014800  1
  O  O20  1  0.25000000  0.70135900  0.13774600  1
  O  O21  1  0.75000000  0.48720100  0.45014800  1
  O  O22  1  0.25000000  0.51279900  0.54985200  1
  O  O23  1  0.50324600  0.27150700  0.02556300  1
  O  O24  1  0.00324600  0.77150700  0.47443700  1
  O  O25  1  0.49509100  0.10670100  0.20065000  1
  O  O26  1  0.25000000  0.39637500  0.17986400  1
  O  O27  1  0.00490900  0.10670100  0.20065000  1
  O  O28  1  0.75000000  0.60362500  0.82013600  1
  O  O29  1  0.50490900  0.89329900  0.79935000  1
  O  O30  1  0.50324600  0.22849300  0.52556300  1
  O  O31  1  0.25000000  0.79864100  0.63774600  1
  O  O32  1  0.75000000  0.63744100  0.63607700  1
  O  O33  1  0.75000000  0.29864100  0.86225400  1
  O  O34  1  0.25000000  0.10362500  0.67986400  1
  O  O35  1  0.49675400  0.72849300  0.97443700  1
  O  O36  1  0.49509100  0.39329900  0.70065000  1
  O  O37  1  0.25000000  0.98720100  0.04985200  1
  O  O38  1  0.75000000  0.89637500  0.32013600  1
  O  O39  1  0.75000000  0.86255900  0.13607700  1
  O  O40  1  0.50490900  0.60670100  0.29935000  1
  O  O41  1  0.49675400  0.77150700  0.47443700  1
  O  O42  1  0.99509100  0.89329900  0.79935000  1
  O  O43  1  0.00490900  0.39329900  0.70065000  1
  O  O44  1  0.25000000  0.13744100  0.86392300  1
  O  O45  1  0.25000000  0.36255900  0.36392300  1
  O  O46  1  0.00324600  0.72849300  0.97443700  1
  O  O47  1  0.99675400  0.27150700  0.02556300  1
