# generated using pymatgen
data_Yb(Ga3Te5)2
_symmetry_space_group_name_H-M   'P 1'
_cell_length_a   14.85669800
_cell_length_b   14.66541200
_cell_length_c   10.40484630
_cell_angle_alpha   90.00000000
_cell_angle_beta   90.06785288
_cell_angle_gamma   90.00000000
_symmetry_Int_Tables_number   1
_chemical_formula_structural   Yb(Ga3Te5)2
_chemical_formula_sum   'Yb4 Ga24 Te40'
_cell_volume   2267.00212952
_cell_formula_units_Z   4
loop_
 _symmetry_equiv_pos_site_id
 _symmetry_equiv_pos_as_xyz
  1  'x, y, z'
loop_
 _atom_site_type_symbol
 _atom_site_label
 _atom_site_symmetry_multiplicity
 _atom_site_fract_x
 _atom_site_fract_y
 _atom_site_fract_z
 _atom_site_occupancy
  Yb  Yb0  1  0.13043800  0.87240600  0.25510500  1
  Yb  Yb1  1  0.86956200  0.87240600  0.74489500  1
  Yb  Yb2  1  0.63043800  0.37240600  0.25510500  1
  Yb  Yb3  1  0.36956200  0.37240600  0.74489500  1
  Ga  Ga4  1  0.70585750  0.13506450  0.12448800  1
  Ga  Ga5  1  0.72019250  0.84886150  0.16047500  1
  Ga  Ga6  1  0.45395700  0.20128300  0.16959200  1
  Ga  Ga7  1  0.25458600  0.08568800  0.25266300  1
  Ga  Ga8  1  0.54182200  0.71222400  0.33733600  1
  Ga  Ga9  1  0.85512550  0.01806250  0.42689700  1
  Ga  Ga10  1  0.14487450  0.01806250  0.57310300  1
  Ga  Ga11  1  0.45817800  0.71222400  0.66266400  1
  Ga  Ga12  1  0.74541400  0.08568800  0.74733700  1
  Ga  Ga13  1  0.54604300  0.20128300  0.83040800  1
  Ga  Ga14  1  0.27980750  0.84886150  0.83952500  1
  Ga  Ga15  1  0.29414250  0.13506450  0.87551200  1
  Ga  Ga16  1  0.20585750  0.63506450  0.12448800  1
  Ga  Ga17  1  0.22019250  0.34886150  0.16047500  1
  Ga  Ga18  1  0.95395700  0.70128300  0.16959200  1
  Ga  Ga19  1  0.75458600  0.58568800  0.25266300  1
  Ga  Ga20  1  0.04182200  0.21222400  0.33733600  1
  Ga  Ga21  1  0.35512550  0.51806250  0.42689700  1
  Ga  Ga22  1  0.64487450  0.51806250  0.57310300  1
  Ga  Ga23  1  0.95817800  0.21222400  0.66266400  1
  Ga  Ga24  1  0.24541400  0.58568800  0.74733700  1
  Ga  Ga25  1  0.04604300  0.70128300  0.83040800  1
  Ga  Ga26  1  0.77980750  0.34886150  0.83952500  1
  Ga  Ga27  1  0.79414250  0.63506450  0.87551200  1
  Te  Te28  1  0.50000000  0.32968500  0.00000000  1
  Te  Te29  1  0.37970550  0.04990050  0.06873300  1
  Te  Te30  1  0.29130050  0.79127050  0.08314800  1
  Te  Te31  1  0.08721250  0.08372650  0.16881500  1
  Te  Te32  1  0.82765900  0.99967100  0.17100600  1
  Te  Te33  1  0.55916500  0.87795700  0.25242300  1
  Te  Te34  1  0.59189950  0.16020150  0.31848800  1
  Te  Te35  1  0.31881100  0.24999400  0.32758900  1
  Te  Te36  1  0.37194600  0.69860200  0.43127100  1
  Te  Te37  1  0.28404150  0.96331150  0.43413200  1
  Te  Te38  1  0.50000000  0.41814700  0.50000000  1
  Te  Te39  1  0.71595850  0.96331150  0.56586800  1
  Te  Te40  1  0.62805400  0.69860200  0.56872900  1
  Te  Te41  1  0.68118900  0.24999400  0.67241100  1
  Te  Te42  1  0.40810050  0.16020150  0.68151200  1
  Te  Te43  1  0.44083500  0.87795700  0.74757700  1
  Te  Te44  1  0.91278750  0.08372650  0.83118500  1
  Te  Te45  1  0.17234100  0.99967100  0.82899400  1
  Te  Te46  1  0.70869950  0.79127050  0.91685200  1
  Te  Te47  1  0.62029450  0.04990050  0.93126700  1
  Te  Te48  1  0.00000000  0.82968500  0.00000000  1
  Te  Te49  1  0.87970550  0.54990050  0.06873300  1
  Te  Te50  1  0.79130050  0.29127050  0.08314800  1
  Te  Te51  1  0.58721250  0.58372650  0.16881500  1
  Te  Te52  1  0.32765900  0.49967100  0.17100600  1
  Te  Te53  1  0.05916500  0.37795700  0.25242300  1
  Te  Te54  1  0.09189950  0.66020150  0.31848800  1
  Te  Te55  1  0.81881100  0.74999400  0.32758900  1
  Te  Te56  1  0.87194600  0.19860200  0.43127100  1
  Te  Te57  1  0.78404150  0.46331150  0.43413200  1
  Te  Te58  1  0.00000000  0.91814700  0.50000000  1
  Te  Te59  1  0.21595850  0.46331150  0.56586800  1
  Te  Te60  1  0.12805400  0.19860200  0.56872900  1
  Te  Te61  1  0.18118900  0.74999400  0.67241100  1
  Te  Te62  1  0.90810050  0.66020150  0.68151200  1
  Te  Te63  1  0.94083500  0.37795700  0.74757700  1
  Te  Te64  1  0.41278750  0.58372650  0.83118500  1
  Te  Te65  1  0.67234100  0.49967100  0.82899400  1
  Te  Te66  1  0.20869950  0.29127050  0.91685200  1
  Te  Te67  1  0.12029450  0.54990050  0.93126700  1
