# generated using pymatgen
data_Cs4Sb14S23
_symmetry_space_group_name_H-M   'P 1'
_cell_length_a   12.24768200
_cell_length_b   14.39536782
_cell_length_c   15.08294575
_cell_angle_alpha   93.56290057
_cell_angle_beta   94.56028289
_cell_angle_gamma   110.06878934
_symmetry_Int_Tables_number   1
_chemical_formula_structural   Cs4Sb14S23
_chemical_formula_sum   'Cs8 Sb28 S46'
_cell_volume   2478.51469291
_cell_formula_units_Z   2
loop_
 _symmetry_equiv_pos_site_id
 _symmetry_equiv_pos_as_xyz
  1  'x, y, z'
loop_
 _atom_site_type_symbol
 _atom_site_label
 _atom_site_symmetry_multiplicity
 _atom_site_fract_x
 _atom_site_fract_y
 _atom_site_fract_z
 _atom_site_occupancy
  Cs  Cs0  1  0.35637700  0.26686300  0.02116300  1
  Cs  Cs1  1  0.84050800  0.24023200  0.00751400  1
  Cs  Cs2  1  0.64362300  0.73313700  0.97883700  1
  Cs  Cs3  1  0.24561000  0.97248400  0.71843800  1
  Cs  Cs4  1  0.26160600  0.00490600  0.43131900  1
  Cs  Cs5  1  0.73839400  0.99509400  0.56868100  1
  Cs  Cs6  1  0.75439000  0.02751600  0.28156200  1
  Cs  Cs7  1  0.15949200  0.75976800  0.99248600  1
  Sb  Sb8  1  0.60596900  0.61388700  0.28952700  1
  Sb  Sb9  1  0.41530700  0.70613500  0.71458800  1
  Sb  Sb10  1  0.58586200  0.23475400  0.78066600  1
  Sb  Sb11  1  0.91022600  0.77393000  0.22640400  1
  Sb  Sb12  1  0.39454800  0.02789900  0.19313200  1
  Sb  Sb13  1  0.08977400  0.22607000  0.77359600  1
  Sb  Sb14  1  0.08892100  0.30457500  0.27932600  1
  Sb  Sb15  1  0.41413800  0.76524600  0.21933400  1
  Sb  Sb16  1  0.89028300  0.37235900  0.70681200  1
  Sb  Sb17  1  0.88452400  0.38904100  0.40844100  1
  Sb  Sb18  1  0.76467200  0.47374200  0.11907800  1
  Sb  Sb19  1  0.10971700  0.62764100  0.29318800  1
  Sb  Sb20  1  0.11054400  0.04400300  0.19493700  1
  Sb  Sb21  1  0.61973600  0.62121200  0.58782800  1
  Sb  Sb22  1  0.40479600  0.71699300  0.45957000  1
  Sb  Sb23  1  0.58469300  0.29386500  0.28541200  1
  Sb  Sb24  1  0.90381600  0.71724700  0.46705800  1
  Sb  Sb25  1  0.11547600  0.61095900  0.59155900  1
  Sb  Sb26  1  0.23532800  0.52625800  0.88092200  1
  Sb  Sb27  1  0.88945600  0.95599700  0.80506300  1
  Sb  Sb28  1  0.74509300  0.52275200  0.88440300  1
  Sb  Sb29  1  0.39403100  0.38611300  0.71047300  1
  Sb  Sb30  1  0.60545200  0.97210100  0.80686800  1
  Sb  Sb31  1  0.38026400  0.37878800  0.41217200  1
  Sb  Sb32  1  0.59520400  0.28300700  0.54043000  1
  Sb  Sb33  1  0.09618400  0.28275300  0.53294200  1
  Sb  Sb34  1  0.91107900  0.69542500  0.72067400  1
  Sb  Sb35  1  0.25490700  0.47724800  0.11559700  1
  S  S36  1  0.38401800  0.25729600  0.52779700  1
  S  S37  1  0.40813800  0.54824100  0.57509300  1
  S  S38  1  0.62769800  0.74441100  0.72282100  1
  S  S39  1  0.88537400  0.25618500  0.51645600  1
  S  S40  1  0.55743500  0.16624300  0.15101700  1
  S  S41  1  0.90347200  0.53737100  0.57585500  1
  S  S42  1  0.42114300  0.50346200  0.84995100  1
  S  S43  1  0.91986600  0.82383500  0.61444300  1
  S  S44  1  0.61598200  0.74270400  0.47220300  1
  S  S45  1  0.76636800  0.97897100  0.92406400  1
  S  S46  1  0.44256500  0.83375700  0.84898300  1
  S  S47  1  0.57885700  0.49653800  0.15004900  1
  S  S48  1  0.11955700  0.71622400  0.73721200  1
  S  S49  1  0.93455200  0.86697400  0.37841100  1
  S  S50  1  0.89785400  0.57513200  0.29879600  1
  S  S51  1  0.45280600  0.86775400  0.36839100  1
  S  S52  1  0.85637800  0.61891200  0.03875700  1
  S  S53  1  0.46547200  0.90679200  0.11835000  1
  S  S54  1  0.61418800  0.76765200  0.20890900  1
  S  S55  1  0.41195200  0.82646000  0.60231300  1
  S  S56  1  0.35001000  0.62159600  0.03472000  1
  S  S57  1  0.14362200  0.38108800  0.96124300  1
  S  S58  1  0.06544800  0.13302600  0.62158900  1
  S  S59  1  0.58804800  0.17354000  0.39768700  1
  S  S60  1  0.06130700  0.18220600  0.13780500  1
  S  S61  1  0.88244100  0.20799400  0.77560800  1
  S  S62  1  0.92152900  0.91908700  0.13646800  1
  S  S63  1  0.09652800  0.46262900  0.42414500  1
  S  S64  1  0.10214600  0.42486800  0.70120400  1
  S  S65  1  0.93869300  0.81779400  0.86219500  1
  S  S66  1  0.07847100  0.08091300  0.86353200  1
  S  S67  1  0.38581200  0.23234800  0.79109100  1
  S  S68  1  0.23363200  0.02102900  0.07593600  1
  S  S69  1  0.60579500  0.43284300  0.70536000  1
  S  S70  1  0.54719400  0.13224600  0.63160900  1
  S  S71  1  0.59186200  0.45175900  0.42490700  1
  S  S72  1  0.53452800  0.09320800  0.88165000  1
  S  S73  1  0.11462600  0.74381500  0.48354400  1
  S  S74  1  0.08013400  0.17616500  0.38555700  1
  S  S75  1  0.07894200  0.51314800  0.14971100  1
  S  S76  1  0.11755900  0.79200600  0.22439200  1
  S  S77  1  0.39420500  0.56715700  0.29464000  1
  S  S78  1  0.64999000  0.37840400  0.96528000  1
  S  S79  1  0.92105800  0.48685200  0.85028900  1
  S  S80  1  0.37230200  0.25558900  0.27717900  1
  S  S81  1  0.88044300  0.28377600  0.26278800  1
