# generated using pymatgen
data_Zr2H16SN3(O2F3)3
_symmetry_space_group_name_H-M   'P 1'
_cell_length_a   12.36766400
_cell_length_b   10.27593200
_cell_length_c   12.30338767
_cell_angle_alpha   90.00000000
_cell_angle_beta   117.52163685
_cell_angle_gamma   90.00000000
_symmetry_Int_Tables_number   1
_chemical_formula_structural   Zr2H16SN3(O2F3)3
_chemical_formula_sum   'Zr8 H64 S4 N12 O24 F36'
_cell_volume   1386.68276370
_cell_formula_units_Z   4
loop_
 _symmetry_equiv_pos_site_id
 _symmetry_equiv_pos_as_xyz
  1  'x, y, z'
loop_
 _atom_site_type_symbol
 _atom_site_label
 _atom_site_symmetry_multiplicity
 _atom_site_fract_x
 _atom_site_fract_y
 _atom_site_fract_z
 _atom_site_occupancy
  Zr  Zr0  1  0.43630300  0.67977300  0.61144400  1
  Zr  Zr1  1  0.93630300  0.82022700  0.61144400  1
  Zr  Zr2  1  0.06369700  0.82022700  0.38855600  1
  Zr  Zr3  1  0.56369700  0.67977300  0.38855600  1
  Zr  Zr4  1  0.93630300  0.17977300  0.61144400  1
  Zr  Zr5  1  0.43630300  0.32022700  0.61144400  1
  Zr  Zr6  1  0.56369700  0.32022700  0.38855600  1
  Zr  Zr7  1  0.06369700  0.17977300  0.38855600  1
  H  H8  1  0.83121500  0.79827300  0.15138900  1
  H  H9  1  0.33121500  0.70172700  0.15138900  1
  H  H10  1  0.66878500  0.70172700  0.84861100  1
  H  H11  1  0.16878500  0.79827300  0.84861100  1
  H  H12  1  0.40460050  0.15905050  0.18331000  1
  H  H13  1  0.40460050  0.84094950  0.18331000  1
  H  H14  1  0.09539950  0.34094950  0.81669000  1
  H  H15  1  0.09539950  0.65905050  0.81669000  1
  H  H16  1  0.95783100  0.23395200  0.92315500  1
  H  H17  1  0.95783100  0.76604800  0.92315500  1
  H  H18  1  0.54216900  0.26604800  0.07684500  1
  H  H19  1  0.54216900  0.73395200  0.07684500  1
  H  H20  1  0.43332600  0.61904000  0.00595400  1
  H  H21  1  0.43332600  0.38096000  0.00595400  1
  H  H22  1  0.06667400  0.88096000  0.99404600  1
  H  H23  1  0.06667400  0.11904000  0.99404600  1
  H  H24  1  0.75335200  0.41889700  0.69208000  1
  H  H25  1  0.75335200  0.58110300  0.69208000  1
  H  H26  1  0.74664800  0.08110300  0.30792000  1
  H  H27  1  0.74664800  0.91889700  0.30792000  1
  H  H28  1  0.85821500  0.50000000  0.66718700  1
  H  H29  1  0.64178500  0.00000000  0.33281300  1
  H  H30  1  0.86545900  0.50000000  0.80838400  1
  H  H31  1  0.63454100  0.00000000  0.19161600  1
  H  H32  1  0.09599500  0.50000000  0.65962900  1
  H  H33  1  0.40400500  0.00000000  0.34037100  1
  H  H34  1  0.22460150  0.58147450  0.68031300  1
  H  H35  1  0.72460150  0.91852550  0.68031300  1
  H  H36  1  0.27539850  0.91852550  0.31968700  1
  H  H37  1  0.77539850  0.58147450  0.31968700  1
  H  H38  1  0.63920400  0.00000000  0.55014900  1
  H  H39  1  0.86079600  0.50000000  0.44985100  1
  H  H40  1  0.33121500  0.29827300  0.15138900  1
  H  H41  1  0.83121500  0.20172700  0.15138900  1
  H  H42  1  0.16878500  0.20172700  0.84861100  1
  H  H43  1  0.66878500  0.29827300  0.84861100  1
  H  H44  1  0.90460050  0.65905050  0.18331000  1
  H  H45  1  0.90460050  0.34094950  0.18331000  1
  H  H46  1  0.59539950  0.84094950  0.81669000  1
  H  H47  1  0.59539950  0.15905050  0.81669000  1
  H  H48  1  0.45783100  0.73395200  0.92315500  1
  H  H49  1  0.45783100  0.26604800  0.92315500  1
  H  H50  1  0.04216900  0.76604800  0.07684500  1
  H  H51  1  0.04216900  0.23395200  0.07684500  1
  H  H52  1  0.93332600  0.11904000  0.00595400  1
  H  H53  1  0.93332600  0.88096000  0.00595400  1
  H  H54  1  0.56667400  0.38096000  0.99404600  1
  H  H55  1  0.56667400  0.61904000  0.99404600  1
  H  H56  1  0.25335200  0.91889700  0.69208000  1
  H  H57  1  0.25335200  0.08110300  0.69208000  1
  H  H58  1  0.24664800  0.58110300  0.30792000  1
  H  H59  1  0.24664800  0.41889700  0.30792000  1
  H  H60  1  0.35821500  0.00000000  0.66718700  1
  H  H61  1  0.14178500  0.50000000  0.33281300  1
  H  H62  1  0.36545900  0.00000000  0.80838400  1
  H  H63  1  0.13454100  0.50000000  0.19161600  1
  H  H64  1  0.59599500  0.00000000  0.65962900  1
  H  H65  1  0.90400500  0.50000000  0.34037100  1
  H  H66  1  0.72460150  0.08147450  0.68031300  1
  H  H67  1  0.22460150  0.41852550  0.68031300  1
  H  H68  1  0.77539850  0.41852550  0.31968700  1
  H  H69  1  0.27539850  0.08147450  0.31968700  1
  H  H70  1  0.13920400  0.50000000  0.55014900  1
  H  H71  1  0.36079600  0.00000000  0.44985100  1
  S  S72  1  0.71168900  0.00000000  0.00151400  1
  S  S73  1  0.78831100  0.50000000  0.99848600  1
  S  S74  1  0.21168900  0.50000000  0.00151400  1
  S  S75  1  0.28831100  0.00000000  0.99848600  1
  N  N76  1  0.00000000  0.82289300  0.00000000  1
  N  N77  1  0.00000000  0.17710700  0.00000000  1
  N  N78  1  0.80902100  0.50000000  0.71584000  1
  N  N79  1  0.69097900  0.00000000  0.28416000  1
  N  N80  1  0.82917800  0.50000000  0.35623300  1
  N  N81  1  0.67082200  0.00000000  0.64376700  1
  N  N82  1  0.50000000  0.32289300  0.00000000  1
  N  N83  1  0.50000000  0.67710700  0.00000000  1
  N  N84  1  0.30902100  0.00000000  0.71584000  1
  N  N85  1  0.19097900  0.50000000  0.28416000  1
  N  N86  1  0.32917800  0.00000000  0.35623300  1
  N  N87  1  0.17082200  0.50000000  0.64376700  1
  O  O88  1  0.70390750  0.11881350  0.06664100  1
  O  O89  1  0.70390750  0.88118650  0.06664100  1
  O  O90  1  0.79609250  0.38118650  0.93335900  1
  O  O91  1  0.79609250  0.61881350  0.93335900  1
  O  O92  1  0.17235400  0.00000000  0.00839200  1
  O  O93  1  0.32764600  0.50000000  0.99160800  1
  O  O94  1  0.39412500  0.00000000  0.12693000  1
  O  O95  1  0.10587500  0.50000000  0.87307000  1
  O  O96  1  0.90681400  0.75076100  0.21045200  1
  O  O97  1  0.40681400  0.74923900  0.21045200  1
  O  O98  1  0.59318600  0.74923900  0.78954800  1
  O  O99  1  0.09318600  0.75076100  0.78954800  1
  O  O100  1  0.20390750  0.61881350  0.06664100  1
  O  O101  1  0.20390750  0.38118650  0.06664100  1
  O  O102  1  0.29609250  0.88118650  0.93335900  1
  O  O103  1  0.29609250  0.11881350  0.93335900  1
  O  O104  1  0.67235400  0.50000000  0.00839200  1
  O  O105  1  0.82764600  0.00000000  0.99160800  1
  O  O106  1  0.89412500  0.50000000  0.12693000  1
  O  O107  1  0.60587500  0.00000000  0.87307000  1
  O  O108  1  0.40681400  0.25076100  0.21045200  1
  O  O109  1  0.90681400  0.24923900  0.21045200  1
  O  O110  1  0.09318600  0.24923900  0.78954800  1
  O  O111  1  0.59318600  0.25076100  0.78954800  1
  F  F112  1  0.96853100  0.00000000  0.29797100  1
  F  F113  1  0.53146900  0.50000000  0.70202900  1
  F  F114  1  0.66921300  0.50000000  0.46367000  1
  F  F115  1  0.83078700  0.00000000  0.53633000  1
  F  F116  1  0.63694000  0.32044100  0.27065800  1
  F  F117  1  0.63694000  0.67955900  0.27065800  1
  F  F118  1  0.86306000  0.17955900  0.72934200  1
  F  F119  1  0.86306000  0.82044100  0.72934200  1
  F  F120  1  0.10014400  0.83060900  0.58242800  1
  F  F121  1  0.60014400  0.66939100  0.58242800  1
  F  F122  1  0.39985600  0.66939100  0.41757200  1
  F  F123  1  0.89985600  0.83060900  0.41757200  1
  F  F124  1  0.55122900  0.12658000  0.40142900  1
  F  F125  1  0.55122900  0.87342000  0.40142900  1
  F  F126  1  0.94877100  0.37342000  0.59857100  1
  F  F127  1  0.94877100  0.62658000  0.59857100  1
  F  F128  1  0.75000000  0.25000000  0.50000000  1
  F  F129  1  0.75000000  0.75000000  0.50000000  1
  F  F130  1  0.46853100  0.50000000  0.29797100  1
  F  F131  1  0.03146900  0.00000000  0.70202900  1
  F  F132  1  0.16921300  0.00000000  0.46367000  1
  F  F133  1  0.33078700  0.50000000  0.53633000  1
  F  F134  1  0.13694000  0.82044100  0.27065800  1
  F  F135  1  0.13694000  0.17955900  0.27065800  1
  F  F136  1  0.36306000  0.67955900  0.72934200  1
  F  F137  1  0.36306000  0.32044100  0.72934200  1
  F  F138  1  0.60014400  0.33060900  0.58242800  1
  F  F139  1  0.10014400  0.16939100  0.58242800  1
  F  F140  1  0.89985600  0.16939100  0.41757200  1
  F  F141  1  0.39985600  0.33060900  0.41757200  1
  F  F142  1  0.05122900  0.62658000  0.40142900  1
  F  F143  1  0.05122900  0.37342000  0.40142900  1
  F  F144  1  0.44877100  0.87342000  0.59857100  1
  F  F145  1  0.44877100  0.12658000  0.59857100  1
  F  F146  1  0.25000000  0.75000000  0.50000000  1
  F  F147  1  0.25000000  0.25000000  0.50000000  1
