# generated using pymatgen
data_Lu2Se3
_symmetry_space_group_name_H-M   'P 1'
_cell_length_a   8.57689600
_cell_length_b   8.57689600
_cell_length_c   25.69885800
_cell_angle_alpha   90.00000000
_cell_angle_beta   90.00000000
_cell_angle_gamma   90.00000000
_symmetry_Int_Tables_number   1
_chemical_formula_structural   Lu2Se3
_chemical_formula_sum   'Lu32 Se48'
_cell_volume   1890.48881726
_cell_formula_units_Z   16
loop_
 _symmetry_equiv_pos_site_id
 _symmetry_equiv_pos_as_xyz
  1  'x, y, z'
loop_
 _atom_site_type_symbol
 _atom_site_label
 _atom_site_symmetry_multiplicity
 _atom_site_fract_x
 _atom_site_fract_y
 _atom_site_fract_z
 _atom_site_occupancy
  Lu  Lu0  1  0.25979450  0.13304850  0.03994550  1
  Lu  Lu1  1  0.00000000  0.50000000  0.08154050  1
  Lu  Lu2  1  0.61619750  0.25000000  0.12500000  1
  Lu  Lu3  1  0.00000000  0.00000000  0.16845950  1
  Lu  Lu4  1  0.74020550  0.63304850  0.21005450  1
  Lu  Lu5  1  0.25979450  0.36695150  0.21005450  1
  Lu  Lu6  1  0.38380250  0.75000000  0.12500000  1
  Lu  Lu7  1  0.13304850  0.75979450  0.28994550  1
  Lu  Lu8  1  0.50000000  0.50000000  0.33154050  1
  Lu  Lu9  1  0.25000000  0.11619750  0.37500000  1
  Lu  Lu10  1  0.75000000  0.88380250  0.37500000  1
  Lu  Lu11  1  0.86695150  0.24020550  0.28994550  1
  Lu  Lu12  1  0.00000000  0.50000000  0.41845950  1
  Lu  Lu13  1  0.63304850  0.24020550  0.46005450  1
  Lu  Lu14  1  0.74020550  0.86695150  0.03994550  1
  Lu  Lu15  1  0.36695150  0.75979450  0.46005450  1
  Lu  Lu16  1  0.75979450  0.63304850  0.53994550  1
  Lu  Lu17  1  0.50000000  0.00000000  0.58154050  1
  Lu  Lu18  1  0.11619750  0.75000000  0.62500000  1
  Lu  Lu19  1  0.50000000  0.50000000  0.66845950  1
  Lu  Lu20  1  0.24020550  0.13304850  0.71005450  1
  Lu  Lu21  1  0.75979450  0.86695150  0.71005450  1
  Lu  Lu22  1  0.88380250  0.25000000  0.62500000  1
  Lu  Lu23  1  0.63304850  0.25979450  0.78994550  1
  Lu  Lu24  1  0.00000000  0.00000000  0.83154050  1
  Lu  Lu25  1  0.75000000  0.61619750  0.87500000  1
  Lu  Lu26  1  0.25000000  0.38380250  0.87500000  1
  Lu  Lu27  1  0.36695150  0.74020550  0.78994550  1
  Lu  Lu28  1  0.50000000  0.00000000  0.91845950  1
  Lu  Lu29  1  0.13304850  0.74020550  0.96005450  1
  Lu  Lu30  1  0.24020550  0.36695150  0.53994550  1
  Lu  Lu31  1  0.86695150  0.25979450  0.96005450  1
  Se  Se32  1  0.31574450  0.43249150  0.10474950  1
  Se  Se33  1  0.93585600  0.18117000  0.06470300  1
  Se  Se34  1  0.06414400  0.81883000  0.06470300  1
  Se  Se35  1  0.93585600  0.31883000  0.18529700  1
  Se  Se36  1  0.06414400  0.68117000  0.18529700  1
  Se  Se37  1  0.31574450  0.06750850  0.14525050  1
  Se  Se38  1  0.68425550  0.56750850  0.10474950  1
  Se  Se39  1  0.68425550  0.93249150  0.14525050  1
  Se  Se40  1  0.82316350  0.92065750  0.26821850  1
  Se  Se41  1  0.42065750  0.67683650  0.23178150  1
  Se  Se42  1  0.57934250  0.32316350  0.23178150  1
  Se  Se43  1  0.43249150  0.81574450  0.35474950  1
  Se  Se44  1  0.56750850  0.18425550  0.35474950  1
  Se  Se45  1  0.17683650  0.07934250  0.26821850  1
  Se  Se46  1  0.81883000  0.56414400  0.31470300  1
  Se  Se47  1  0.18117000  0.43585600  0.31470300  1
  Se  Se48  1  0.31883000  0.43585600  0.43529700  1
  Se  Se49  1  0.93249150  0.18425550  0.39525050  1
  Se  Se50  1  0.06750850  0.81574450  0.39525050  1
  Se  Se51  1  0.42065750  0.82316350  0.01821850  1
  Se  Se52  1  0.57934250  0.17683650  0.01821850  1
  Se  Se53  1  0.68117000  0.56414400  0.43529700  1
  Se  Se54  1  0.32316350  0.07934250  0.48178150  1
  Se  Se55  1  0.67683650  0.92065750  0.48178150  1
  Se  Se56  1  0.81574450  0.93249150  0.60474950  1
  Se  Se57  1  0.43585600  0.68117000  0.56470300  1
  Se  Se58  1  0.56414400  0.31883000  0.56470300  1
  Se  Se59  1  0.43585600  0.81883000  0.68529700  1
  Se  Se60  1  0.56414400  0.18117000  0.68529700  1
  Se  Se61  1  0.81574450  0.56750850  0.64525050  1
  Se  Se62  1  0.18425550  0.06750850  0.60474950  1
  Se  Se63  1  0.18425550  0.43249150  0.64525050  1
  Se  Se64  1  0.32316350  0.42065750  0.76821850  1
  Se  Se65  1  0.92065750  0.17683650  0.73178150  1
  Se  Se66  1  0.07934250  0.82316350  0.73178150  1
  Se  Se67  1  0.93249150  0.31574450  0.85474950  1
  Se  Se68  1  0.06750850  0.68425550  0.85474950  1
  Se  Se69  1  0.67683650  0.57934250  0.76821850  1
  Se  Se70  1  0.31883000  0.06414400  0.81470300  1
  Se  Se71  1  0.68117000  0.93585600  0.81470300  1
  Se  Se72  1  0.81883000  0.93585600  0.93529700  1
  Se  Se73  1  0.43249150  0.68425550  0.89525050  1
  Se  Se74  1  0.56750850  0.31574450  0.89525050  1
  Se  Se75  1  0.92065750  0.32316350  0.51821850  1
  Se  Se76  1  0.07934250  0.67683650  0.51821850  1
  Se  Se77  1  0.18117000  0.06414400  0.93529700  1
  Se  Se78  1  0.82316350  0.57934250  0.98178150  1
  Se  Se79  1  0.17683650  0.42065750  0.98178150  1
