# generated using pymatgen
data_HfP2(H3O5)2
_symmetry_space_group_name_H-M   'P 1'
_cell_length_a   5.41369200
_cell_length_b   6.63638300
_cell_length_c   12.53117783
_cell_angle_alpha   90.00000000
_cell_angle_beta   98.92555029
_cell_angle_gamma   90.00000000
_symmetry_Int_Tables_number   1
_chemical_formula_structural   HfP2(H3O5)2
_chemical_formula_sum   'Hf2 P4 H12 O20'
_cell_volume   444.76009048
_cell_formula_units_Z   2
loop_
 _symmetry_equiv_pos_site_id
 _symmetry_equiv_pos_as_xyz
  1  'x, y, z'
loop_
 _atom_site_type_symbol
 _atom_site_label
 _atom_site_symmetry_multiplicity
 _atom_site_fract_x
 _atom_site_fract_y
 _atom_site_fract_z
 _atom_site_occupancy
  Hf  Hf0  1  0.79940300  0.75020700  0.12516300  1
  Hf  Hf1  1  0.20059700  0.25020700  0.87483700  1
  P  P2  1  0.24014100  0.75068500  0.94168300  1
  P  P3  1  0.75985900  0.25068500  0.05831700  1
  P  P4  1  0.34743400  0.67192300  0.30159200  1
  P  P5  1  0.65256600  0.17192300  0.69840800  1
  H  H6  1  0.48893400  0.35572000  0.32693400  1
  H  H7  1  0.51106600  0.85572000  0.67306600  1
  H  H8  1  0.59621000  0.71319900  0.44950000  1
  H  H9  1  0.40379000  0.21319900  0.55050000  1
  H  H10  1  0.16681700  0.68656900  0.71087900  1
  H  H11  1  0.83318300  0.18656900  0.28912100  1
  H  H12  1  0.95218500  0.67130000  0.40141200  1
  H  H13  1  0.04781500  0.17130000  0.59858800  1
  H  H14  1  0.13288500  0.84694400  0.61563000  1
  H  H15  1  0.86711500  0.34694400  0.38437000  1
  H  H16  1  0.00875300  0.11105300  0.47524900  1
  H  H17  1  0.99124700  0.61105300  0.52475100  1
  O  O18  1  0.06040400  0.74871800  0.02607100  1
  O  O19  1  0.93959600  0.24871800  0.97392900  1
  O  O20  1  0.19476500  0.56406200  0.86701200  1
  O  O21  1  0.80523500  0.06406200  0.13298800  1
  O  O22  1  0.19591900  0.94018900  0.87092400  1
  O  O23  1  0.80408100  0.44018900  0.12907600  1
  O  O24  1  0.51250000  0.74897200  0.00047800  1
  O  O25  1  0.48750000  0.24897200  0.99952200  1
  O  O26  1  0.07923300  0.74420600  0.26610900  1
  O  O27  1  0.92076700  0.24420600  0.73389100  1
  O  O28  1  0.53753200  0.73833200  0.23083800  1
  O  O29  1  0.46246800  0.23833200  0.76916200  1
  O  O30  1  0.33058000  0.43414600  0.30718000  1
  O  O31  1  0.66942000  0.93414600  0.69282000  1
  O  O32  1  0.42258800  0.76055000  0.41875200  1
  O  O33  1  0.57741200  0.26055000  0.58124800  1
  O  O34  1  0.20892200  0.71572400  0.63892900  1
  O  O35  1  0.79107800  0.21572400  0.36107100  1
  O  O36  1  0.12570500  0.09750100  0.54429900  1
  O  O37  1  0.87429500  0.59750100  0.45570100  1
