# generated using pymatgen
data_Li3Mn2O4
_symmetry_space_group_name_H-M   'P 1'
_cell_length_a   8.39255000
_cell_length_b   8.43084600
_cell_length_c   6.37386655
_cell_angle_alpha   90.00000000
_cell_angle_beta   131.05174046
_cell_angle_gamma   90.00000000
_symmetry_Int_Tables_number   1
_chemical_formula_structural   Li3Mn2O4
_chemical_formula_sum   'Li12 Mn8 O16'
_cell_volume   340.10004548
_cell_formula_units_Z   4
loop_
 _symmetry_equiv_pos_site_id
 _symmetry_equiv_pos_as_xyz
  1  'x, y, z'
loop_
 _atom_site_type_symbol
 _atom_site_label
 _atom_site_symmetry_multiplicity
 _atom_site_fract_x
 _atom_site_fract_y
 _atom_site_fract_z
 _atom_site_occupancy
  Li  Li0  1  0.50000000  0.63396600  0.25000000  1
  Li  Li1  1  0.00000000  0.00000000  0.00000000  1
  Li  Li2  1  0.00000000  0.00000000  0.50000000  1
  Li  Li3  1  0.25000000  0.25000000  0.50000000  1
  Li  Li4  1  0.50000000  0.36603400  0.75000000  1
  Li  Li5  1  0.25000000  0.75000000  0.00000000  1
  Li  Li6  1  0.00000000  0.13396600  0.25000000  1
  Li  Li7  1  0.50000000  0.50000000  0.00000000  1
  Li  Li8  1  0.50000000  0.50000000  0.50000000  1
  Li  Li9  1  0.75000000  0.75000000  0.50000000  1
  Li  Li10  1  0.00000000  0.86603400  0.75000000  1
  Li  Li11  1  0.75000000  0.25000000  0.00000000  1
  Mn  Mn12  1  0.25000000  0.25000000  0.00000000  1
  Mn  Mn13  1  0.50000000  0.00000000  0.00000000  1
  Mn  Mn14  1  0.50000000  0.00000000  0.50000000  1
  Mn  Mn15  1  0.25000000  0.75000000  0.50000000  1
  Mn  Mn16  1  0.75000000  0.75000000  0.00000000  1
  Mn  Mn17  1  0.00000000  0.50000000  0.00000000  1
  Mn  Mn18  1  0.00000000  0.50000000  0.50000000  1
  Mn  Mn19  1  0.75000000  0.25000000  0.50000000  1
  O  O20  1  0.49653100  0.23610100  0.50339400  1
  O  O21  1  0.24733850  0.00602050  0.47068800  1
  O  O22  1  0.75266150  0.00602050  0.02931200  1
  O  O23  1  0.49653100  0.76389900  0.00339400  1
  O  O24  1  0.24733850  0.99397950  0.97068800  1
  O  O25  1  0.50346900  0.23610100  0.99660600  1
  O  O26  1  0.50346900  0.76389900  0.49660600  1
  O  O27  1  0.75266150  0.99397950  0.52931200  1
  O  O28  1  0.99653100  0.73610100  0.50339400  1
  O  O29  1  0.74733850  0.50602050  0.47068800  1
  O  O30  1  0.25266150  0.50602050  0.02931200  1
  O  O31  1  0.99653100  0.26389900  0.00339400  1
  O  O32  1  0.74733850  0.49397950  0.97068800  1
  O  O33  1  0.00346900  0.73610100  0.99660600  1
  O  O34  1  0.00346900  0.26389900  0.49660600  1
  O  O35  1  0.25266150  0.49397950  0.52931200  1
