# generated using pymatgen
data_Sc(HO)3
_symmetry_space_group_name_H-M   'P 1'
_cell_length_a   11.15854599
_cell_length_b   11.15854599
_cell_length_c   6.91301810
_cell_angle_alpha   90.00000000
_cell_angle_beta   90.00000000
_cell_angle_gamma   120.00000000
_symmetry_Int_Tables_number   1
_chemical_formula_structural   Sc(HO)3
_chemical_formula_sum   'Sc12 H36 O36'
_cell_volume   745.44145502
_cell_formula_units_Z   12
loop_
 _symmetry_equiv_pos_site_id
 _symmetry_equiv_pos_as_xyz
  1  'x, y, z'
loop_
 _atom_site_type_symbol
 _atom_site_label
 _atom_site_symmetry_multiplicity
 _atom_site_fract_x
 _atom_site_fract_y
 _atom_site_fract_z
 _atom_site_occupancy
  Sc  Sc0  1  0.83333333  0.16666667  0.16666667  1
  Sc  Sc1  1  0.33333333  0.16666667  0.16666667  1
  Sc  Sc2  1  0.00000000  0.00000000  0.50000000  1
  Sc  Sc3  1  0.83333333  0.66666667  0.16666667  1
  Sc  Sc4  1  0.50000000  0.50000000  0.50000000  1
  Sc  Sc5  1  0.00000000  0.50000000  0.50000000  1
  Sc  Sc6  1  0.66666667  0.33333333  0.83333333  1
  Sc  Sc7  1  0.50000000  0.00000000  0.50000000  1
  Sc  Sc8  1  0.16666667  0.83333333  0.83333333  1
  Sc  Sc9  1  0.66666667  0.83333333  0.83333333  1
  Sc  Sc10  1  0.33333333  0.66666667  0.16666667  1
  Sc  Sc11  1  0.16666667  0.33333333  0.83333333  1
  H  H12  1  0.20307600  0.75460100  0.49092700  1
  H  H13  1  0.79692400  0.24539900  0.50907300  1
  H  H14  1  0.96605267  0.20793133  0.58129533  1
  H  H15  1  0.03394733  0.79206867  0.41870467  1
  H  H16  1  0.24187867  0.03394733  0.58129533  1
  H  H17  1  0.75812133  0.96605267  0.41870467  1
  H  H18  1  0.55152500  0.79692400  0.49092700  1
  H  H19  1  0.44847500  0.20307600  0.50907300  1
  H  H20  1  0.20793133  0.24187867  0.41870467  1
  H  H21  1  0.79206867  0.75812133  0.58129533  1
  H  H22  1  0.75460100  0.55152500  0.50907300  1
  H  H23  1  0.24539900  0.44847500  0.49092700  1
  H  H24  1  0.86974267  0.08793433  0.82426033  1
  H  H25  1  0.46359067  0.57873233  0.84240633  1
  H  H26  1  0.63271933  0.54126467  0.91462867  1
  H  H27  1  0.70061400  0.12540200  0.75203800  1
  H  H28  1  0.90854533  0.36728067  0.91462867  1
  H  H29  1  0.42478800  0.29938600  0.75203800  1
  H  H30  1  0.21819167  0.13025733  0.82426033  1
  H  H31  1  0.11514167  0.53640933  0.84240633  1
  H  H32  1  0.87459800  0.57521200  0.75203800  1
  H  H33  1  0.45873533  0.09145467  0.91462867  1
  H  H34  1  0.42126767  0.88485833  0.84240633  1
  H  H35  1  0.91206567  0.78180833  0.82426033  1
  H  H36  1  0.53640933  0.42126767  0.15759367  1
  H  H37  1  0.13025733  0.91206567  0.17573967  1
  H  H38  1  0.29938600  0.87459800  0.24796200  1
  H  H39  1  0.36728067  0.45873533  0.08537133  1
  H  H40  1  0.57521200  0.70061400  0.24796200  1
  H  H41  1  0.09145467  0.63271933  0.08537133  1
  H  H42  1  0.88485833  0.46359067  0.15759367  1
  H  H43  1  0.78180833  0.86974267  0.17573967  1
  H  H44  1  0.54126467  0.90854533  0.08537133  1
  H  H45  1  0.12540200  0.42478800  0.24796200  1
  H  H46  1  0.08793433  0.21819167  0.17573967  1
  H  H47  1  0.57873233  0.11514167  0.15759367  1
  O  O48  1  0.11606133  0.71247967  0.57075867  1
  O  O49  1  0.88393867  0.28752033  0.42924133  1
  O  O50  1  0.00668600  0.16543600  0.66729900  1
  O  O51  1  0.99331400  0.83456400  0.33270100  1
  O  O52  1  0.15875000  0.99331400  0.66729900  1
  O  O53  1  0.84125000  0.00668600  0.33270100  1
  O  O54  1  0.59641833  0.88393867  0.57075867  1
  O  O55  1  0.40358167  0.11606133  0.42924133  1
  O  O56  1  0.16543600  0.15875000  0.33270100  1
  O  O57  1  0.83456400  0.84125000  0.66729900  1
  O  O58  1  0.71247967  0.59641833  0.42924133  1
  O  O59  1  0.28752033  0.40358167  0.57075867  1
  O  O60  1  0.78272800  0.04581300  0.90409200  1
  O  O61  1  0.55060533  0.62085367  0.76257467  1
  O  O62  1  0.67335267  0.49876933  0.00063233  1
  O  O63  1  0.65998067  0.16789733  0.66603433  1
  O  O64  1  0.82541667  0.32664733  0.00063233  1
  O  O65  1  0.50791667  0.34001933  0.66603433  1
  O  O66  1  0.26308500  0.21727200  0.90409200  1
  O  O67  1  0.07024833  0.44939467  0.76257467  1
  O  O68  1  0.83210267  0.49208333  0.66603433  1
  O  O69  1  0.50123067  0.17458333  0.00063233  1
  O  O70  1  0.37914633  0.92975167  0.76257467  1
  O  O71  1  0.95418700  0.73691500  0.90409200  1
  O  O72  1  0.44939467  0.37914633  0.23742533  1
  O  O73  1  0.21727200  0.95418700  0.09590800  1
  O  O74  1  0.34001933  0.83210267  0.33396567  1
  O  O75  1  0.32664733  0.50123067  0.99936767  1
  O  O76  1  0.49208333  0.65998067  0.33396567  1
  O  O77  1  0.17458333  0.67335267  0.99936767  1
  O  O78  1  0.92975167  0.55060533  0.23742533  1
  O  O79  1  0.73691500  0.78272800  0.09590800  1
  O  O80  1  0.49876933  0.82541667  0.99936767  1
  O  O81  1  0.16789733  0.50791667  0.33396567  1
  O  O82  1  0.04581300  0.26308500  0.09590800  1
  O  O83  1  0.62085367  0.07024833  0.23742533  1
