# generated using pymatgen
data_VBi(PbO3)2
_symmetry_space_group_name_H-M   'P 1'
_cell_length_a   5.80228200
_cell_length_b   10.09110900
_cell_length_c   12.39029100
_cell_angle_alpha   90.00000000
_cell_angle_beta   90.00000000
_cell_angle_gamma   90.00000000
_symmetry_Int_Tables_number   1
_chemical_formula_structural   VBi(PbO3)2
_chemical_formula_sum   'V4 Bi4 Pb8 O24'
_cell_volume   725.46962925
_cell_formula_units_Z   4
loop_
 _symmetry_equiv_pos_site_id
 _symmetry_equiv_pos_as_xyz
  1  'x, y, z'
loop_
 _atom_site_type_symbol
 _atom_site_label
 _atom_site_symmetry_multiplicity
 _atom_site_fract_x
 _atom_site_fract_y
 _atom_site_fract_z
 _atom_site_occupancy
  V  V0  1  0.25000000  0.47338800  0.20732400  1
  V  V1  1  0.75000000  0.97338800  0.29267600  1
  V  V2  1  0.75000000  0.52661200  0.79267600  1
  V  V3  1  0.25000000  0.02661200  0.70732400  1
  Bi  Bi4  1  0.75000000  0.49945600  0.41057700  1
  Bi  Bi5  1  0.25000000  0.50054400  0.58942300  1
  Bi  Bi6  1  0.75000000  0.00054400  0.91057700  1
  Bi  Bi7  1  0.25000000  0.99945600  0.08942300  1
  Pb  Pb8  1  0.25000000  0.26200300  0.87425600  1
  Pb  Pb9  1  0.75000000  0.73799700  0.12574400  1
  Pb  Pb10  1  0.75000000  0.20264100  0.59858400  1
  Pb  Pb11  1  0.25000000  0.23799700  0.37425600  1
  Pb  Pb12  1  0.75000000  0.29735900  0.09858400  1
  Pb  Pb13  1  0.25000000  0.70264100  0.90141600  1
  Pb  Pb14  1  0.75000000  0.76200300  0.62574400  1
  Pb  Pb15  1  0.25000000  0.79735900  0.40141600  1
  O  O16  1  0.75000000  0.11066000  0.20959000  1
  O  O17  1  0.25000000  0.50734600  0.07386900  1
  O  O18  1  0.99211300  0.86389300  0.01203900  1
  O  O19  1  0.49211300  0.13610700  0.98796100  1
  O  O20  1  0.00788700  0.36389300  0.48796100  1
  O  O21  1  0.49211300  0.36389300  0.48796100  1
  O  O22  1  0.50788700  0.63610700  0.51203900  1
  O  O23  1  0.99211300  0.63610700  0.51203900  1
  O  O24  1  0.98759700  0.62865900  0.75442100  1
  O  O25  1  0.48759700  0.37134100  0.24557900  1
  O  O26  1  0.48759700  0.12865900  0.74557900  1
  O  O27  1  0.25000000  0.99265400  0.57386900  1
  O  O28  1  0.01240300  0.37134100  0.24557900  1
  O  O29  1  0.75000000  0.49265400  0.92613100  1
  O  O30  1  0.98759700  0.87134100  0.25442100  1
  O  O31  1  0.25000000  0.61066000  0.29041000  1
  O  O32  1  0.75000000  0.38934000  0.70959000  1
  O  O33  1  0.25000000  0.88934000  0.79041000  1
  O  O34  1  0.51240300  0.87134100  0.25442100  1
  O  O35  1  0.75000000  0.00734600  0.42613100  1
  O  O36  1  0.51240300  0.62865900  0.75442100  1
  O  O37  1  0.01240300  0.12865900  0.74557900  1
  O  O38  1  0.00788700  0.13610700  0.98796100  1
  O  O39  1  0.50788700  0.86389300  0.01203900  1
