# generated using pymatgen
data_Os3C10(BrO5)2
_symmetry_space_group_name_H-M   'P 1'
_cell_length_a   16.75458600
_cell_length_b   8.28006400
_cell_length_c   14.35729721
_cell_angle_alpha   90.00000000
_cell_angle_beta   103.82432953
_cell_angle_gamma   90.00000000
_symmetry_Int_Tables_number   1
_chemical_formula_structural   Os3C10(BrO5)2
_chemical_formula_sum   'Os12 C40 Br8 O40'
_cell_volume   1934.07820906
_cell_formula_units_Z   4
loop_
 _symmetry_equiv_pos_site_id
 _symmetry_equiv_pos_as_xyz
  1  'x, y, z'
loop_
 _atom_site_type_symbol
 _atom_site_label
 _atom_site_symmetry_multiplicity
 _atom_site_fract_x
 _atom_site_fract_y
 _atom_site_fract_z
 _atom_site_occupancy
  Os  Os0  1  0.99634850  0.21726650  0.99797900  1
  Os  Os1  1  0.89754200  0.74887800  0.64482300  1
  Os  Os2  1  0.99634850  0.78273350  0.49797900  1
  Os  Os3  1  0.59380850  0.84274550  0.18773000  1
  Os  Os4  1  0.89754200  0.25112200  0.14482300  1
  Os  Os5  1  0.59380850  0.15725450  0.68773000  1
  Os  Os6  1  0.49634850  0.71726650  0.99797900  1
  Os  Os7  1  0.39754200  0.24887800  0.64482300  1
  Os  Os8  1  0.49634850  0.28273350  0.49797900  1
  Os  Os9  1  0.09380850  0.34274550  0.18773000  1
  Os  Os10  1  0.39754200  0.75112200  0.14482300  1
  Os  Os11  1  0.09380850  0.65725450  0.68773000  1
  C  C12  1  0.97365900  0.44666200  0.97258500  1
  C  C13  1  0.63885550  0.99558450  0.62322700  1
  C  C14  1  0.66656450  0.68155350  0.16378100  1
  C  C15  1  0.52103500  0.49875800  0.04801300  1
  C  C16  1  0.81934300  0.34372900  0.04047700  1
  C  C17  1  0.66656450  0.31844650  0.66378100  1
  C  C18  1  0.91080400  0.18357300  0.88125900  1
  C  C19  1  0.81934300  0.65627100  0.54047700  1
  C  C20  1  0.59233850  0.71865050  0.94782100  1
  C  C21  1  0.52103500  0.50124200  0.54801300  1
  C  C22  1  0.86106200  0.95779500  0.59870800  1
  C  C23  1  0.86106200  0.04220500  0.09870800  1
  C  C24  1  0.85844300  0.24629400  0.79547500  1
  C  C25  1  0.65848350  0.90794950  0.31056200  1
  C  C26  1  0.63885550  0.00441550  0.12322700  1
  C  C27  1  0.97365900  0.55333800  0.47258500  1
  C  C28  1  0.59233850  0.28134950  0.44782100  1
  C  C29  1  0.91080400  0.81642700  0.38125900  1
  C  C30  1  0.65848350  0.09205050  0.81056200  1
  C  C31  1  0.85844300  0.75370600  0.29547500  1
  C  C32  1  0.47365900  0.94666200  0.97258500  1
  C  C33  1  0.13885550  0.49558450  0.62322700  1
  C  C34  1  0.16656450  0.18155350  0.16378100  1
  C  C35  1  0.02103500  0.99875800  0.04801300  1
  C  C36  1  0.31934300  0.84372900  0.04047700  1
  C  C37  1  0.16656450  0.81844650  0.66378100  1
  C  C38  1  0.41080400  0.68357300  0.88125900  1
  C  C39  1  0.31934300  0.15627100  0.54047700  1
  C  C40  1  0.09233850  0.21865050  0.94782100  1
  C  C41  1  0.02103500  0.00124200  0.54801300  1
  C  C42  1  0.36106200  0.45779500  0.59870800  1
  C  C43  1  0.36106200  0.54220500  0.09870800  1
  C  C44  1  0.35844300  0.74629400  0.79547500  1
  C  C45  1  0.15848350  0.40794950  0.31056200  1
  C  C46  1  0.13885550  0.50441550  0.12322700  1
  C  C47  1  0.47365900  0.05333800  0.47258500  1
  C  C48  1  0.09233850  0.78134950  0.44782100  1
  C  C49  1  0.41080400  0.31642700  0.38125900  1
  C  C50  1  0.15848350  0.59205050  0.81056200  1
  C  C51  1  0.35844300  0.25370600  0.29547500  1
  Br  Br52  1  0.96996500  0.47187200  0.70184900  1
  Br  Br53  1  0.51964350  0.36692050  0.77562100  1
  Br  Br54  1  0.51964350  0.63307950  0.27562100  1
  Br  Br55  1  0.96996500  0.52812800  0.20184900  1
  Br  Br56  1  0.46996500  0.97187200  0.70184900  1
  Br  Br57  1  0.01964350  0.86692050  0.77562100  1
  Br  Br58  1  0.01964350  0.13307950  0.27562100  1
  Br  Br59  1  0.46996500  0.02812800  0.20184900  1
  O  O60  1  0.83710550  0.08538450  0.57255700  1
  O  O61  1  0.70153550  0.94279650  0.38381000  1
  O  O62  1  0.86433850  0.92054050  0.31002600  1
  O  O63  1  0.53975200  0.62764800  0.58139400  1
  O  O64  1  0.70153550  0.05720350  0.88381000  1
  O  O65  1  0.83500350  0.72814050  0.73391100  1
  O  O66  1  0.66776200  0.89322200  0.58664900  1
  O  O67  1  0.66776200  0.10677800  0.08664900  1
  O  O68  1  0.83710550  0.91461550  0.07255700  1
  O  O69  1  0.70991250  0.42005550  0.64984300  1
  O  O70  1  0.95870900  0.58122400  0.95466800  1
  O  O71  1  0.70991250  0.57994450  0.14984300  1
  O  O72  1  0.76938150  0.60324750  0.47763200  1
  O  O73  1  0.76938150  0.39675250  0.97763200  1
  O  O74  1  0.95870900  0.41877600  0.45466800  1
  O  O75  1  0.83500350  0.27185950  0.23391100  1
  O  O76  1  0.64620500  0.71619800  0.90960000  1
  O  O77  1  0.86433850  0.07945950  0.81002600  1
  O  O78  1  0.53975200  0.37235200  0.08139400  1
  O  O79  1  0.64620500  0.28380200  0.40960000  1
  O  O80  1  0.33710550  0.58538450  0.57255700  1
  O  O81  1  0.20153550  0.44279650  0.38381000  1
  O  O82  1  0.36433850  0.42054050  0.31002600  1
  O  O83  1  0.03975200  0.12764800  0.58139400  1
  O  O84  1  0.20153550  0.55720350  0.88381000  1
  O  O85  1  0.33500350  0.22814050  0.73391100  1
  O  O86  1  0.16776200  0.39322200  0.58664900  1
  O  O87  1  0.16776200  0.60677800  0.08664900  1
  O  O88  1  0.33710550  0.41461550  0.07255700  1
  O  O89  1  0.20991250  0.92005550  0.64984300  1
  O  O90  1  0.45870900  0.08122400  0.95466800  1
  O  O91  1  0.20991250  0.07994450  0.14984300  1
  O  O92  1  0.26938150  0.10324750  0.47763200  1
  O  O93  1  0.26938150  0.89675250  0.97763200  1
  O  O94  1  0.45870900  0.91877600  0.45466800  1
  O  O95  1  0.33500350  0.77185950  0.23391100  1
  O  O96  1  0.14620500  0.21619800  0.90960000  1
  O  O97  1  0.36433850  0.57945950  0.81002600  1
  O  O98  1  0.03975200  0.87235200  0.08139400  1
  O  O99  1  0.14620500  0.78380200  0.40960000  1
