# generated using pymatgen
data_NdAsSe
_symmetry_space_group_name_H-M   'P 1'
_cell_length_a   5.69198400
_cell_length_b   5.71891800
_cell_length_c   18.13704400
_cell_angle_alpha   90.00000000
_cell_angle_beta   90.00000000
_cell_angle_gamma   90.00000000
_symmetry_Int_Tables_number   1
_chemical_formula_structural   NdAsSe
_chemical_formula_sum   'Nd8 As8 Se8'
_cell_volume   590.39687044
_cell_formula_units_Z   8
loop_
 _symmetry_equiv_pos_site_id
 _symmetry_equiv_pos_as_xyz
  1  'x, y, z'
loop_
 _atom_site_type_symbol
 _atom_site_label
 _atom_site_symmetry_multiplicity
 _atom_site_fract_x
 _atom_site_fract_y
 _atom_site_fract_z
 _atom_site_occupancy
  Nd  Nd0  1  0.24399200  0.00000000  0.13957600  1
  Nd  Nd1  1  0.25600800  0.00000000  0.63957600  1
  Nd  Nd2  1  0.75600800  0.00000000  0.86042400  1
  Nd  Nd3  1  0.74399200  0.00000000  0.36042400  1
  Nd  Nd4  1  0.74399200  0.50000000  0.13957600  1
  Nd  Nd5  1  0.75600800  0.50000000  0.63957600  1
  Nd  Nd6  1  0.25600800  0.50000000  0.86042400  1
  Nd  Nd7  1  0.24399200  0.50000000  0.36042400  1
  As  As8  1  0.50000000  0.28049500  0.50000000  1
  As  As9  1  0.50000000  0.21950500  0.00000000  1
  As  As10  1  0.50000000  0.71950500  0.50000000  1
  As  As11  1  0.50000000  0.78049500  0.00000000  1
  As  As12  1  0.00000000  0.78049500  0.50000000  1
  As  As13  1  0.00000000  0.71950500  0.00000000  1
  As  As14  1  0.00000000  0.21950500  0.50000000  1
  As  As15  1  0.00000000  0.28049500  0.00000000  1
  Se  Se16  1  0.24606400  0.00000000  0.31267100  1
  Se  Se17  1  0.25393600  0.00000000  0.81267100  1
  Se  Se18  1  0.75393600  0.00000000  0.68732900  1
  Se  Se19  1  0.74606400  0.00000000  0.18732900  1
  Se  Se20  1  0.74606400  0.50000000  0.31267100  1
  Se  Se21  1  0.75393600  0.50000000  0.81267100  1
  Se  Se22  1  0.25393600  0.50000000  0.68732900  1
  Se  Se23  1  0.24606400  0.50000000  0.18732900  1
