# generated using pymatgen
data_Cd2Bi6O11
_symmetry_space_group_name_H-M   'P 1'
_cell_length_a   7.56195900
_cell_length_b   7.66295975
_cell_length_c   12.23845870
_cell_angle_alpha   87.86837532
_cell_angle_beta   88.53514028
_cell_angle_gamma   70.32836879
_symmetry_Int_Tables_number   1
_chemical_formula_structural   Cd2Bi6O11
_chemical_formula_sum   'Cd4 Bi12 O22'
_cell_volume   667.26586343
_cell_formula_units_Z   2
loop_
 _symmetry_equiv_pos_site_id
 _symmetry_equiv_pos_as_xyz
  1  'x, y, z'
loop_
 _atom_site_type_symbol
 _atom_site_label
 _atom_site_symmetry_multiplicity
 _atom_site_fract_x
 _atom_site_fract_y
 _atom_site_fract_z
 _atom_site_occupancy
  Cd  Cd0  1  0.00980100  0.00380000  0.00825400  1
  Cd  Cd1  1  0.69710000  0.75060300  0.26268100  1
  Cd  Cd2  1  0.49976700  0.51450500  0.50984100  1
  Cd  Cd3  1  0.24065100  0.22309800  0.25064900  1
  Bi  Bi4  1  0.77492900  0.27452500  0.74187100  1
  Bi  Bi5  1  0.28292900  0.25926500  0.76388700  1
  Bi  Bi6  1  0.09938100  0.95576700  0.52944400  1
  Bi  Bi7  1  0.53095000  0.07907700  0.50341800  1
  Bi  Bi8  1  0.21104200  0.73962300  0.26007100  1
  Bi  Bi9  1  0.81412800  0.71453100  0.81002700  1
  Bi  Bi10  1  0.46077300  0.52801400  0.00486400  1
  Bi  Bi11  1  0.23167300  0.73985800  0.76858700  1
  Bi  Bi12  1  0.96843500  0.46706900  0.46586400  1
  Bi  Bi13  1  0.95933100  0.49862100  0.05492500  1
  Bi  Bi14  1  0.52846100  0.01839700  0.00614200  1
  Bi  Bi15  1  0.71708100  0.21585800  0.23073100  1
  O  O16  1  0.82384300  0.84608600  0.98919800  1
  O  O17  1  0.33774600  0.30064300  0.59195200  1
  O  O18  1  0.86728200  0.50174500  0.68515300  1
  O  O19  1  0.71608800  0.54136500  0.91720700  1
  O  O20  1  0.08385100  0.53764200  0.89439000  1
  O  O21  1  0.44981700  0.46261700  0.77905900  1
  O  O22  1  0.52724400  0.04178000  0.20276700  1
  O  O23  1  0.26549000  0.06888000  0.42490400  1
  O  O24  1  0.52148200  0.28558900  0.37675500  1
  O  O25  1  0.08976700  0.06550800  0.69757100  1
  O  O26  1  0.55084500  0.05617200  0.81306800  1
  O  O27  1  0.73719900  0.24019000  0.57091200  1
  O  O28  1  0.35864700  0.77287100  0.60287700  1
  O  O29  1  0.91977500  0.90641700  0.23376000  1
  O  O30  1  0.57430000  0.59070400  0.15540000  1
  O  O31  1  0.29610400  0.84205900  0.91863800  1
  O  O32  1  0.14861100  0.64659100  0.42003700  1
  O  O33  1  0.20931700  0.52200400  0.15629600  1
  O  O34  1  0.69692600  0.67287000  0.43758800  1
  O  O35  1  0.65824500  0.23099000  0.03124700  1
  O  O36  1  0.94653600  0.37355100  0.30234900  1
  O  O37  1  0.13195100  0.19861500  0.06511800  1
