# generated using pymatgen
data_Te5As2Br4O5F26
_symmetry_space_group_name_H-M   'P 1'
_cell_length_a   9.98995500
_cell_length_b   18.08544626
_cell_length_c   19.25502378
_cell_angle_alpha   103.57803110
_cell_angle_beta   103.54310032
_cell_angle_gamma   105.03945679
_symmetry_Int_Tables_number   1
_chemical_formula_structural   Te5As2Br4O5F26
_chemical_formula_sum   'Te20 As8 Br16 O20 F104'
_cell_volume   3100.24879986
_cell_formula_units_Z   4
loop_
 _symmetry_equiv_pos_site_id
 _symmetry_equiv_pos_as_xyz
  1  'x, y, z'
loop_
 _atom_site_type_symbol
 _atom_site_label
 _atom_site_symmetry_multiplicity
 _atom_site_fract_x
 _atom_site_fract_y
 _atom_site_fract_z
 _atom_site_occupancy
  Te  Te0  1  0.78614200  0.44334900  0.11087300  1
  Te  Te1  1  0.21385800  0.55665100  0.88912700  1
  Te  Te2  1  0.95005900  0.28580300  0.60464400  1
  Te  Te3  1  0.04994100  0.71419700  0.39535600  1
  Te  Te4  1  0.66373000  0.64652600  0.54654200  1
  Te  Te5  1  0.63474700  0.71530000  0.10209100  1
  Te  Te6  1  0.33627000  0.35347400  0.45345800  1
  Te  Te7  1  0.80650800  0.36339500  0.37818000  1
  Te  Te8  1  0.36525300  0.28470000  0.89790900  1
  Te  Te9  1  0.54979300  0.82379500  0.40691800  1
  Te  Te10  1  0.45020700  0.17620500  0.59308200  1
  Te  Te11  1  0.07795200  0.78918500  0.86240800  1
  Te  Te12  1  0.92204800  0.21081500  0.13759200  1
  Te  Te13  1  0.47557600  0.09957000  0.33551400  1
  Te  Te14  1  0.35928800  0.11353800  0.06118600  1
  Te  Te15  1  0.16864800  0.74877900  0.10941500  1
  Te  Te16  1  0.64071200  0.88646200  0.93881400  1
  Te  Te17  1  0.83135200  0.25122100  0.89058500  1
  Te  Te18  1  0.19349200  0.63660500  0.62182000  1
  Te  Te19  1  0.52442400  0.90043000  0.66448600  1
  As  As20  1  0.62859700  0.53023100  0.78210900  1
  As  As21  1  0.62002200  0.27752100  0.48676000  1
  As  As22  1  0.63025800  0.23533200  0.01430900  1
  As  As23  1  0.08308500  0.00642100  0.73701200  1
  As  As24  1  0.36974200  0.76466800  0.98569100  1
  As  As25  1  0.37997800  0.72247900  0.51324000  1
  As  As26  1  0.91691500  0.99357900  0.26298800  1
  As  As27  1  0.37140300  0.46976900  0.21789100  1
  Br  Br28  1  0.59037700  0.57060400  0.26427000  1
  Br  Br29  1  0.40422600  0.34863700  0.20916400  1
  Br  Br30  1  0.97622000  0.90387100  0.31923900  1
  Br  Br31  1  0.74582400  0.53075900  0.89859200  1
  Br  Br32  1  0.32866500  0.04332600  0.78895900  1
  Br  Br33  1  0.99953600  0.11703200  0.35167800  1
  Br  Br34  1  0.97097800  0.00305600  0.82684600  1
  Br  Br35  1  0.59577400  0.65136300  0.79083600  1
  Br  Br36  1  0.02378000  0.09612900  0.68076100  1
  Br  Br37  1  0.40962300  0.42939600  0.73573000  1
  Br  Br38  1  0.76036900  0.50712000  0.70310400  1
  Br  Br39  1  0.02902200  0.99694400  0.17315400  1
  Br  Br40  1  0.23963100  0.49288000  0.29689600  1
  Br  Br41  1  0.67133500  0.95667400  0.21104100  1
  Br  Br42  1  0.00046400  0.88296800  0.64832200  1
  Br  Br43  1  0.25417600  0.46924100  0.10140800  1
  O  O44  1  0.20914300  0.72884200  0.01624000  1
  O  O45  1  0.19084400  0.72813900  0.48677300  1
  O  O46  1  0.44459900  0.83338900  0.56228400  1
  O  O47  1  0.80915600  0.27186100  0.51322700  1
  O  O48  1  0.75351500  0.24011600  0.10578900  1
  O  O49  1  0.59183700  0.25461400  0.57285200  1
  O  O50  1  0.35988300  0.65848000  0.94333900  1
  O  O51  1  0.79085700  0.27115800  0.98376000  1
  O  O52  1  0.64011700  0.34152000  0.05666100  1
  O  O53  1  0.40816300  0.74538600  0.42714800  1
  O  O54  1  0.55540100  0.16661100  0.43771600  1
  O  O55  1  0.47474000  0.21014300  0.05184800  1
  O  O56  1  0.35274400  0.70072500  0.59961700  1
  O  O57  1  0.52526000  0.78985700  0.94815200  1
  O  O58  1  0.49705300  0.76740700  0.07560900  1
  O  O59  1  0.50294700  0.23259300  0.92439100  1
  O  O60  1  0.64725600  0.29927500  0.40038300  1
  O  O61  1  0.24648500  0.75988400  0.89421100  1
  O  O62  1  0.42766500  0.27341000  0.45154500  1
  O  O63  1  0.57233500  0.72659000  0.54845500  1
  F  F64  1  0.79041500  0.81186300  0.12574600  1
  F  F65  1  0.77438600  0.67079300  0.14024000  1
  F  F66  1  0.36291400  0.51195700  0.91007500  1
  F  F67  1  0.00282300  0.34025900  0.94074900  1
  F  F68  1  0.31957700  0.10485600  0.62327200  1
  F  F69  1  0.87464700  0.12291900  0.05103200  1
  F  F70  1  0.08754700  0.18496200  0.17876200  1
  F  F71  1  0.49159700  0.61545200  0.08157500  1
  F  F72  1  0.37495900  0.25201700  0.79950100  1
  F  F73  1  0.83476300  0.45877000  0.02510200  1
  F  F74  1  0.26504100  0.68036100  0.14137200  1
  F  F75  1  0.90729100  0.28907400  0.37889700  1
  F  F76  1  0.11050600  0.76093900  0.19600100  1
  F  F77  1  0.89868000  0.70224400  0.30926100  1
  F  F78  1  0.63549500  0.14591900  0.30611900  1
  F  F79  1  0.05531400  0.59335700  0.86482700  1
  F  F80  1  0.70365400  0.30805200  0.27604600  1
  F  F81  1  0.56726800  0.02810100  0.36369700  1
  F  F82  1  0.12535300  0.87708100  0.94896800  1
  F  F83  1  0.16453500  0.79898900  0.37120900  1
  F  F84  1  0.91650400  0.42181400  0.47832600  1
  F  F85  1  0.98372300  0.79015500  0.44957600  1
  F  F86  1  0.69173600  0.95677600  0.64539400  1
  F  F87  1  0.68042300  0.89514400  0.37672800  1
  F  F88  1  0.93173700  0.18214800  0.91646600  1
  F  F89  1  0.60391400  0.97422600  0.76255300  1
  F  F90  1  0.30560100  0.13841700  0.49875000  1
  F  F91  1  0.89508100  0.36123000  0.66699400  1
  F  F92  1  0.95240800  0.42468300  0.34851000  1
  F  F93  1  0.73495900  0.31963900  0.85862800  1
  F  F94  1  0.47547500  0.90661300  0.43762300  1
  F  F95  1  0.66079100  0.68061400  0.00791000  1
  F  F96  1  0.60445900  0.13298300  0.97044500  1
  F  F97  1  0.41991900  0.79122500  0.30921300  1
  F  F98  1  0.91507100  0.63042800  0.41006800  1
  F  F99  1  0.43273200  0.97189900  0.63630300  1
  F  F100  1  0.60187200  0.82952100  0.83701800  1
  F  F101  1  0.76706500  0.97397700  0.92344900  1
  F  F102  1  0.23102600  0.42536600  0.45216200  1
  F  F103  1  0.22561400  0.32920700  0.85976000  1
  F  F104  1  0.63581600  0.74656800  0.37458100  1
  F  F105  1  0.08492900  0.36957200  0.58993200  1
  F  F106  1  0.48987800  0.92792100  0.91207000  1
  F  F107  1  0.17780600  0.85764200  0.81742000  1
  F  F108  1  0.83546500  0.20101100  0.62879100  1
  F  F109  1  0.68342500  0.38093600  0.53996400  1
  F  F110  1  0.75021900  0.43670000  0.20098000  1
  F  F111  1  0.33920900  0.31938600  0.99209000  1
  F  F112  1  0.33605400  0.83919400  0.16483700  1
  F  F113  1  0.20958500  0.18813700  0.87425400  1
  F  F114  1  0.50840300  0.38454800  0.91842500  1
  F  F115  1  0.82190700  0.71879000  0.53350500  1
  F  F116  1  0.52452500  0.09338700  0.56237700  1
  F  F117  1  0.88949400  0.23906100  0.80399900  1
  F  F118  1  0.71654600  0.44197900  0.37279400  1
  F  F119  1  0.24978100  0.56330000  0.79902000  1
  F  F120  1  0.48505300  0.42811500  0.43680000  1
  F  F121  1  0.36418400  0.25343200  0.62541900  1
  F  F122  1  0.04759200  0.57531700  0.65149000  1
  F  F123  1  0.62563400  0.83534400  0.69913700  1
  F  F124  1  0.29634600  0.69194800  0.72395400  1
  F  F125  1  0.75397500  0.69162700  0.65109500  1
  F  F126  1  0.17809300  0.28121000  0.46649500  1
  F  F127  1  0.28345400  0.55802100  0.62720600  1
  F  F128  1  0.36450500  0.85408100  0.69388100  1
  F  F129  1  0.76897400  0.57463400  0.54783800  1
  F  F130  1  0.58008100  0.20877500  0.69078700  1
  F  F131  1  0.62504100  0.74798300  0.20049900  1
  F  F132  1  0.08349600  0.57818600  0.52167400  1
  F  F133  1  0.51494700  0.57188500  0.56320000  1
  F  F134  1  0.30824700  0.05065100  0.96034700  1
  F  F135  1  0.39554100  0.86701700  0.02955500  1
  F  F136  1  0.95918600  0.72359100  0.90240700  1
  F  F137  1  0.51012200  0.07207900  0.08793000  1
  F  F138  1  0.08448700  0.45201000  0.83515600  1
  F  F139  1  0.30826400  0.04322400  0.35460600  1
  F  F140  1  0.01627700  0.20984500  0.55042400  1
  F  F141  1  0.91551300  0.54799000  0.16484400  1
  F  F142  1  0.39608600  0.02577400  0.23744700  1
  F  F143  1  0.31657500  0.61906400  0.46003600  1
  F  F144  1  0.39812800  0.17047900  0.16298200  1
  F  F145  1  0.10132000  0.29775600  0.69073900  1
  F  F146  1  0.82219400  0.14235800  0.18258000  1
  F  F147  1  0.69439900  0.86158300  0.50125000  1
  F  F148  1  0.04081400  0.27640900  0.09759300  1
  F  F149  1  0.94468600  0.40664300  0.13517300  1
  F  F150  1  0.66394600  0.16080600  0.83516300  1
  F  F151  1  0.69175300  0.94934900  0.03965300  1
  F  F152  1  0.80261900  0.85206000  0.96437700  1
  F  F153  1  0.09270900  0.71092600  0.62110300  1
  F  F154  1  0.91245300  0.81503800  0.82123800  1
  F  F155  1  0.10491900  0.63877000  0.33300600  1
  F  F156  1  0.58506600  0.59785600  0.44167200  1
  F  F157  1  0.19738100  0.14794000  0.03562300  1
  F  F158  1  0.24602500  0.30837300  0.34890500  1
  F  F159  1  0.37436600  0.16465600  0.30086300  1
  F  F160  1  0.98289000  0.29632500  0.22718400  1
  F  F161  1  0.41493400  0.40214400  0.55832800  1
  F  F162  1  0.01711000  0.70367500  0.77281600  1
  F  F163  1  0.63708600  0.48804300  0.08992500  1
  F  F164  1  0.99717700  0.65974100  0.05925100  1
  F  F165  1  0.06826300  0.81785200  0.08353400  1
  F  F166  1  0.23293500  0.02602300  0.07655100  1
  F  F167  1  0.16523700  0.54123000  0.97489800  1
