# generated using pymatgen
data_Sr10Ga6O19
_symmetry_space_group_name_H-M   'P 1'
_cell_length_a   35.28218610
_cell_length_b   8.06341600
_cell_length_c   16.13635002
_cell_angle_alpha   90.00000000
_cell_angle_beta   103.15917039
_cell_angle_gamma   90.00000000
_symmetry_Int_Tables_number   1
_chemical_formula_structural   Sr10Ga6O19
_chemical_formula_sum   'Sr80 Ga48 O152'
_cell_volume   4470.16428970
_cell_formula_units_Z   8
loop_
 _symmetry_equiv_pos_site_id
 _symmetry_equiv_pos_as_xyz
  1  'x, y, z'
loop_
 _atom_site_type_symbol
 _atom_site_label
 _atom_site_symmetry_multiplicity
 _atom_site_fract_x
 _atom_site_fract_y
 _atom_site_fract_z
 _atom_site_occupancy
  Sr  Sr0  1  0.18708450  0.98004550  0.47797350  1
  Sr  Sr1  1  0.12602250  0.74975150  0.82167350  1
  Sr  Sr2  1  0.37346300  0.24871500  0.16747850  1
  Sr  Sr3  1  0.00000000  0.85530450  0.25000000  1
  Sr  Sr4  1  0.37171800  0.74021000  0.94128650  1
  Sr  Sr5  1  0.25135300  0.72440000  0.65293750  1
  Sr  Sr6  1  0.12828200  0.75979000  0.05871350  1
  Sr  Sr7  1  0.00505000  0.24199700  0.03063250  1
  Sr  Sr8  1  0.12653700  0.74871500  0.33252150  1
  Sr  Sr9  1  0.11975050  0.29857850  0.07576750  1
  Sr  Sr10  1  0.37397750  0.24975150  0.67832650  1
  Sr  Sr11  1  0.18708450  0.01995450  0.97797350  1
  Sr  Sr12  1  0.50000000  0.64469550  0.75000000  1
  Sr  Sr13  1  0.06477400  0.45053800  0.66782450  1
  Sr  Sr14  1  0.12828200  0.24021000  0.55871350  1
  Sr  Sr15  1  0.24580600  0.25163100  0.37909850  1
  Sr  Sr16  1  0.37397750  0.75024850  0.17832650  1
  Sr  Sr17  1  0.25419400  0.75163100  0.12090150  1
  Sr  Sr18  1  0.24864700  0.77560000  0.34706250  1
  Sr  Sr19  1  0.49495000  0.25800300  0.96936750  1
  Sr  Sr20  1  0.31291550  0.48004550  0.02202650  1
  Sr  Sr21  1  0.43522600  0.95053800  0.83217550  1
  Sr  Sr22  1  0.00505000  0.75800300  0.53063250  1
  Sr  Sr23  1  0.37171800  0.25979000  0.44128650  1
  Sr  Sr24  1  0.31291550  0.51995450  0.52202650  1
  Sr  Sr25  1  0.12602250  0.25024850  0.32167350  1
  Sr  Sr26  1  0.00000000  0.70796250  0.75000000  1
  Sr  Sr27  1  0.43522600  0.04946200  0.33217550  1
  Sr  Sr28  1  0.24580600  0.74836900  0.87909850  1
  Sr  Sr29  1  0.38024950  0.79857850  0.42423250  1
  Sr  Sr30  1  0.06477400  0.54946200  0.16782450  1
  Sr  Sr31  1  0.25419400  0.24836900  0.62090150  1
  Sr  Sr32  1  0.11975050  0.70142150  0.57576750  1
  Sr  Sr33  1  0.49495000  0.74199700  0.46936750  1
  Sr  Sr34  1  0.24864700  0.22440000  0.84706250  1
  Sr  Sr35  1  0.50000000  0.79203750  0.25000000  1
  Sr  Sr36  1  0.12653700  0.25128500  0.83252150  1
  Sr  Sr37  1  0.38024950  0.20142150  0.92423250  1
  Sr  Sr38  1  0.37346300  0.75128500  0.66747850  1
  Sr  Sr39  1  0.25135300  0.27560000  0.15293750  1
  Sr  Sr40  1  0.68708450  0.48004550  0.47797350  1
  Sr  Sr41  1  0.62602250  0.24975150  0.82167350  1
  Sr  Sr42  1  0.87346300  0.74871500  0.16747850  1
  Sr  Sr43  1  0.50000000  0.35530450  0.25000000  1
  Sr  Sr44  1  0.87171800  0.24021000  0.94128650  1
  Sr  Sr45  1  0.75135300  0.22440000  0.65293750  1
  Sr  Sr46  1  0.62828200  0.25979000  0.05871350  1
  Sr  Sr47  1  0.50505000  0.74199700  0.03063250  1
  Sr  Sr48  1  0.62653700  0.24871500  0.33252150  1
  Sr  Sr49  1  0.61975050  0.79857850  0.07576750  1
  Sr  Sr50  1  0.87397750  0.74975150  0.67832650  1
  Sr  Sr51  1  0.68708450  0.51995450  0.97797350  1
  Sr  Sr52  1  0.00000000  0.14469550  0.75000000  1
  Sr  Sr53  1  0.56477400  0.95053800  0.66782450  1
  Sr  Sr54  1  0.62828200  0.74021000  0.55871350  1
  Sr  Sr55  1  0.74580600  0.75163100  0.37909850  1
  Sr  Sr56  1  0.87397750  0.25024850  0.17832650  1
  Sr  Sr57  1  0.75419400  0.25163100  0.12090150  1
  Sr  Sr58  1  0.74864700  0.27560000  0.34706250  1
  Sr  Sr59  1  0.99495000  0.75800300  0.96936750  1
  Sr  Sr60  1  0.81291550  0.98004550  0.02202650  1
  Sr  Sr61  1  0.93522600  0.45053800  0.83217550  1
  Sr  Sr62  1  0.50505000  0.25800300  0.53063250  1
  Sr  Sr63  1  0.87171800  0.75979000  0.44128650  1
  Sr  Sr64  1  0.81291550  0.01995450  0.52202650  1
  Sr  Sr65  1  0.62602250  0.75024850  0.32167350  1
  Sr  Sr66  1  0.50000000  0.20796250  0.75000000  1
  Sr  Sr67  1  0.93522600  0.54946200  0.33217550  1
  Sr  Sr68  1  0.74580600  0.24836900  0.87909850  1
  Sr  Sr69  1  0.88024950  0.29857850  0.42423250  1
  Sr  Sr70  1  0.56477400  0.04946200  0.16782450  1
  Sr  Sr71  1  0.75419400  0.74836900  0.62090150  1
  Sr  Sr72  1  0.61975050  0.20142150  0.57576750  1
  Sr  Sr73  1  0.99495000  0.24199700  0.46936750  1
  Sr  Sr74  1  0.74864700  0.72440000  0.84706250  1
  Sr  Sr75  1  0.00000000  0.29203750  0.25000000  1
  Sr  Sr76  1  0.62653700  0.75128500  0.83252150  1
  Sr  Sr77  1  0.88024950  0.70142150  0.92423250  1
  Sr  Sr78  1  0.87346300  0.25128500  0.66747850  1
  Sr  Sr79  1  0.75135300  0.77560000  0.15293750  1
  Ga  Ga80  1  0.07327200  0.99187100  0.65220850  1
  Ga  Ga81  1  0.19424950  0.50619850  0.46543050  1
  Ga  Ga82  1  0.32044350  0.52582050  0.28656950  1
  Ga  Ga83  1  0.43742250  0.48822550  0.06874750  1
  Ga  Ga84  1  0.05724150  0.53136450  0.41071650  1
  Ga  Ga85  1  0.18575350  0.50454450  0.73457850  1
  Ga  Ga86  1  0.30575050  0.99380150  0.53456950  1
  Ga  Ga87  1  0.06257750  0.98822550  0.43125250  1
  Ga  Ga88  1  0.17955650  0.97417950  0.71343050  1
  Ga  Ga89  1  0.05724150  0.46863550  0.91071650  1
  Ga  Ga90  1  0.17955650  0.02582050  0.21343050  1
  Ga  Ga91  1  0.06257750  0.01177450  0.93125250  1
  Ga  Ga92  1  0.07327200  0.00812900  0.15220850  1
  Ga  Ga93  1  0.42672800  0.49187100  0.84779150  1
  Ga  Ga94  1  0.43742250  0.51177450  0.56874750  1
  Ga  Ga95  1  0.19424950  0.49380150  0.96543050  1
  Ga  Ga96  1  0.31424650  0.99545550  0.26542150  1
  Ga  Ga97  1  0.44275850  0.96863550  0.58928350  1
  Ga  Ga98  1  0.32044350  0.47417950  0.78656950  1
  Ga  Ga99  1  0.31424650  0.00454450  0.76542150  1
  Ga  Ga100  1  0.44275850  0.03136450  0.08928350  1
  Ga  Ga101  1  0.18575350  0.49545550  0.23457850  1
  Ga  Ga102  1  0.30575050  0.00619850  0.03456950  1
  Ga  Ga103  1  0.42672800  0.50812900  0.34779150  1
  Ga  Ga104  1  0.57327200  0.49187100  0.65220850  1
  Ga  Ga105  1  0.69424950  0.00619850  0.46543050  1
  Ga  Ga106  1  0.82044350  0.02582050  0.28656950  1
  Ga  Ga107  1  0.93742250  0.98822550  0.06874750  1
  Ga  Ga108  1  0.55724150  0.03136450  0.41071650  1
  Ga  Ga109  1  0.68575350  0.00454450  0.73457850  1
  Ga  Ga110  1  0.80575050  0.49380150  0.53456950  1
  Ga  Ga111  1  0.56257750  0.48822550  0.43125250  1
  Ga  Ga112  1  0.67955650  0.47417950  0.71343050  1
  Ga  Ga113  1  0.55724150  0.96863550  0.91071650  1
  Ga  Ga114  1  0.67955650  0.52582050  0.21343050  1
  Ga  Ga115  1  0.56257750  0.51177450  0.93125250  1
  Ga  Ga116  1  0.57327200  0.50812900  0.15220850  1
  Ga  Ga117  1  0.92672800  0.99187100  0.84779150  1
  Ga  Ga118  1  0.93742250  0.01177450  0.56874750  1
  Ga  Ga119  1  0.69424950  0.99380150  0.96543050  1
  Ga  Ga120  1  0.81424650  0.49545550  0.26542150  1
  Ga  Ga121  1  0.94275850  0.46863550  0.58928350  1
  Ga  Ga122  1  0.82044350  0.97417950  0.78656950  1
  Ga  Ga123  1  0.81424650  0.50454450  0.76542150  1
  Ga  Ga124  1  0.94275850  0.53136450  0.08928350  1
  Ga  Ga125  1  0.68575350  0.99545550  0.23457850  1
  Ga  Ga126  1  0.80575050  0.50619850  0.03456950  1
  Ga  Ga127  1  0.92672800  0.00812900  0.34779150  1
  O  O128  1  0.24658000  0.50068700  0.01956550  1
  O  O129  1  0.27012750  0.06118450  0.29267050  1
  O  O130  1  0.31296650  0.75828750  0.26547750  1
  O  O131  1  0.43795750  0.25779550  0.05673650  1
  O  O132  1  0.29578500  0.54385400  0.86887050  1
  O  O133  1  0.49666950  0.00384850  0.62562350  1
  O  O134  1  0.45069000  0.45376400  0.46270050  1
  O  O135  1  0.11345600  0.04192100  0.42402350  1
  O  O136  1  0.20421500  0.95614600  0.13112950  1
  O  O137  1  0.11345600  0.95807900  0.92402350  1
  O  O138  1  0.17543500  0.29053100  0.46333350  1
  O  O139  1  0.19034750  0.55627950  0.34852650  1
  O  O140  1  0.18393550  0.93909550  0.32028650  1
  O  O141  1  0.20421500  0.04385400  0.63112950  1
  O  O142  1  0.31606450  0.56090450  0.67971350  1
  O  O143  1  0.47937850  0.57576750  0.14515750  1
  O  O144  1  0.41696700  0.98766800  0.17318850  1
  O  O145  1  0.06407500  0.76735800  0.66852950  1
  O  O146  1  0.02062150  0.07576750  0.35484250  1
  O  O147  1  0.00333050  0.50384850  0.87437650  1
  O  O148  1  0.47937850  0.42423250  0.64515750  1
  O  O149  1  0.18703350  0.74171250  0.73452250  1
  O  O150  1  0.12724650  0.98731250  0.65065750  1
  O  O151  1  0.45069000  0.54623600  0.96270050  1
  O  O152  1  0.06204250  0.24220450  0.94326350  1
  O  O153  1  0.37275350  0.48731250  0.84934250  1
  O  O154  1  0.06204250  0.75779550  0.44326350  1
  O  O155  1  0.38654400  0.45807900  0.57597650  1
  O  O156  1  0.25342000  0.00068700  0.48043450  1
  O  O157  1  0.33343350  0.81150050  0.50647050  1
  O  O158  1  0.07472600  0.56328500  0.01787350  1
  O  O159  1  0.49666950  0.99615150  0.12562350  1
  O  O160  1  0.41696700  0.01233200  0.67318850  1
  O  O161  1  0.31296650  0.24171250  0.76547750  1
  O  O162  1  0.42527400  0.93671500  0.98212650  1
  O  O163  1  0.29578500  0.45614600  0.36887050  1
  O  O164  1  0.12724650  0.01268750  0.15065750  1
  O  O165  1  0.00333050  0.49615150  0.37437650  1
  O  O166  1  0.32456500  0.20946900  0.53666650  1
  O  O167  1  0.13662850  0.55023550  0.17782050  1
  O  O168  1  0.07472600  0.43671500  0.51787350  1
  O  O169  1  0.08303300  0.48766800  0.32681150  1
  O  O170  1  0.31606450  0.43909550  0.17971350  1
  O  O171  1  0.43592500  0.26735800  0.83147050  1
  O  O172  1  0.42527400  0.06328500  0.48212650  1
  O  O173  1  0.18703350  0.25828750  0.23452250  1
  O  O174  1  0.30965250  0.94372050  0.65147350  1
  O  O175  1  0.38654400  0.54192100  0.07597650  1
  O  O176  1  0.06642600  0.83762200  0.22192150  1
  O  O177  1  0.24658000  0.49931300  0.51956550  1
  O  O178  1  0.08303300  0.51233200  0.82681150  1
  O  O179  1  0.43795750  0.74220450  0.55673650  1
  O  O180  1  0.18393550  0.06090450  0.82028650  1
  O  O181  1  0.43357400  0.66237800  0.77807850  1
  O  O182  1  0.43592500  0.73264200  0.33147050  1
  O  O183  1  0.19034750  0.44372050  0.84852650  1
  O  O184  1  0.13662850  0.44976450  0.67782050  1
  O  O185  1  0.37275350  0.51268750  0.34934250  1
  O  O186  1  0.06407500  0.23264200  0.16852950  1
  O  O187  1  0.22987250  0.43881550  0.70732950  1
  O  O188  1  0.16656650  0.68849950  0.49352950  1
  O  O189  1  0.43357400  0.33762200  0.27807850  1
  O  O190  1  0.25342000  0.99931300  0.98043450  1
  O  O191  1  0.17543500  0.70946900  0.96333350  1
  O  O192  1  0.16656650  0.31150050  0.99352950  1
  O  O193  1  0.30965250  0.05627950  0.15147350  1
  O  O194  1  0.22987250  0.56118450  0.20732950  1
  O  O195  1  0.04931000  0.95376400  0.03729950  1
  O  O196  1  0.04931000  0.04623600  0.53729950  1
  O  O197  1  0.32456500  0.79053100  0.03666650  1
  O  O198  1  0.36337150  0.94976450  0.82217950  1
  O  O199  1  0.27012750  0.93881550  0.79267050  1
  O  O200  1  0.33343350  0.18849950  0.00647050  1
  O  O201  1  0.06642600  0.16237800  0.72192150  1
  O  O202  1  0.36337150  0.05023550  0.32217950  1
  O  O203  1  0.02062150  0.92423250  0.85484250  1
  O  O204  1  0.74658000  0.00068700  0.01956550  1
  O  O205  1  0.77012750  0.56118450  0.29267050  1
  O  O206  1  0.81296650  0.25828750  0.26547750  1
  O  O207  1  0.93795750  0.75779550  0.05673650  1
  O  O208  1  0.79578500  0.04385400  0.86887050  1
  O  O209  1  0.99666950  0.50384850  0.62562350  1
  O  O210  1  0.95069000  0.95376400  0.46270050  1
  O  O211  1  0.61345600  0.54192100  0.42402350  1
  O  O212  1  0.70421500  0.45614600  0.13112950  1
  O  O213  1  0.61345600  0.45807900  0.92402350  1
  O  O214  1  0.67543500  0.79053100  0.46333350  1
  O  O215  1  0.69034750  0.05627950  0.34852650  1
  O  O216  1  0.68393550  0.43909550  0.32028650  1
  O  O217  1  0.70421500  0.54385400  0.63112950  1
  O  O218  1  0.81606450  0.06090450  0.67971350  1
  O  O219  1  0.97937850  0.07576750  0.14515750  1
  O  O220  1  0.91696700  0.48766800  0.17318850  1
  O  O221  1  0.56407500  0.26735800  0.66852950  1
  O  O222  1  0.52062150  0.57576750  0.35484250  1
  O  O223  1  0.50333050  0.00384850  0.87437650  1
  O  O224  1  0.97937850  0.92423250  0.64515750  1
  O  O225  1  0.68703350  0.24171250  0.73452250  1
  O  O226  1  0.62724650  0.48731250  0.65065750  1
  O  O227  1  0.95069000  0.04623600  0.96270050  1
  O  O228  1  0.56204250  0.74220450  0.94326350  1
  O  O229  1  0.87275350  0.98731250  0.84934250  1
  O  O230  1  0.56204250  0.25779550  0.44326350  1
  O  O231  1  0.88654400  0.95807900  0.57597650  1
  O  O232  1  0.75342000  0.50068700  0.48043450  1
  O  O233  1  0.83343350  0.31150050  0.50647050  1
  O  O234  1  0.57472600  0.06328500  0.01787350  1
  O  O235  1  0.99666950  0.49615150  0.12562350  1
  O  O236  1  0.91696700  0.51233200  0.67318850  1
  O  O237  1  0.81296650  0.74171250  0.76547750  1
  O  O238  1  0.92527400  0.43671500  0.98212650  1
  O  O239  1  0.79578500  0.95614600  0.36887050  1
  O  O240  1  0.62724650  0.51268750  0.15065750  1
  O  O241  1  0.50333050  0.99615150  0.37437650  1
  O  O242  1  0.82456500  0.70946900  0.53666650  1
  O  O243  1  0.63662850  0.05023550  0.17782050  1
  O  O244  1  0.57472600  0.93671500  0.51787350  1
  O  O245  1  0.58303300  0.98766800  0.32681150  1
  O  O246  1  0.81606450  0.93909550  0.17971350  1
  O  O247  1  0.93592500  0.76735800  0.83147050  1
  O  O248  1  0.92527400  0.56328500  0.48212650  1
  O  O249  1  0.68703350  0.75828750  0.23452250  1
  O  O250  1  0.80965250  0.44372050  0.65147350  1
  O  O251  1  0.88654400  0.04192100  0.07597650  1
  O  O252  1  0.56642600  0.33762200  0.22192150  1
  O  O253  1  0.74658000  0.99931300  0.51956550  1
  O  O254  1  0.58303300  0.01233200  0.82681150  1
  O  O255  1  0.93795750  0.24220450  0.55673650  1
  O  O256  1  0.68393550  0.56090450  0.82028650  1
  O  O257  1  0.93357400  0.16237800  0.77807850  1
  O  O258  1  0.93592500  0.23264200  0.33147050  1
  O  O259  1  0.69034750  0.94372050  0.84852650  1
  O  O260  1  0.63662850  0.94976450  0.67782050  1
  O  O261  1  0.87275350  0.01268750  0.34934250  1
  O  O262  1  0.56407500  0.73264200  0.16852950  1
  O  O263  1  0.72987250  0.93881550  0.70732950  1
  O  O264  1  0.66656650  0.18849950  0.49352950  1
  O  O265  1  0.93357400  0.83762200  0.27807850  1
  O  O266  1  0.75342000  0.49931300  0.98043450  1
  O  O267  1  0.67543500  0.20946900  0.96333350  1
  O  O268  1  0.66656650  0.81150050  0.99352950  1
  O  O269  1  0.80965250  0.55627950  0.15147350  1
  O  O270  1  0.72987250  0.06118450  0.20732950  1
  O  O271  1  0.54931000  0.45376400  0.03729950  1
  O  O272  1  0.54931000  0.54623600  0.53729950  1
  O  O273  1  0.82456500  0.29053100  0.03666650  1
  O  O274  1  0.86337150  0.44976450  0.82217950  1
  O  O275  1  0.77012750  0.43881550  0.79267050  1
  O  O276  1  0.83343350  0.68849950  0.00647050  1
  O  O277  1  0.56642600  0.66237800  0.72192150  1
  O  O278  1  0.86337150  0.55023550  0.32217950  1
  O  O279  1  0.52062150  0.42423250  0.85484250  1
