# generated using pymatgen
data_Ca(Ga3Te5)2
_symmetry_space_group_name_H-M   'P 1'
_cell_length_a   14.91308000
_cell_length_b   14.70085000
_cell_length_c   10.42566612
_cell_angle_alpha   90.00000000
_cell_angle_beta   90.07152586
_cell_angle_gamma   90.00000000
_symmetry_Int_Tables_number   1
_chemical_formula_structural   Ca(Ga3Te5)2
_chemical_formula_sum   'Ca4 Ga24 Te40'
_cell_volume   2285.66863243
_cell_formula_units_Z   4
loop_
 _symmetry_equiv_pos_site_id
 _symmetry_equiv_pos_as_xyz
  1  'x, y, z'
loop_
 _atom_site_type_symbol
 _atom_site_label
 _atom_site_symmetry_multiplicity
 _atom_site_fract_x
 _atom_site_fract_y
 _atom_site_fract_z
 _atom_site_occupancy
  Ca  Ca0  1  0.13086800  0.87284700  0.74482700  1
  Ca  Ca1  1  0.86913200  0.87284700  0.25517300  1
  Ca  Ca2  1  0.63086800  0.37284700  0.74482700  1
  Ca  Ca3  1  0.36913200  0.37284700  0.25517300  1
  Ga  Ga4  1  0.04655700  0.04480100  0.16924300  1
  Ga  Ga5  1  0.27941900  0.89640600  0.16072100  1
  Ga  Ga6  1  0.20576400  0.11020800  0.87708600  1
  Ga  Ga7  1  0.24515000  0.15893900  0.25337800  1
  Ga  Ga8  1  0.45747600  0.03296800  0.33703400  1
  Ga  Ga9  1  0.54252400  0.03296800  0.66296600  1
  Ga  Ga10  1  0.35524150  0.22649450  0.57405100  1
  Ga  Ga11  1  0.72058100  0.89640600  0.83927900  1
  Ga  Ga12  1  0.64475850  0.22649450  0.42594900  1
  Ga  Ga13  1  0.79423600  0.11020800  0.12291400  1
  Ga  Ga14  1  0.75485000  0.15893900  0.74662200  1
  Ga  Ga15  1  0.95344300  0.04480100  0.83075700  1
  Ga  Ga16  1  0.54655700  0.54480100  0.16924300  1
  Ga  Ga17  1  0.77941900  0.39640600  0.16072100  1
  Ga  Ga18  1  0.70576400  0.61020800  0.87708600  1
  Ga  Ga19  1  0.74515000  0.65893900  0.25337800  1
  Ga  Ga20  1  0.95747600  0.53296800  0.33703400  1
  Ga  Ga21  1  0.04252400  0.53296800  0.66296600  1
  Ga  Ga22  1  0.85524150  0.72649450  0.57405100  1
  Ga  Ga23  1  0.22058100  0.39640600  0.83927900  1
  Ga  Ga24  1  0.14475850  0.72649450  0.42594900  1
  Ga  Ga25  1  0.29423600  0.61020800  0.12291400  1
  Ga  Ga26  1  0.25485000  0.65893900  0.74662200  1
  Ga  Ga27  1  0.45344300  0.54480100  0.83075700  1
  Te  Te28  1  0.28307150  0.78103950  0.56572500  1
  Te  Te29  1  0.37864750  0.69572050  0.93128200  1
  Te  Te30  1  0.18087150  0.99507850  0.32719800  1
  Te  Te31  1  0.09119300  0.08465700  0.68394500  1
  Te  Te32  1  0.29104750  0.95438350  0.91769000  1
  Te  Te33  1  0.43924800  0.86767100  0.25329600  1
  Te  Te34  1  0.62135250  0.69572050  0.06871800  1
  Te  Te35  1  0.37262650  0.04672650  0.56918900  1
  Te  Te36  1  0.56075200  0.86767100  0.74670400  1
  Te  Te37  1  0.71692850  0.78103950  0.43427500  1
  Te  Te38  1  0.32661400  0.24550300  0.82938800  1
  Te  Te39  1  0.41119850  0.16092950  0.16878800  1
  Te  Te40  1  0.70895250  0.95438350  0.08231000  1
  Te  Te41  1  0.62737350  0.04672650  0.43081100  1
  Te  Te42  1  0.58880150  0.16092950  0.83121200  1
  Te  Te43  1  0.81912850  0.99507850  0.67280200  1
  Te  Te44  1  0.50000000  0.32552600  0.50000000  1
  Te  Te45  1  0.50000000  0.41653700  0.00000000  1
  Te  Te46  1  0.67338600  0.24550300  0.17061200  1
  Te  Te47  1  0.90880700  0.08465700  0.31605500  1
  Te  Te48  1  0.78307150  0.28103950  0.56572500  1
  Te  Te49  1  0.87864750  0.19572050  0.93128200  1
  Te  Te50  1  0.68087150  0.49507850  0.32719800  1
  Te  Te51  1  0.59119300  0.58465700  0.68394500  1
  Te  Te52  1  0.79104750  0.45438350  0.91769000  1
  Te  Te53  1  0.93924800  0.36767100  0.25329600  1
  Te  Te54  1  0.12135250  0.19572050  0.06871800  1
  Te  Te55  1  0.87262650  0.54672650  0.56918900  1
  Te  Te56  1  0.06075200  0.36767100  0.74670400  1
  Te  Te57  1  0.21692850  0.28103950  0.43427500  1
  Te  Te58  1  0.82661400  0.74550300  0.82938800  1
  Te  Te59  1  0.91119850  0.66092950  0.16878800  1
  Te  Te60  1  0.20895250  0.45438350  0.08231000  1
  Te  Te61  1  0.12737350  0.54672650  0.43081100  1
  Te  Te62  1  0.08880150  0.66092950  0.83121200  1
  Te  Te63  1  0.31912850  0.49507850  0.67280200  1
  Te  Te64  1  0.00000000  0.82552600  0.50000000  1
  Te  Te65  1  0.00000000  0.91653700  0.00000000  1
  Te  Te66  1  0.17338600  0.74550300  0.17061200  1
  Te  Te67  1  0.40880700  0.58465700  0.31605500  1
