# generated using pymatgen
data_Na12B26O45
_symmetry_space_group_name_H-M   'P 1'
_cell_length_a   14.43034997
_cell_length_b   33.71158283
_cell_length_c   9.64026900
_cell_angle_alpha   90.00000000
_cell_angle_beta   131.85988942
_cell_angle_gamma   90.00000000
_symmetry_Int_Tables_number   1
_chemical_formula_structural   Na12B26O45
_chemical_formula_sum   'Na48 B104 O180'
_cell_volume   3492.79034362
_cell_formula_units_Z   4
loop_
 _symmetry_equiv_pos_site_id
 _symmetry_equiv_pos_as_xyz
  1  'x, y, z'
loop_
 _atom_site_type_symbol
 _atom_site_label
 _atom_site_symmetry_multiplicity
 _atom_site_fract_x
 _atom_site_fract_y
 _atom_site_fract_z
 _atom_site_occupancy
  Na  Na0  1  0.89199800  0.70540100  0.07597000  1
  Na  Na1  1  0.80193800  0.62568700  0.39266800  1
  Na  Na2  1  0.11822900  0.45362900  0.75305900  1
  Na  Na3  1  0.75312100  0.44938100  0.10799200  1
  Na  Na4  1  0.29972600  0.62602100  0.20830800  1
  Na  Na5  1  0.61718600  0.45273200  0.48262400  1
  Na  Na6  1  0.25125200  0.55015800  0.89950500  1
  Na  Na7  1  0.98020450  0.70546250  0.81097100  1
  Na  Na8  1  0.57571200  0.37771700  0.20074400  1
  Na  Na9  1  0.48476150  0.29425850  0.65336700  1
  Na  Na10  1  0.07855650  0.62288050  0.45427800  1
  Na  Na11  1  0.89199800  0.29459900  0.57597000  1
  Na  Na12  1  0.29972600  0.37397900  0.70830800  1
  Na  Na13  1  0.25125200  0.44984200  0.39950500  1
  Na  Na14  1  0.39618750  0.70550550  0.71356900  1
  Na  Na15  1  0.07855650  0.37711950  0.95427800  1
  Na  Na16  1  0.48476150  0.70574150  0.15336700  1
  Na  Na17  1  0.75312100  0.55061900  0.60799200  1
  Na  Na18  1  0.57571200  0.62228300  0.70074400  1
  Na  Na19  1  0.80193800  0.37431300  0.89266800  1
  Na  Na20  1  0.61718600  0.54726800  0.98262400  1
  Na  Na21  1  0.11822900  0.54637100  0.25305900  1
  Na  Na22  1  0.39618750  0.29449450  0.21356900  1
  Na  Na23  1  0.98020450  0.29453750  0.31097100  1
  Na  Na24  1  0.39199800  0.20540100  0.07597000  1
  Na  Na25  1  0.30193800  0.12568700  0.39266800  1
  Na  Na26  1  0.61822900  0.95362900  0.75305900  1
  Na  Na27  1  0.25312100  0.94938100  0.10799200  1
  Na  Na28  1  0.79972600  0.12602100  0.20830800  1
  Na  Na29  1  0.11718600  0.95273200  0.48262400  1
  Na  Na30  1  0.75125200  0.05015800  0.89950500  1
  Na  Na31  1  0.48020450  0.20546250  0.81097100  1
  Na  Na32  1  0.07571200  0.87771700  0.20074400  1
  Na  Na33  1  0.98476150  0.79425850  0.65336700  1
  Na  Na34  1  0.57855650  0.12288050  0.45427800  1
  Na  Na35  1  0.39199800  0.79459900  0.57597000  1
  Na  Na36  1  0.79972600  0.87397900  0.70830800  1
  Na  Na37  1  0.75125200  0.94984200  0.39950500  1
  Na  Na38  1  0.89618750  0.20550550  0.71356900  1
  Na  Na39  1  0.57855650  0.87711950  0.95427800  1
  Na  Na40  1  0.98476150  0.20574150  0.15336700  1
  Na  Na41  1  0.25312100  0.05061900  0.60799200  1
  Na  Na42  1  0.07571200  0.12228300  0.70074400  1
  Na  Na43  1  0.30193800  0.87431300  0.89266800  1
  Na  Na44  1  0.11718600  0.04726800  0.98262400  1
  Na  Na45  1  0.61822900  0.04637100  0.25305900  1
  Na  Na46  1  0.89618750  0.79449450  0.21356900  1
  Na  Na47  1  0.48020450  0.79453750  0.31097100  1
  B  B48  1  0.75892250  0.27367350  0.90595400  1
  B  B49  1  0.79097650  0.52016650  0.37545800  1
  B  B50  1  0.93881100  0.29429100  0.93558600  1
  B  B51  1  0.86680400  0.40452200  0.52988500  1
  B  B52  1  0.89143750  0.55269050  0.26947700  1
  B  B53  1  0.58308100  0.51721800  0.67197700  1
  B  B54  1  0.54594500  0.63263700  0.99430100  1
  B  B55  1  0.08398300  0.48243800  0.99447600  1
  B  B56  1  0.34195000  0.63570200  0.89633300  1
  B  B57  1  0.79097650  0.47983350  0.87545800  1
  B  B58  1  0.54594500  0.36736300  0.49430100  1
  B  B59  1  0.08398300  0.51756200  0.49447600  1
  B  B60  1  0.04649200  0.36762800  0.59659000  1
  B  B61  1  0.04649200  0.63237200  0.09659000  1
  B  B62  1  0.98425000  0.55598900  0.58938000  1
  B  B63  1  0.48405250  0.44457450  0.87920300  1
  B  B64  1  0.66235600  0.31476500  0.11757400  1
  B  B65  1  0.36633850  0.40451350  0.20309900  1
  B  B66  1  0.00991500  0.59899900  0.83152400  1
  B  B67  1  0.51026800  0.59826400  0.18836400  1
  B  B68  1  0.51026800  0.40173600  0.68836400  1
  B  B69  1  0.12488650  0.74318150  0.52155700  1
  B  B70  1  0.21218250  0.31173850  0.78093400  1
  B  B71  1  0.75892250  0.72632650  0.40595400  1
  B  B72  1  0.36633850  0.59548650  0.70309900  1
  B  B73  1  0.21218250  0.68826150  0.28093400  1
  B  B74  1  0.71232000  0.68845800  0.14122900  1
  B  B75  1  0.39134950  0.55269250  0.51441400  1
  B  B76  1  0.93881100  0.70570900  0.43558600  1
  B  B77  1  0.48405250  0.55542550  0.37920300  1
  B  B78  1  0.39134950  0.44730750  0.01441400  1
  B  B79  1  0.43887850  0.29389750  0.94065500  1
  B  B80  1  0.86680400  0.59547800  0.02988500  1
  B  B81  1  0.62347900  0.74349800  0.72778100  1
  B  B82  1  0.62347900  0.25650200  0.22778100  1
  B  B83  1  0.16294800  0.68556300  0.70946700  1
  B  B84  1  0.34195000  0.36429800  0.39633300  1
  B  B85  1  0.25720300  0.72626200  0.11079700  1
  B  B86  1  0.71232000  0.31154200  0.64122900  1
  B  B87  1  0.29087800  0.48007600  0.70843300  1
  B  B88  1  0.84108850  0.63586550  0.78743300  1
  B  B89  1  0.58308100  0.48278200  0.17197700  1
  B  B90  1  0.00991500  0.40100100  0.33152400  1
  B  B91  1  0.66235600  0.68523500  0.61757400  1
  B  B92  1  0.89143750  0.44730950  0.76947700  1
  B  B93  1  0.29087800  0.51992400  0.20843300  1
  B  B94  1  0.16294800  0.31443700  0.20946700  1
  B  B95  1  0.84108850  0.36413450  0.28743300  1
  B  B96  1  0.12488650  0.25681850  0.02155700  1
  B  B97  1  0.43887850  0.70610250  0.44065500  1
  B  B98  1  0.98425000  0.44401100  0.08938000  1
  B  B99  1  0.25720300  0.27373800  0.61079700  1
  B  B100  1  0.25892250  0.77367350  0.90595400  1
  B  B101  1  0.29097650  0.02016650  0.37545800  1
  B  B102  1  0.43881100  0.79429100  0.93558600  1
  B  B103  1  0.36680400  0.90452200  0.52988500  1
  B  B104  1  0.39143750  0.05269050  0.26947700  1
  B  B105  1  0.08308100  0.01721800  0.67197700  1
  B  B106  1  0.04594500  0.13263700  0.99430100  1
  B  B107  1  0.58398300  0.98243800  0.99447600  1
  B  B108  1  0.84195000  0.13570200  0.89633300  1
  B  B109  1  0.29097650  0.97983350  0.87545800  1
  B  B110  1  0.04594500  0.86736300  0.49430100  1
  B  B111  1  0.58398300  0.01756200  0.49447600  1
  B  B112  1  0.54649200  0.86762800  0.59659000  1
  B  B113  1  0.54649200  0.13237200  0.09659000  1
  B  B114  1  0.48425000  0.05598900  0.58938000  1
  B  B115  1  0.98405250  0.94457450  0.87920300  1
  B  B116  1  0.16235600  0.81476500  0.11757400  1
  B  B117  1  0.86633850  0.90451350  0.20309900  1
  B  B118  1  0.50991500  0.09899900  0.83152400  1
  B  B119  1  0.01026800  0.09826400  0.18836400  1
  B  B120  1  0.01026800  0.90173600  0.68836400  1
  B  B121  1  0.62488650  0.24318150  0.52155700  1
  B  B122  1  0.71218250  0.81173850  0.78093400  1
  B  B123  1  0.25892250  0.22632650  0.40595400  1
  B  B124  1  0.86633850  0.09548650  0.70309900  1
  B  B125  1  0.71218250  0.18826150  0.28093400  1
  B  B126  1  0.21232000  0.18845800  0.14122900  1
  B  B127  1  0.89134950  0.05269250  0.51441400  1
  B  B128  1  0.43881100  0.20570900  0.43558600  1
  B  B129  1  0.98405250  0.05542550  0.37920300  1
  B  B130  1  0.89134950  0.94730750  0.01441400  1
  B  B131  1  0.93887850  0.79389750  0.94065500  1
  B  B132  1  0.36680400  0.09547800  0.02988500  1
  B  B133  1  0.12347900  0.24349800  0.72778100  1
  B  B134  1  0.12347900  0.75650200  0.22778100  1
  B  B135  1  0.66294800  0.18556300  0.70946700  1
  B  B136  1  0.84195000  0.86429800  0.39633300  1
  B  B137  1  0.75720300  0.22626200  0.11079700  1
  B  B138  1  0.21232000  0.81154200  0.64122900  1
  B  B139  1  0.79087800  0.98007600  0.70843300  1
  B  B140  1  0.34108850  0.13586550  0.78743300  1
  B  B141  1  0.08308100  0.98278200  0.17197700  1
  B  B142  1  0.50991500  0.90100100  0.33152400  1
  B  B143  1  0.16235600  0.18523500  0.61757400  1
  B  B144  1  0.39143750  0.94730950  0.76947700  1
  B  B145  1  0.79087800  0.01992400  0.20843300  1
  B  B146  1  0.66294800  0.81443700  0.20946700  1
  B  B147  1  0.34108850  0.86413450  0.28743300  1
  B  B148  1  0.62488650  0.75681850  0.02155700  1
  B  B149  1  0.93887850  0.20610250  0.44065500  1
  B  B150  1  0.48425000  0.94401100  0.08938000  1
  B  B151  1  0.75720300  0.77373800  0.61079700  1
  O  O152  1  0.44504650  0.65866350  0.94194300  1
  O  O153  1  0.09026200  0.39415900  0.52024500  1
  O  O154  1  0.24333800  0.33927700  0.35417200  1
  O  O155  1  0.80232900  0.47759300  0.74282200  1
  O  O156  1  0.03620250  0.32098350  0.09285800  1
  O  O157  1  0.88424600  0.27180500  0.00342800  1
  O  O158  1  0.81869650  0.42661050  0.58891900  1
  O  O159  1  0.15003700  0.65259100  0.26317500  1
  O  O160  1  0.99250200  0.39531500  0.65251700  1
  O  O161  1  0.05454250  0.57874850  0.76261800  1
  O  O162  1  0.84945150  0.68276250  0.27133400  1
  O  O163  1  0.55456700  0.57845100  0.34697400  1
  O  O164  1  0.58877800  0.39473600  0.65632200  1
  O  O165  1  0.65040850  0.34773650  0.53986400  1
  O  O166  1  0.18548450  0.49683750  0.54242600  1
  O  O167  1  0.68427300  0.49645700  0.82690200  1
  O  O168  1  0.49675550  0.73722250  0.59044900  1
  O  O169  1  0.37614800  0.46432000  0.70507100  1
  O  O170  1  0.20365950  0.74981350  0.95289800  1
  O  O171  1  0.87448800  0.46392800  0.04450100  1
  O  O172  1  0.38319900  0.27163400  0.76315000  1
  O  O173  1  0.66850750  0.72227650  0.00793600  1
  O  O174  1  0.05454250  0.42125150  0.26261800  1
  O  O175  1  0.38616950  0.61010250  0.05839600  1
  O  O176  1  0.30355100  0.52206500  0.36304200  1
  O  O177  1  0.66850750  0.27772350  0.50793600  1
  O  O178  1  0.87448800  0.53607200  0.54450100  1
  O  O179  1  0.30355100  0.47793500  0.86304200  1
  O  O180  1  0.03620250  0.67901650  0.59285800  1
  O  O181  1  0.65040850  0.65226350  0.03986400  1
  O  O182  1  0.17920050  0.29861950  0.60045600  1
  O  O183  1  0.55456700  0.42154900  0.84697400  1
  O  O184  1  0.20741000  0.71570300  0.66608400  1
  O  O185  1  0.88606100  0.61108700  0.71266200  1
  O  O186  1  0.07203550  0.47605550  0.12217100  1
  O  O187  1  0.94449350  0.34166950  0.44771900  1
  O  O188  1  0.99839950  0.73686150  0.40585800  1
  O  O189  1  0.68099150  0.29914750  0.76034700  1
  O  O190  1  0.88606100  0.38891300  0.21266200  1
  O  O191  1  0.24333800  0.66072300  0.85417200  1
  O  O192  1  0.93748850  0.42037350  0.92450000  1
  O  O193  1  0.43756850  0.57962750  0.45120000  1
  O  O194  1  0.17003700  0.72247100  0.33004800  1
  O  O195  1  0.38319900  0.72836600  0.26315000  1
  O  O196  1  0.49172150  0.39478850  0.32973500  1
  O  O197  1  0.53502800  0.68011600  0.47526400  1
  O  O198  1  0.17003700  0.27752900  0.83004800  1
  O  O199  1  0.44504650  0.34133650  0.44194300  1
  O  O200  1  0.70533800  0.71581600  0.74823500  1
  O  O201  1  0.43756850  0.42037250  0.95120000  1
  O  O202  1  0.57364550  0.47592050  0.02394800  1
  O  O203  1  0.84945150  0.31723750  0.77133400  1
  O  O204  1  0.31851450  0.42717750  0.04985000  1
  O  O205  1  0.17920050  0.70138050  0.10045600  1
  O  O206  1  0.15003700  0.34740900  0.76317500  1
  O  O207  1  0.37614800  0.53568000  0.20507100  1
  O  O208  1  0.68427300  0.50354300  0.32690200  1
  O  O209  1  0.70533800  0.28418400  0.24823500  1
  O  O210  1  0.28857250  0.39207650  0.23299000  1
  O  O211  1  0.09026200  0.60584100  0.02024500  1
  O  O212  1  0.38616950  0.38989750  0.55839600  1
  O  O213  1  0.80232900  0.52240700  0.24282200  1
  O  O214  1  0.74292050  0.33985750  0.13310200  1
  O  O215  1  0.70365950  0.75018650  0.45289800  1
  O  O216  1  0.99839950  0.26313850  0.90585800  1
  O  O217  1  0.99848900  0.46873100  0.81619800  1
  O  O218  1  0.49926150  0.46852750  0.18179700  1
  O  O219  1  0.57364550  0.52407950  0.52394800  1
  O  O220  1  0.07203550  0.52394450  0.62217100  1
  O  O221  1  0.20741000  0.28429700  0.16608400  1
  O  O222  1  0.99250200  0.60468500  0.15251700  1
  O  O223  1  0.99848900  0.53126900  0.31619800  1
  O  O224  1  0.49172150  0.60521150  0.82973500  1
  O  O225  1  0.18548450  0.50316250  0.04242600  1
  O  O226  1  0.34892650  0.31750650  0.92486500  1
  O  O227  1  0.28857250  0.60792350  0.73299000  1
  O  O228  1  0.93748850  0.57962650  0.42450000  1
  O  O229  1  0.68099150  0.70085250  0.26034700  1
  O  O230  1  0.49926150  0.53147250  0.68179700  1
  O  O231  1  0.34892650  0.68249350  0.42486500  1
  O  O232  1  0.49675550  0.26277750  0.09044900  1
  O  O233  1  0.58877800  0.60526400  0.15632200  1
  O  O234  1  0.31851450  0.57282250  0.54985000  1
  O  O235  1  0.78858250  0.39246150  0.34455000  1
  O  O236  1  0.88424600  0.72819500  0.50342800  1
  O  O237  1  0.78858250  0.60753850  0.84455000  1
  O  O238  1  0.81869650  0.57338950  0.08891900  1
  O  O239  1  0.94449350  0.65833050  0.94771900  1
  O  O240  1  0.74292050  0.66014250  0.63310200  1
  O  O241  1  0.53502800  0.31988400  0.97526400  1
  O  O242  1  0.94504650  0.15866350  0.94194300  1
  O  O243  1  0.59026200  0.89415900  0.52024500  1
  O  O244  1  0.74333800  0.83927700  0.35417200  1
  O  O245  1  0.30232900  0.97759300  0.74282200  1
  O  O246  1  0.53620250  0.82098350  0.09285800  1
  O  O247  1  0.38424600  0.77180500  0.00342800  1
  O  O248  1  0.31869650  0.92661050  0.58891900  1
  O  O249  1  0.65003700  0.15259100  0.26317500  1
  O  O250  1  0.49250200  0.89531500  0.65251700  1
  O  O251  1  0.55454250  0.07874850  0.76261800  1
  O  O252  1  0.34945150  0.18276250  0.27133400  1
  O  O253  1  0.05456700  0.07845100  0.34697400  1
  O  O254  1  0.08877800  0.89473600  0.65632200  1
  O  O255  1  0.15040850  0.84773650  0.53986400  1
  O  O256  1  0.68548450  0.99683750  0.54242600  1
  O  O257  1  0.18427300  0.99645700  0.82690200  1
  O  O258  1  0.99675550  0.23722250  0.59044900  1
  O  O259  1  0.87614800  0.96432000  0.70507100  1
  O  O260  1  0.70365950  0.24981350  0.95289800  1
  O  O261  1  0.37448800  0.96392800  0.04450100  1
  O  O262  1  0.88319900  0.77163400  0.76315000  1
  O  O263  1  0.16850750  0.22227650  0.00793600  1
  O  O264  1  0.55454250  0.92125150  0.26261800  1
  O  O265  1  0.88616950  0.11010250  0.05839600  1
  O  O266  1  0.80355100  0.02206500  0.36304200  1
  O  O267  1  0.16850750  0.77772350  0.50793600  1
  O  O268  1  0.37448800  0.03607200  0.54450100  1
  O  O269  1  0.80355100  0.97793500  0.86304200  1
  O  O270  1  0.53620250  0.17901650  0.59285800  1
  O  O271  1  0.15040850  0.15226350  0.03986400  1
  O  O272  1  0.67920050  0.79861950  0.60045600  1
  O  O273  1  0.05456700  0.92154900  0.84697400  1
  O  O274  1  0.70741000  0.21570300  0.66608400  1
  O  O275  1  0.38606100  0.11108700  0.71266200  1
  O  O276  1  0.57203550  0.97605550  0.12217100  1
  O  O277  1  0.44449350  0.84166950  0.44771900  1
  O  O278  1  0.49839950  0.23686150  0.40585800  1
  O  O279  1  0.18099150  0.79914750  0.76034700  1
  O  O280  1  0.38606100  0.88891300  0.21266200  1
  O  O281  1  0.74333800  0.16072300  0.85417200  1
  O  O282  1  0.43748850  0.92037350  0.92450000  1
  O  O283  1  0.93756850  0.07962750  0.45120000  1
  O  O284  1  0.67003700  0.22247100  0.33004800  1
  O  O285  1  0.88319900  0.22836600  0.26315000  1
  O  O286  1  0.99172150  0.89478850  0.32973500  1
  O  O287  1  0.03502800  0.18011600  0.47526400  1
  O  O288  1  0.67003700  0.77752900  0.83004800  1
  O  O289  1  0.94504650  0.84133650  0.44194300  1
  O  O290  1  0.20533800  0.21581600  0.74823500  1
  O  O291  1  0.93756850  0.92037250  0.95120000  1
  O  O292  1  0.07364550  0.97592050  0.02394800  1
  O  O293  1  0.34945150  0.81723750  0.77133400  1
  O  O294  1  0.81851450  0.92717750  0.04985000  1
  O  O295  1  0.67920050  0.20138050  0.10045600  1
  O  O296  1  0.65003700  0.84740900  0.76317500  1
  O  O297  1  0.87614800  0.03568000  0.20507100  1
  O  O298  1  0.18427300  0.00354300  0.32690200  1
  O  O299  1  0.20533800  0.78418400  0.24823500  1
  O  O300  1  0.78857250  0.89207650  0.23299000  1
  O  O301  1  0.59026200  0.10584100  0.02024500  1
  O  O302  1  0.88616950  0.88989750  0.55839600  1
  O  O303  1  0.30232900  0.02240700  0.24282200  1
  O  O304  1  0.24292050  0.83985750  0.13310200  1
  O  O305  1  0.20365950  0.25018650  0.45289800  1
  O  O306  1  0.49839950  0.76313850  0.90585800  1
  O  O307  1  0.49848900  0.96873100  0.81619800  1
  O  O308  1  0.99926150  0.96852750  0.18179700  1
  O  O309  1  0.07364550  0.02407950  0.52394800  1
  O  O310  1  0.57203550  0.02394450  0.62217100  1
  O  O311  1  0.70741000  0.78429700  0.16608400  1
  O  O312  1  0.49250200  0.10468500  0.15251700  1
  O  O313  1  0.49848900  0.03126900  0.31619800  1
  O  O314  1  0.99172150  0.10521150  0.82973500  1
  O  O315  1  0.68548450  0.00316250  0.04242600  1
  O  O316  1  0.84892650  0.81750650  0.92486500  1
  O  O317  1  0.78857250  0.10792350  0.73299000  1
  O  O318  1  0.43748850  0.07962650  0.42450000  1
  O  O319  1  0.18099150  0.20085250  0.26034700  1
  O  O320  1  0.99926150  0.03147250  0.68179700  1
  O  O321  1  0.84892650  0.18249350  0.42486500  1
  O  O322  1  0.99675550  0.76277750  0.09044900  1
  O  O323  1  0.08877800  0.10526400  0.15632200  1
  O  O324  1  0.81851450  0.07282250  0.54985000  1
  O  O325  1  0.28858250  0.89246150  0.34455000  1
  O  O326  1  0.38424600  0.22819500  0.50342800  1
  O  O327  1  0.28858250  0.10753850  0.84455000  1
  O  O328  1  0.31869650  0.07338950  0.08891900  1
  O  O329  1  0.44449350  0.15833050  0.94771900  1
  O  O330  1  0.24292050  0.16014250  0.63310200  1
  O  O331  1  0.03502800  0.81988400  0.97526400  1
