# generated using pymatgen
data_MgMn3(CuO4)2
_symmetry_space_group_name_H-M   'P 1'
_cell_length_a   8.45519800
_cell_length_b   8.45519800
_cell_length_c   8.45519800
_cell_angle_alpha   90.00000000
_cell_angle_beta   90.00000000
_cell_angle_gamma   90.00000000
_symmetry_Int_Tables_number   1
_chemical_formula_structural   MgMn3(CuO4)2
_chemical_formula_sum   'Mg4 Mn12 Cu8 O32'
_cell_volume   604.46526066
_cell_formula_units_Z   4
loop_
 _symmetry_equiv_pos_site_id
 _symmetry_equiv_pos_as_xyz
  1  'x, y, z'
loop_
 _atom_site_type_symbol
 _atom_site_label
 _atom_site_symmetry_multiplicity
 _atom_site_fract_x
 _atom_site_fract_y
 _atom_site_fract_z
 _atom_site_occupancy
  Mg  Mg0  1  0.37500000  0.12500000  0.87500000  1
  Mg  Mg1  1  0.12500000  0.87500000  0.37500000  1
  Mg  Mg2  1  0.87500000  0.37500000  0.12500000  1
  Mg  Mg3  1  0.62500000  0.62500000  0.62500000  1
  Mn  Mn4  1  0.87139300  0.12500000  0.37860700  1
  Mn  Mn5  1  0.37500000  0.62139300  0.37139300  1
  Mn  Mn6  1  0.87500000  0.87860700  0.62860700  1
  Mn  Mn7  1  0.37139300  0.37500000  0.62139300  1
  Mn  Mn8  1  0.12139300  0.12860700  0.62500000  1
  Mn  Mn9  1  0.12860700  0.62500000  0.12139300  1
  Mn  Mn10  1  0.62139300  0.37139300  0.37500000  1
  Mn  Mn11  1  0.62860700  0.87500000  0.87860700  1
  Mn  Mn12  1  0.12500000  0.37860700  0.87139300  1
  Mn  Mn13  1  0.62500000  0.12139300  0.12860700  1
  Mn  Mn14  1  0.37860700  0.87139300  0.12500000  1
  Mn  Mn15  1  0.87860700  0.62860700  0.87500000  1
  Cu  Cu16  1  0.99318400  0.50681600  0.49318400  1
  Cu  Cu17  1  0.74318400  0.25681600  0.75681600  1
  Cu  Cu18  1  0.25681600  0.75681600  0.74318400  1
  Cu  Cu19  1  0.00681600  0.00681600  0.00681600  1
  Cu  Cu20  1  0.50681600  0.49318400  0.99318400  1
  Cu  Cu21  1  0.75681600  0.74318400  0.25681600  1
  Cu  Cu22  1  0.49318400  0.99318400  0.50681600  1
  Cu  Cu23  1  0.24318400  0.24318400  0.24318400  1
  O  O24  1  0.10989900  0.89681300  0.62185600  1
  O  O25  1  0.60318700  0.37814400  0.60989900  1
  O  O26  1  0.14681300  0.85989900  0.12814400  1
  O  O27  1  0.89681300  0.62185600  0.10989900  1
  O  O28  1  0.85989900  0.12814400  0.14681300  1
  O  O29  1  0.10318700  0.12185600  0.39010100  1
  O  O30  1  0.87185600  0.64681300  0.64010100  1
  O  O31  1  0.12185600  0.39010100  0.10318700  1
  O  O32  1  0.13336800  0.36663200  0.63336800  1
  O  O33  1  0.64681300  0.64010100  0.87185600  1
  O  O34  1  0.38336800  0.38336800  0.38336800  1
  O  O35  1  0.88336800  0.11663200  0.61663200  1
  O  O36  1  0.36663200  0.63336800  0.13336800  1
  O  O37  1  0.37814400  0.60989900  0.60318700  1
  O  O38  1  0.89010100  0.39681300  0.87814400  1
  O  O39  1  0.62185600  0.10989900  0.89681300  1
  O  O40  1  0.64010100  0.87185600  0.64681300  1
  O  O41  1  0.61663200  0.88336800  0.11663200  1
  O  O42  1  0.11663200  0.61663200  0.88336800  1
  O  O43  1  0.85318700  0.35989900  0.37185600  1
  O  O44  1  0.60989900  0.60318700  0.37814400  1
  O  O45  1  0.87814400  0.89010100  0.39681300  1
  O  O46  1  0.63336800  0.13336800  0.36663200  1
  O  O47  1  0.86663200  0.86663200  0.86663200  1
  O  O48  1  0.14010100  0.62814400  0.35318700  1
  O  O49  1  0.39681300  0.87814400  0.89010100  1
  O  O50  1  0.35989900  0.37185600  0.85318700  1
  O  O51  1  0.37185600  0.85318700  0.35989900  1
  O  O52  1  0.62814400  0.35318700  0.14010100  1
  O  O53  1  0.12814400  0.14681300  0.85989900  1
  O  O54  1  0.35318700  0.14010100  0.62814400  1
  O  O55  1  0.39010100  0.10318700  0.12185600  1
