# generated using pymatgen
data_K2Nb6Ag(PO8)3
_symmetry_space_group_name_H-M   'P 1'
_cell_length_a   10.51657600
_cell_length_b   13.55392800
_cell_length_c   8.64329970
_cell_angle_alpha   90.00000000
_cell_angle_beta   114.25740056
_cell_angle_gamma   90.00000000
_symmetry_Int_Tables_number   1
_chemical_formula_structural   K2Nb6Ag(PO8)3
_chemical_formula_sum   'K4 Nb12 Ag2 P6 O48'
_cell_volume   1123.24720373
_cell_formula_units_Z   2
loop_
 _symmetry_equiv_pos_site_id
 _symmetry_equiv_pos_as_xyz
  1  'x, y, z'
loop_
 _atom_site_type_symbol
 _atom_site_label
 _atom_site_symmetry_multiplicity
 _atom_site_fract_x
 _atom_site_fract_y
 _atom_site_fract_z
 _atom_site_occupancy
  K  K0  1  0.32338550  0.15338850  0.77976200  1
  K  K1  1  0.67661450  0.15338850  0.22023800  1
  K  K2  1  0.82338550  0.65338850  0.77976200  1
  K  K3  1  0.17661450  0.65338850  0.22023800  1
  Nb  Nb4  1  0.09311150  0.94138650  0.35135900  1
  Nb  Nb5  1  0.25470050  0.90004550  0.03853800  1
  Nb  Nb6  1  0.74529950  0.90004550  0.96146200  1
  Nb  Nb7  1  0.19430950  0.15754250  0.15442600  1
  Nb  Nb8  1  0.90688850  0.94138650  0.64864100  1
  Nb  Nb9  1  0.80569050  0.15754250  0.84557400  1
  Nb  Nb10  1  0.59311150  0.44138650  0.35135900  1
  Nb  Nb11  1  0.75470050  0.40004550  0.03853800  1
  Nb  Nb12  1  0.24529950  0.40004550  0.96146200  1
  Nb  Nb13  1  0.69430950  0.65754250  0.15442600  1
  Nb  Nb14  1  0.40688850  0.44138650  0.64864100  1
  Nb  Nb15  1  0.30569050  0.65754250  0.84557400  1
  Ag  Ag16  1  0.50000000  0.99648100  0.50000000  1
  Ag  Ag17  1  0.00000000  0.49648100  0.50000000  1
  P  P18  1  0.38319300  0.88544300  0.73161800  1
  P  P19  1  0.61680700  0.88544300  0.26838200  1
  P  P20  1  0.50000000  0.22977600  0.50000000  1
  P  P21  1  0.88319300  0.38544300  0.73161800  1
  P  P22  1  0.11680700  0.38544300  0.26838200  1
  P  P23  1  0.00000000  0.72977600  0.50000000  1
  O  O24  1  0.25919100  0.76168000  0.97767600  1
  O  O25  1  0.07731600  0.92453200  0.84620300  1
  O  O26  1  0.34998250  0.77520350  0.71708200  1
  O  O27  1  0.50000000  0.65341600  0.00000000  1
  O  O28  1  0.18992850  0.87752550  0.20758700  1
  O  O29  1  0.35287500  0.93660800  0.87218000  1
  O  O30  1  0.29712650  0.93880450  0.56042700  1
  O  O31  1  0.54024000  0.90024900  0.76812000  1
  O  O32  1  0.14464900  0.06821100  0.31208200  1
  O  O33  1  0.65001750  0.77520350  0.28291800  1
  O  O34  1  0.45976000  0.90024900  0.23188000  1
  O  O35  1  0.26312150  0.05282450  0.06831300  1
  O  O36  1  0.74080900  0.76168000  0.02232400  1
  O  O37  1  0.81007150  0.87752550  0.79241300  1
  O  O38  1  0.70287350  0.93880450  0.43957300  1
  O  O39  1  0.64712500  0.93660800  0.12782000  1
  O  O40  1  0.73687850  0.05282450  0.93168700  1
  O  O41  1  0.39826900  0.16137500  0.35817900  1
  O  O42  1  0.60173100  0.16137500  0.64182100  1
  O  O43  1  0.41918550  0.29124750  0.57922500  1
  O  O44  1  0.85535100  0.06821100  0.68791800  1
  O  O45  1  0.58081450  0.29124750  0.42077500  1
  O  O46  1  0.92268400  0.92453200  0.15379700  1
  O  O47  1  0.50000000  0.47419300  0.50000000  1
  O  O48  1  0.75919100  0.26168000  0.97767600  1
  O  O49  1  0.57731600  0.42453200  0.84620300  1
  O  O50  1  0.84998250  0.27520350  0.71708200  1
  O  O51  1  0.00000000  0.15341600  0.00000000  1
  O  O52  1  0.68992850  0.37752550  0.20758700  1
  O  O53  1  0.85287500  0.43660800  0.87218000  1
  O  O54  1  0.79712650  0.43880450  0.56042700  1
  O  O55  1  0.04024000  0.40024900  0.76812000  1
  O  O56  1  0.64464900  0.56821100  0.31208200  1
  O  O57  1  0.15001750  0.27520350  0.28291800  1
  O  O58  1  0.95976000  0.40024900  0.23188000  1
  O  O59  1  0.76312150  0.55282450  0.06831300  1
  O  O60  1  0.24080900  0.26168000  0.02232400  1
  O  O61  1  0.31007150  0.37752550  0.79241300  1
  O  O62  1  0.20287350  0.43880450  0.43957300  1
  O  O63  1  0.14712500  0.43660800  0.12782000  1
  O  O64  1  0.23687850  0.55282450  0.93168700  1
  O  O65  1  0.89826900  0.66137500  0.35817900  1
  O  O66  1  0.10173100  0.66137500  0.64182100  1
  O  O67  1  0.91918550  0.79124750  0.57922500  1
  O  O68  1  0.35535100  0.56821100  0.68791800  1
  O  O69  1  0.08081450  0.79124750  0.42077500  1
  O  O70  1  0.42268400  0.42453200  0.15379700  1
  O  O71  1  0.00000000  0.97419300  0.50000000  1
