# generated using pymatgen
data_Ba(H2O3)2
_symmetry_space_group_name_H-M   'P 1'
_cell_length_a   8.46481000
_cell_length_b   6.36061000
_cell_length_c   8.54712343
_cell_angle_alpha   90.00000000
_cell_angle_beta   97.24658633
_cell_angle_gamma   90.00000000
_symmetry_Int_Tables_number   1
_chemical_formula_structural   Ba(H2O3)2
_chemical_formula_sum   'Ba4 H16 O24'
_cell_volume   456.51293550
_cell_formula_units_Z   4
loop_
 _symmetry_equiv_pos_site_id
 _symmetry_equiv_pos_as_xyz
  1  'x, y, z'
loop_
 _atom_site_type_symbol
 _atom_site_label
 _atom_site_symmetry_multiplicity
 _atom_site_fract_x
 _atom_site_fract_y
 _atom_site_fract_z
 _atom_site_occupancy
  Ba  Ba0  1  0.49509950  0.30212350  0.76944100  1
  Ba  Ba1  1  0.49509950  0.69787650  0.26944100  1
  Ba  Ba2  1  0.99509950  0.80212350  0.76944100  1
  Ba  Ba3  1  0.99509950  0.19787650  0.26944100  1
  H  H4  1  0.29444900  0.97711500  0.56716500  1
  H  H5  1  0.70003550  0.98218950  0.96922600  1
  H  H6  1  0.70003550  0.01781050  0.46922600  1
  H  H7  1  0.29444900  0.02288500  0.06716500  1
  H  H8  1  0.58530350  0.78175950  0.64194800  1
  H  H9  1  0.58530350  0.21824050  0.14194800  1
  H  H10  1  0.41128300  0.78681200  0.89324700  1
  H  H11  1  0.41128300  0.21318800  0.39324700  1
  H  H12  1  0.79444900  0.47711500  0.56716500  1
  H  H13  1  0.20003550  0.48218950  0.96922600  1
  H  H14  1  0.20003550  0.51781050  0.46922600  1
  H  H15  1  0.79444900  0.52288500  0.06716500  1
  H  H16  1  0.08530350  0.28175950  0.64194800  1
  H  H17  1  0.08530350  0.71824050  0.14194800  1
  H  H18  1  0.91128300  0.28681200  0.89324700  1
  H  H19  1  0.91128300  0.71318800  0.39324700  1
  O  O20  1  0.17176950  0.01418550  0.56338900  1
  O  O21  1  0.82390150  0.02335850  0.97630500  1
  O  O22  1  0.82390150  0.97664150  0.47630500  1
  O  O23  1  0.17176950  0.98581450  0.06338900  1
  O  O24  1  0.17041250  0.16734150  0.69420800  1
  O  O25  1  0.32479750  0.67547850  0.84445700  1
  O  O26  1  0.32479750  0.32452150  0.34445700  1
  O  O27  1  0.17041250  0.83265850  0.19420800  1
  O  O28  1  0.46710000  0.92900200  0.57561300  1
  O  O29  1  0.53341000  0.93778600  0.95540100  1
  O  O30  1  0.53341000  0.06221400  0.45540100  1
  O  O31  1  0.46710000  0.07099800  0.07561300  1
  O  O32  1  0.67176950  0.51418550  0.56338900  1
  O  O33  1  0.32390150  0.52335850  0.97630500  1
  O  O34  1  0.32390150  0.47664150  0.47630500  1
  O  O35  1  0.67176950  0.48581450  0.06338900  1
  O  O36  1  0.67041250  0.66734150  0.69420800  1
  O  O37  1  0.82479750  0.17547850  0.84445700  1
  O  O38  1  0.82479750  0.82452150  0.34445700  1
  O  O39  1  0.67041250  0.33265850  0.19420800  1
  O  O40  1  0.96710000  0.42900200  0.57561300  1
  O  O41  1  0.03341000  0.43778600  0.95540100  1
  O  O42  1  0.03341000  0.56221400  0.45540100  1
  O  O43  1  0.96710000  0.57099800  0.07561300  1
