# generated using pymatgen
data_NiF3
_symmetry_space_group_name_H-M   'P 1'
_cell_length_a   4.88818815
_cell_length_b   4.88818815
_cell_length_c   13.13460689
_cell_angle_alpha   90.00000000
_cell_angle_beta   90.00000000
_cell_angle_gamma   120.00000000
_symmetry_Int_Tables_number   1
_chemical_formula_structural   NiF3
_chemical_formula_sum   'Ni6 F18'
_cell_volume   271.79629873
_cell_formula_units_Z   6
loop_
 _symmetry_equiv_pos_site_id
 _symmetry_equiv_pos_as_xyz
  1  'x, y, z'
loop_
 _atom_site_type_symbol
 _atom_site_label
 _atom_site_symmetry_multiplicity
 _atom_site_fract_x
 _atom_site_fract_y
 _atom_site_fract_z
 _atom_site_occupancy
  Ni  Ni0  1  0.00000000  0.00000000  0.00000000  1
  Ni  Ni1  1  0.33333333  0.66666667  0.16666667  1
  Ni  Ni2  1  0.66666667  0.33333333  0.33333333  1
  Ni  Ni3  1  1.00000000  0.00000000  0.50000000  1
  Ni  Ni4  1  0.33333333  0.66666667  0.66666667  1
  Ni  Ni5  1  0.66666667  0.33333333  0.83333333  1
  F  F6  1  0.97761733  0.35136367  0.25384667  1
  F  F7  1  0.37374633  0.02238267  0.25384667  1
  F  F8  1  0.64863633  0.62625367  0.25384667  1
  F  F9  1  0.68904933  0.98196967  0.07948667  1
  F  F10  1  0.29292033  0.31095067  0.07948667  1
  F  F11  1  0.01803033  0.70707967  0.07948667  1
  F  F12  1  0.64428400  0.68469700  0.58718000  1
  F  F13  1  0.04041300  0.35571600  0.58718000  1
  F  F14  1  0.31530300  0.95958700  0.58718000  1
  F  F15  1  0.35571600  0.31530300  0.41282000  1
  F  F16  1  0.95958700  0.64428400  0.41282000  1
  F  F17  1  0.68469700  0.04041300  0.41282000  1
  F  F18  1  0.31095067  0.01803033  0.92051333  1
  F  F19  1  0.70707967  0.68904933  0.92051333  1
  F  F20  1  0.98196967  0.29292033  0.92051333  1
  F  F21  1  0.02238267  0.64863633  0.74615333  1
  F  F22  1  0.62625367  0.97761733  0.74615333  1
  F  F23  1  0.35136367  0.37374633  0.74615333  1
