# generated using pymatgen
data_Ga2O3
_symmetry_space_group_name_H-M   'P 1'
_cell_length_a   5.91070000
_cell_length_b   5.94872328
_cell_length_c   14.62254913
_cell_angle_alpha   88.72910888
_cell_angle_beta   87.97764636
_cell_angle_gamma   61.99429923
_symmetry_Int_Tables_number   1
_chemical_formula_structural   Ga2O3
_chemical_formula_sum   'Ga16 O24'
_cell_volume   453.64732640
_cell_formula_units_Z   8
loop_
 _symmetry_equiv_pos_site_id
 _symmetry_equiv_pos_as_xyz
  1  'x, y, z'
loop_
 _atom_site_type_symbol
 _atom_site_label
 _atom_site_symmetry_multiplicity
 _atom_site_fract_x
 _atom_site_fract_y
 _atom_site_fract_z
 _atom_site_occupancy
  Ga  Ga0  1  0.53633100  0.04035000  0.39725900  1
  Ga  Ga1  1  0.79181500  0.78450800  0.18024900  1
  Ga  Ga2  1  0.34092200  0.32436200  0.17583300  1
  Ga  Ga3  1  0.17912400  0.68995300  0.70139600  1
  Ga  Ga4  1  0.49061800  0.50178100  0.50086500  1
  Ga  Ga5  1  0.00147000  0.98672400  0.49817200  1
  Ga  Ga6  1  0.03106700  0.06317100  0.11134200  1
  Ga  Ga7  1  0.29828400  0.79257500  0.29629400  1
  Ga  Ga8  1  0.17337000  0.17586200  0.82525800  1
  Ga  Ga9  1  0.83674800  0.32115100  0.65812300  1
  Ga  Ga10  1  0.83210000  0.33743700  0.30560300  1
  Ga  Ga11  1  0.67896800  0.64949300  0.98608900  1
  Ga  Ga12  1  0.64601100  0.67900400  0.80008800  1
  Ga  Ga13  1  0.48540400  0.99016400  0.61978600  1
  Ga  Ga14  1  0.65279100  0.16616600  0.95310600  1
  Ga  Ga15  1  0.17554900  0.65279500  0.95888000  1
  O  O16  1  0.64334200  0.66258500  0.10318800  1
  O  O17  1  0.49347700  0.99469300  0.25584900  1
  O  O18  1  0.21413100  0.21611400  0.08106000  1
  O  O19  1  0.68569200  0.15514400  0.08346900  1
  O  O20  1  0.34003200  0.36714700  0.42250400  1
  O  O21  1  0.01051400  0.49427600  0.24609500  1
  O  O22  1  0.13460000  0.71037900  0.08605700  1
  O  O23  1  0.17460800  0.68197600  0.57692500  1
  O  O24  1  0.86772000  0.84199100  0.41693300  1
  O  O25  1  0.50447200  0.47828500  0.24694900  1
  O  O26  1  0.34570700  0.84669800  0.41623100  1
  O  O27  1  0.98816900  0.00815800  0.23991400  1
  O  O28  1  0.01104100  0.02148200  0.75528500  1
  O  O29  1  0.67286900  0.16750700  0.58386800  1
  O  O30  1  0.83092000  0.34677000  0.91453800  1
  O  O31  1  0.82421600  0.32253400  0.42769700  1
  O  O32  1  0.51614800  0.49133200  0.74483200  1
  O  O33  1  0.14531900  0.15214100  0.58396700  1
  O  O34  1  0.65469000  0.64486100  0.58668500  1
  O  O35  1  0.99378000  0.50047000  0.75297500  1
  O  O36  1  0.37439400  0.80824800  0.91266000  1
  O  O37  1  0.83395800  0.82219600  0.91870000  1
  O  O38  1  0.48989300  0.00576600  0.75277600  1
  O  O39  1  0.32506800  0.32908500  0.91016600  1
