# generated using pymatgen
data_MoPb5O8
_symmetry_space_group_name_H-M   'P 1'
_cell_length_a   12.01436200
_cell_length_b   12.11645000
_cell_length_c   19.85631319
_cell_angle_alpha   90.00000000
_cell_angle_beta   126.71159265
_cell_angle_gamma   90.00000000
_symmetry_Int_Tables_number   1
_chemical_formula_structural   MoPb5O8
_chemical_formula_sum   'Mo8 Pb40 O64'
_cell_volume   2317.19226899
_cell_formula_units_Z   8
loop_
 _symmetry_equiv_pos_site_id
 _symmetry_equiv_pos_as_xyz
  1  'x, y, z'
loop_
 _atom_site_type_symbol
 _atom_site_label
 _atom_site_symmetry_multiplicity
 _atom_site_fract_x
 _atom_site_fract_y
 _atom_site_fract_z
 _atom_site_occupancy
  Mo  Mo0  1  0.21161600  0.09077000  0.56050300  1
  Mo  Mo1  1  0.78838400  0.90923000  0.43949700  1
  Mo  Mo2  1  0.32002900  0.90148100  0.93966100  1
  Mo  Mo3  1  0.21161600  0.40923000  0.06050300  1
  Mo  Mo4  1  0.32002900  0.59851900  0.43966100  1
  Mo  Mo5  1  0.67997100  0.09851900  0.06033900  1
  Mo  Mo6  1  0.78838400  0.59077000  0.93949700  1
  Mo  Mo7  1  0.67997100  0.40148100  0.56033900  1
  Pb  Pb8  1  0.40636500  0.74442000  0.79487500  1
  Pb  Pb9  1  0.06046100  0.92176500  0.69586000  1
  Pb  Pb10  1  0.30581300  0.25279000  0.92114200  1
  Pb  Pb11  1  0.17390200  0.74707000  0.07494500  1
  Pb  Pb12  1  0.17580300  0.06299900  0.06526100  1
  Pb  Pb13  1  0.06046100  0.57823500  0.19586000  1
  Pb  Pb14  1  0.34091700  0.92233900  0.43902800  1
  Pb  Pb15  1  0.54876500  0.58322300  0.68284200  1
  Pb  Pb16  1  0.34091700  0.57766100  0.93902800  1
  Pb  Pb17  1  0.09232400  0.23901100  0.19728300  1
  Pb  Pb18  1  0.82609800  0.24707000  0.42505500  1
  Pb  Pb19  1  0.17580300  0.43700100  0.56526100  1
  Pb  Pb20  1  0.82419700  0.93700100  0.93473900  1
  Pb  Pb21  1  0.41809000  0.41780000  0.81307000  1
  Pb  Pb22  1  0.90767600  0.76098900  0.80271700  1
  Pb  Pb23  1  0.30581300  0.24721000  0.42114200  1
  Pb  Pb24  1  0.41809000  0.08220000  0.31307000  1
  Pb  Pb25  1  0.65908300  0.42233900  0.06097200  1
  Pb  Pb26  1  0.91698900  0.08546200  0.81006000  1
  Pb  Pb27  1  0.91698900  0.41453800  0.31006000  1
  Pb  Pb28  1  0.17390200  0.75293000  0.57494500  1
  Pb  Pb29  1  0.59363500  0.24442000  0.70512500  1
  Pb  Pb30  1  0.69418700  0.74721000  0.07885800  1
  Pb  Pb31  1  0.45123500  0.41677700  0.31715800  1
  Pb  Pb32  1  0.93953900  0.07823500  0.30414000  1
  Pb  Pb33  1  0.82419700  0.56299900  0.43473900  1
  Pb  Pb34  1  0.54876500  0.91677700  0.18284200  1
  Pb  Pb35  1  0.65908300  0.07766100  0.56097200  1
  Pb  Pb36  1  0.59363500  0.25558000  0.20512500  1
  Pb  Pb37  1  0.08301100  0.91453800  0.18994000  1
  Pb  Pb38  1  0.93953900  0.42176500  0.80414000  1
  Pb  Pb39  1  0.58191000  0.58220000  0.18693000  1
  Pb  Pb40  1  0.58191000  0.91780000  0.68693000  1
  Pb  Pb41  1  0.40636500  0.75558000  0.29487500  1
  Pb  Pb42  1  0.69418700  0.75279000  0.57885800  1
  Pb  Pb43  1  0.45123500  0.08322300  0.81715800  1
  Pb  Pb44  1  0.82609800  0.25293000  0.92505500  1
  Pb  Pb45  1  0.90767600  0.73901100  0.30271700  1
  Pb  Pb46  1  0.08301100  0.58546200  0.68994000  1
  Pb  Pb47  1  0.09232400  0.26098900  0.69728300  1
  O  O48  1  0.07309800  0.45775100  0.95575100  1
  O  O49  1  0.25368000  0.50217200  0.14330600  1
  O  O50  1  0.38177900  0.82563200  0.18200100  1
  O  O51  1  0.63480200  0.60384900  0.93458900  1
  O  O52  1  0.10448600  0.33020400  0.80936600  1
  O  O53  1  0.81929200  0.91902600  0.81514500  1
  O  O54  1  0.42386800  0.78726600  0.94786300  1
  O  O55  1  0.36099800  0.47324400  0.41047100  1
  O  O56  1  0.31592600  0.59114900  0.81187800  1
  O  O57  1  0.66801400  0.76659800  0.18812100  1
  O  O58  1  0.18070800  0.08097400  0.18485500  1
  O  O59  1  0.63900200  0.52675600  0.58952900  1
  O  O60  1  0.36519800  0.39615100  0.06541100  1
  O  O61  1  0.89551400  0.66979600  0.19063400  1
  O  O62  1  0.16428500  0.72934500  0.18725000  1
  O  O63  1  0.10448600  0.16979600  0.30936600  1
  O  O64  1  0.36519800  0.10384900  0.56541100  1
  O  O65  1  0.43135400  0.08860700  0.43639400  1
  O  O66  1  0.68407400  0.09114900  0.68812200  1
  O  O67  1  0.85728300  0.36847000  0.64248200  1
  O  O68  1  0.74632000  0.00217200  0.35669400  1
  O  O69  1  0.33198600  0.23340200  0.81187900  1
  O  O70  1  0.92690200  0.54224900  0.04424900  1
  O  O71  1  0.63480200  0.89615100  0.43458900  1
  O  O72  1  0.25368000  0.99782800  0.64330600  1
  O  O73  1  0.33646300  0.91664200  0.03602400  1
  O  O74  1  0.16428500  0.77065500  0.68725000  1
  O  O75  1  0.57613200  0.21273400  0.05213700  1
  O  O76  1  0.83162600  0.72427000  0.92053400  1
  O  O77  1  0.31592600  0.90885100  0.31187800  1
  O  O78  1  0.43135400  0.41139300  0.93639400  1
  O  O79  1  0.38177900  0.67436800  0.68200100  1
  O  O80  1  0.61822100  0.17436800  0.81799900  1
  O  O81  1  0.56864600  0.58860700  0.06360600  1
  O  O82  1  0.74632000  0.49782800  0.85669400  1
  O  O83  1  0.66353700  0.41664200  0.46397600  1
  O  O84  1  0.94765100  0.40514800  0.44234400  1
  O  O85  1  0.56864600  0.91139300  0.56360600  1
  O  O86  1  0.81929200  0.58097400  0.31514500  1
  O  O87  1  0.94765100  0.09485200  0.94234400  1
  O  O88  1  0.92690200  0.95775100  0.54424900  1
  O  O89  1  0.14271700  0.86847000  0.85751800  1
  O  O90  1  0.83571500  0.27065500  0.81275000  1
  O  O91  1  0.18070800  0.41902600  0.68485500  1
  O  O92  1  0.33198600  0.26659800  0.31187900  1
  O  O93  1  0.16837400  0.27573000  0.07946600  1
  O  O94  1  0.36099800  0.02675600  0.91047100  1
  O  O95  1  0.33646300  0.58335800  0.53602400  1
  O  O96  1  0.57613200  0.28726600  0.55213700  1
  O  O97  1  0.63900200  0.97324400  0.08952900  1
  O  O98  1  0.14271700  0.63153000  0.35751800  1
  O  O99  1  0.05234900  0.59485200  0.55765600  1
  O  O100  1  0.42386800  0.71273400  0.44786300  1
  O  O101  1  0.05234900  0.90514800  0.05765600  1
  O  O102  1  0.61822100  0.32563200  0.31799900  1
  O  O103  1  0.16837400  0.22427000  0.57946600  1
  O  O104  1  0.07309800  0.04224900  0.45575100  1
  O  O105  1  0.83571500  0.22934500  0.31275000  1
  O  O106  1  0.83162600  0.77573000  0.42053400  1
  O  O107  1  0.85728300  0.13153000  0.14248200  1
  O  O108  1  0.66353700  0.08335800  0.96397600  1
  O  O109  1  0.89551400  0.83020400  0.69063400  1
  O  O110  1  0.68407400  0.40885100  0.18812200  1
  O  O111  1  0.66801400  0.73340200  0.68812100  1
