# generated using pymatgen
data_Zn(HO)2
_symmetry_space_group_name_H-M   'P 1'
_cell_length_a   4.96287000
_cell_length_b   5.26895900
_cell_length_c   8.26997400
_cell_angle_alpha   90.00000000
_cell_angle_beta   90.00000000
_cell_angle_gamma   90.00000000
_symmetry_Int_Tables_number   1
_chemical_formula_structural   Zn(HO)2
_chemical_formula_sum   'Zn4 H8 O8'
_cell_volume   216.25286135
_cell_formula_units_Z   4
loop_
 _symmetry_equiv_pos_site_id
 _symmetry_equiv_pos_as_xyz
  1  'x, y, z'
loop_
 _atom_site_type_symbol
 _atom_site_label
 _atom_site_symmetry_multiplicity
 _atom_site_fract_x
 _atom_site_fract_y
 _atom_site_fract_z
 _atom_site_occupancy
  Zn  Zn0  1  0.94759400  0.19029300  0.86937000  1
  Zn  Zn1  1  0.55240600  0.80970700  0.36937000  1
  Zn  Zn2  1  0.44759400  0.30970700  0.13063000  1
  Zn  Zn3  1  0.05240600  0.69029300  0.63063000  1
  H  H4  1  0.63185700  0.90928000  0.70949400  1
  H  H5  1  0.86814300  0.09072000  0.20949400  1
  H  H6  1  0.13185700  0.59072000  0.29050600  1
  H  H7  1  0.36814300  0.40928000  0.79050600  1
  H  H8  1  0.80823100  0.40310900  0.41411200  1
  H  H9  1  0.69176900  0.59689100  0.91411200  1
  H  H10  1  0.30823100  0.09689100  0.58588800  1
  H  H11  1  0.19176900  0.90310900  0.08588800  1
  O  O12  1  0.85920200  0.58276800  0.42870300  1
  O  O13  1  0.64079800  0.41723200  0.92870300  1
  O  O14  1  0.35920200  0.91723200  0.57129700  1
  O  O15  1  0.14079800  0.08276800  0.07129700  1
  O  O16  1  0.79916500  0.87884100  0.77363400  1
  O  O17  1  0.70083500  0.12115900  0.27363400  1
  O  O18  1  0.29916500  0.62115900  0.22636600  1
  O  O19  1  0.20083500  0.37884100  0.72636600  1
