# generated using pymatgen
data_Na3In(PO4)2
_symmetry_space_group_name_H-M   'P 1'
_cell_length_a   8.77266000
_cell_length_b   5.53642600
_cell_length_c   7.13096757
_cell_angle_alpha   90.00000000
_cell_angle_beta   90.26025556
_cell_angle_gamma   90.00000000
_symmetry_Int_Tables_number   1
_chemical_formula_structural   Na3In(PO4)2
_chemical_formula_sum   'Na6 In2 P4 O16'
_cell_volume   346.34169502
_cell_formula_units_Z   2
loop_
 _symmetry_equiv_pos_site_id
 _symmetry_equiv_pos_as_xyz
  1  'x, y, z'
loop_
 _atom_site_type_symbol
 _atom_site_label
 _atom_site_symmetry_multiplicity
 _atom_site_fract_x
 _atom_site_fract_y
 _atom_site_fract_z
 _atom_site_occupancy
  Na  Na0  1  0.31215400  0.00000000  0.28445900  1
  Na  Na1  1  0.00000000  0.00000000  0.50000000  1
  Na  Na2  1  0.68784600  0.00000000  0.71554100  1
  Na  Na3  1  0.81215400  0.50000000  0.28445900  1
  Na  Na4  1  0.50000000  0.50000000  0.50000000  1
  Na  Na5  1  0.18784600  0.50000000  0.71554100  1
  In  In6  1  0.00000000  0.00000000  0.00000000  1
  In  In7  1  0.50000000  0.50000000  0.00000000  1
  P  P8  1  0.34563000  0.00000000  0.77714200  1
  P  P9  1  0.65437000  0.00000000  0.22285800  1
  P  P10  1  0.84563000  0.50000000  0.77714200  1
  P  P11  1  0.15437000  0.50000000  0.22285800  1
  O  O12  1  0.74967200  0.00000000  0.40161100  1
  O  O13  1  0.25032800  0.00000000  0.59838900  1
  O  O14  1  0.54696700  0.22911300  0.22074100  1
  O  O15  1  0.45303300  0.22911300  0.77925900  1
  O  O16  1  0.45303300  0.77088700  0.77925900  1
  O  O17  1  0.54696700  0.77088700  0.22074100  1
  O  O18  1  0.75597700  0.00000000  0.04531100  1
  O  O19  1  0.24402300  0.00000000  0.95468900  1
  O  O20  1  0.24967200  0.50000000  0.40161100  1
  O  O21  1  0.75032800  0.50000000  0.59838900  1
  O  O22  1  0.04696700  0.72911300  0.22074100  1
  O  O23  1  0.95303300  0.72911300  0.77925900  1
  O  O24  1  0.95303300  0.27088700  0.77925900  1
  O  O25  1  0.04696700  0.27088700  0.22074100  1
  O  O26  1  0.25597700  0.50000000  0.04531100  1
  O  O27  1  0.74402300  0.50000000  0.95468900  1
