# generated using pymatgen
data_LaSc3(BO3)4
_symmetry_space_group_name_H-M   'P 1'
_cell_length_a   7.81059600
_cell_length_b   9.94105400
_cell_length_c   12.18826859
_cell_angle_alpha   90.00000000
_cell_angle_beta   105.50731222
_cell_angle_gamma   90.00000000
_symmetry_Int_Tables_number   1
_chemical_formula_structural   LaSc3(BO3)4
_chemical_formula_sum   'La4 Sc12 B16 O48'
_cell_volume   911.91375242
_cell_formula_units_Z   4
loop_
 _symmetry_equiv_pos_site_id
 _symmetry_equiv_pos_as_xyz
  1  'x, y, z'
loop_
 _atom_site_type_symbol
 _atom_site_label
 _atom_site_symmetry_multiplicity
 _atom_site_fract_x
 _atom_site_fract_y
 _atom_site_fract_z
 _atom_site_occupancy
  La  La0  1  0.50000000  0.46508200  0.25000000  1
  La  La1  1  0.50000000  0.53491800  0.75000000  1
  La  La2  1  0.00000000  0.96508200  0.25000000  1
  La  La3  1  0.00000000  0.03491800  0.75000000  1
  Sc  Sc4  1  0.54797100  0.24975000  0.52511500  1
  Sc  Sc5  1  0.45202900  0.24975000  0.97488500  1
  Sc  Sc6  1  0.45202900  0.75025000  0.47488500  1
  Sc  Sc7  1  0.54797100  0.75025000  0.02511500  1
  Sc  Sc8  1  0.50000000  0.92504900  0.25000000  1
  Sc  Sc9  1  0.50000000  0.07495100  0.75000000  1
  Sc  Sc10  1  0.04797100  0.74975000  0.52511500  1
  Sc  Sc11  1  0.95202900  0.74975000  0.97488500  1
  Sc  Sc12  1  0.95202900  0.25025000  0.47488500  1
  Sc  Sc13  1  0.04797100  0.25025000  0.02511500  1
  Sc  Sc14  1  0.00000000  0.42504900  0.25000000  1
  Sc  Sc15  1  0.00000000  0.57495100  0.75000000  1
  B  B16  1  0.24622900  0.97529100  0.00046400  1
  B  B17  1  0.75377100  0.97529100  0.49953600  1
  B  B18  1  0.75377100  0.02470900  0.99953600  1
  B  B19  1  0.24622900  0.02470900  0.50046400  1
  B  B20  1  0.70171250  0.19531750  0.22600700  1
  B  B21  1  0.29828750  0.19531750  0.27399300  1
  B  B22  1  0.29828750  0.80468250  0.77399300  1
  B  B23  1  0.70171250  0.80468250  0.72600700  1
  B  B24  1  0.74622900  0.47529100  0.00046400  1
  B  B25  1  0.25377100  0.47529100  0.49953600  1
  B  B26  1  0.25377100  0.52470900  0.99953600  1
  B  B27  1  0.74622900  0.52470900  0.50046400  1
  B  B28  1  0.20171250  0.69531750  0.22600700  1
  B  B29  1  0.79828750  0.69531750  0.27399300  1
  B  B30  1  0.79828750  0.30468250  0.77399300  1
  B  B31  1  0.20171250  0.30468250  0.72600700  1
  O  O32  1  0.33832000  0.22894500  0.79453900  1
  O  O33  1  0.66168000  0.22894500  0.70546100  1
  O  O34  1  0.66168000  0.77105500  0.20546100  1
  O  O35  1  0.33832000  0.77105500  0.29453900  1
  O  O36  1  0.90108700  0.90922100  0.56675700  1
  O  O37  1  0.09891300  0.90922100  0.93324300  1
  O  O38  1  0.09891300  0.09077900  0.43324300  1
  O  O39  1  0.90108700  0.09077900  0.06675700  1
  O  O40  1  0.70186650  0.05757650  0.24067600  1
  O  O41  1  0.29813350  0.05757650  0.25932400  1
  O  O42  1  0.29813350  0.94242350  0.75932400  1
  O  O43  1  0.70186650  0.94242350  0.74067600  1
  O  O44  1  0.24654700  0.11499200  0.99470700  1
  O  O45  1  0.75345300  0.11499200  0.50529300  1
  O  O46  1  0.75345300  0.88500800  0.00529300  1
  O  O47  1  0.24654700  0.88500800  0.49470700  1
  O  O48  1  0.56968050  0.73708750  0.64768800  1
  O  O49  1  0.43031950  0.73708750  0.85231200  1
  O  O50  1  0.43031950  0.26291250  0.35231200  1
  O  O51  1  0.56968050  0.26291250  0.14768800  1
  O  O52  1  0.38945650  0.09454750  0.56847200  1
  O  O53  1  0.61054350  0.09454750  0.93152800  1
  O  O54  1  0.61054350  0.90545250  0.43152800  1
  O  O55  1  0.38945650  0.90545250  0.06847200  1
  O  O56  1  0.83832000  0.72894500  0.79453900  1
  O  O57  1  0.16168000  0.72894500  0.70546100  1
  O  O58  1  0.16168000  0.27105500  0.20546100  1
  O  O59  1  0.83832000  0.27105500  0.29453900  1
  O  O60  1  0.40108700  0.40922100  0.56675700  1
  O  O61  1  0.59891300  0.40922100  0.93324300  1
  O  O62  1  0.59891300  0.59077900  0.43324300  1
  O  O63  1  0.40108700  0.59077900  0.06675700  1
  O  O64  1  0.20186650  0.55757650  0.24067600  1
  O  O65  1  0.79813350  0.55757650  0.25932400  1
  O  O66  1  0.79813350  0.44242350  0.75932400  1
  O  O67  1  0.20186650  0.44242350  0.74067600  1
  O  O68  1  0.74654700  0.61499200  0.99470700  1
  O  O69  1  0.25345300  0.61499200  0.50529300  1
  O  O70  1  0.25345300  0.38500800  0.00529300  1
  O  O71  1  0.74654700  0.38500800  0.49470700  1
  O  O72  1  0.06968050  0.23708750  0.64768800  1
  O  O73  1  0.93031950  0.23708750  0.85231200  1
  O  O74  1  0.93031950  0.76291250  0.35231200  1
  O  O75  1  0.06968050  0.76291250  0.14768800  1
  O  O76  1  0.88945650  0.59454750  0.56847200  1
  O  O77  1  0.11054350  0.59454750  0.93152800  1
  O  O78  1  0.11054350  0.40545250  0.43152800  1
  O  O79  1  0.88945650  0.40545250  0.06847200  1
