# generated using pymatgen
data_NbTeCl9
_symmetry_space_group_name_H-M   'P 1'
_cell_length_a   22.66069400
_cell_length_b   6.66919000
_cell_length_c   20.07569989
_cell_angle_alpha   90.00000000
_cell_angle_beta   107.17852919
_cell_angle_gamma   90.00000000
_symmetry_Int_Tables_number   1
_chemical_formula_structural   NbTeCl9
_chemical_formula_sum   'Nb8 Te8 Cl72'
_cell_volume   2898.65999632
_cell_formula_units_Z   8
loop_
 _symmetry_equiv_pos_site_id
 _symmetry_equiv_pos_as_xyz
  1  'x, y, z'
loop_
 _atom_site_type_symbol
 _atom_site_label
 _atom_site_symmetry_multiplicity
 _atom_site_fract_x
 _atom_site_fract_y
 _atom_site_fract_z
 _atom_site_occupancy
  Nb  Nb0  1  0.85432850  0.29530350  0.62489200  1
  Nb  Nb1  1  0.64567150  0.20469650  0.37510800  1
  Nb  Nb2  1  0.64567150  0.79530350  0.87510800  1
  Nb  Nb3  1  0.85432850  0.70469650  0.12489200  1
  Nb  Nb4  1  0.35432850  0.79530350  0.62489200  1
  Nb  Nb5  1  0.14567150  0.70469650  0.37510800  1
  Nb  Nb6  1  0.14567150  0.29530350  0.87510800  1
  Nb  Nb7  1  0.35432850  0.20469650  0.12489200  1
  Te  Te8  1  0.91798450  0.19572950  0.83877900  1
  Te  Te9  1  0.58201550  0.30427050  0.16122100  1
  Te  Te10  1  0.58201550  0.69572950  0.66122100  1
  Te  Te11  1  0.91798450  0.80427050  0.33877900  1
  Te  Te12  1  0.41798450  0.69572950  0.83877900  1
  Te  Te13  1  0.08201550  0.80427050  0.16122100  1
  Te  Te14  1  0.08201550  0.19572950  0.66122100  1
  Te  Te15  1  0.41798450  0.30427050  0.33877900  1
  Cl  Cl16  1  0.91357650  0.03000950  0.70599200  1
  Cl  Cl17  1  0.54539900  0.05274400  0.35976500  1
  Cl  Cl18  1  0.69588900  0.92767600  0.43437500  1
  Cl  Cl19  1  0.82232600  0.04087700  0.82498300  1
  Cl  Cl20  1  0.58642350  0.53000950  0.79400800  1
  Cl  Cl21  1  0.91140550  0.39024450  0.93543100  1
  Cl  Cl22  1  0.63786700  0.37810200  0.47133900  1
  Cl  Cl23  1  0.95460100  0.44725600  0.64023500  1
  Cl  Cl24  1  0.58642350  0.46999050  0.29400800  1
  Cl  Cl25  1  0.63786700  0.62189800  0.97133900  1
  Cl  Cl26  1  0.97361850  0.92226650  0.90321700  1
  Cl  Cl27  1  0.58859450  0.10975550  0.06456900  1
  Cl  Cl28  1  0.58859450  0.89024450  0.56456900  1
  Cl  Cl29  1  0.91357650  0.96999050  0.20599200  1
  Cl  Cl30  1  0.54539900  0.94725600  0.85976500  1
  Cl  Cl31  1  0.64594400  0.02564900  0.26377400  1
  Cl  Cl32  1  0.82232600  0.95912300  0.32498300  1
  Cl  Cl33  1  0.64594400  0.97435100  0.76377400  1
  Cl  Cl34  1  0.67767400  0.45912300  0.17501700  1
  Cl  Cl35  1  0.85405600  0.47435100  0.73622600  1
  Cl  Cl36  1  0.86213300  0.12189800  0.52866100  1
  Cl  Cl37  1  0.69588900  0.07232400  0.93437500  1
  Cl  Cl38  1  0.52638150  0.42226650  0.59678300  1
  Cl  Cl39  1  0.95460100  0.55274400  0.14023500  1
  Cl  Cl40  1  0.85405600  0.52564900  0.23622600  1
  Cl  Cl41  1  0.86213300  0.87810200  0.02866100  1
  Cl  Cl42  1  0.97361850  0.07773350  0.40321700  1
  Cl  Cl43  1  0.73473250  0.37289150  0.37230100  1
  Cl  Cl44  1  0.73473250  0.62710850  0.87230100  1
  Cl  Cl45  1  0.52638150  0.57773350  0.09678300  1
  Cl  Cl46  1  0.80411100  0.42767600  0.06562500  1
  Cl  Cl47  1  0.91140550  0.60975550  0.43543100  1
  Cl  Cl48  1  0.76526750  0.12710850  0.62769900  1
  Cl  Cl49  1  0.67767400  0.54087700  0.67501700  1
  Cl  Cl50  1  0.80411100  0.57232400  0.56562500  1
  Cl  Cl51  1  0.76526750  0.87289150  0.12769900  1
  Cl  Cl52  1  0.41357650  0.53000950  0.70599200  1
  Cl  Cl53  1  0.04539900  0.55274400  0.35976500  1
  Cl  Cl54  1  0.19588900  0.42767600  0.43437500  1
  Cl  Cl55  1  0.32232600  0.54087700  0.82498300  1
  Cl  Cl56  1  0.08642350  0.03000950  0.79400800  1
  Cl  Cl57  1  0.41140550  0.89024450  0.93543100  1
  Cl  Cl58  1  0.13786700  0.87810200  0.47133900  1
  Cl  Cl59  1  0.45460100  0.94725600  0.64023500  1
  Cl  Cl60  1  0.08642350  0.96999050  0.29400800  1
  Cl  Cl61  1  0.13786700  0.12189800  0.97133900  1
  Cl  Cl62  1  0.47361850  0.42226650  0.90321700  1
  Cl  Cl63  1  0.08859450  0.60975550  0.06456900  1
  Cl  Cl64  1  0.08859450  0.39024450  0.56456900  1
  Cl  Cl65  1  0.41357650  0.46999050  0.20599200  1
  Cl  Cl66  1  0.04539900  0.44725600  0.85976500  1
  Cl  Cl67  1  0.14594400  0.52564900  0.26377400  1
  Cl  Cl68  1  0.32232600  0.45912300  0.32498300  1
  Cl  Cl69  1  0.14594400  0.47435100  0.76377400  1
  Cl  Cl70  1  0.17767400  0.95912300  0.17501700  1
  Cl  Cl71  1  0.35405600  0.97435100  0.73622600  1
  Cl  Cl72  1  0.36213300  0.62189800  0.52866100  1
  Cl  Cl73  1  0.19588900  0.57232400  0.93437500  1
  Cl  Cl74  1  0.02638150  0.92226650  0.59678300  1
  Cl  Cl75  1  0.45460100  0.05274400  0.14023500  1
  Cl  Cl76  1  0.35405600  0.02564900  0.23622600  1
  Cl  Cl77  1  0.36213300  0.37810200  0.02866100  1
  Cl  Cl78  1  0.47361850  0.57773350  0.40321700  1
  Cl  Cl79  1  0.23473250  0.87289150  0.37230100  1
  Cl  Cl80  1  0.23473250  0.12710850  0.87230100  1
  Cl  Cl81  1  0.02638150  0.07773350  0.09678300  1
  Cl  Cl82  1  0.30411100  0.92767600  0.06562500  1
  Cl  Cl83  1  0.41140550  0.10975550  0.43543100  1
  Cl  Cl84  1  0.26526750  0.62710850  0.62769900  1
  Cl  Cl85  1  0.17767400  0.04087700  0.67501700  1
  Cl  Cl86  1  0.30411100  0.07232400  0.56562500  1
  Cl  Cl87  1  0.26526750  0.37289150  0.12769900  1
