# generated using pymatgen
data_YAgSe2
_symmetry_space_group_name_H-M   'P 1'
_cell_length_a   13.35826950
_cell_length_b   5.72809744
_cell_length_c   5.72834320
_cell_angle_alpha   90.00000000
_cell_angle_beta   115.06957482
_cell_angle_gamma   90.00000000
_symmetry_Int_Tables_number   1
_chemical_formula_structural   YAgSe2
_chemical_formula_sum   'Y4 Ag4 Se8'
_cell_volume   397.02607847
_cell_formula_units_Z   4
loop_
 _symmetry_equiv_pos_site_id
 _symmetry_equiv_pos_as_xyz
  1  'x, y, z'
loop_
 _atom_site_type_symbol
 _atom_site_label
 _atom_site_symmetry_multiplicity
 _atom_site_fract_x
 _atom_site_fract_y
 _atom_site_fract_z
 _atom_site_occupancy
  Y  Y0  1  0.00033761  0.00000000  0.00304093  1
  Y  Y1  1  0.74943645  0.50000000  0.74462677  1
  Y  Y2  1  0.50033761  0.50000000  0.00304093  1
  Y  Y3  1  0.24943645  0.00000000  0.74462677  1
  Ag  Ag4  1  0.50307129  0.00000000  0.50511294  1
  Ag  Ag5  1  0.74866636  0.00000000  0.25391484  1
  Ag  Ag6  1  0.00307129  0.50000000  0.50511294  1
  Ag  Ag7  1  0.24866636  0.50000000  0.25391484  1
  Se  Se8  1  0.73779966  0.50000000  0.23514682  1
  Se  Se9  1  0.76248242  0.00000000  0.76513373  1
  Se  Se10  1  0.51204761  0.50000000  0.51367001  1
  Se  Se11  1  0.98710499  0.50000000  0.98803195  1
  Se  Se12  1  0.23779966  0.00000000  0.23514682  1
  Se  Se13  1  0.26248242  0.50000000  0.76513373  1
  Se  Se14  1  0.01204761  0.00000000  0.51367001  1
  Se  Se15  1  0.48710499  0.00000000  0.98803195  1
