# generated using pymatgen
data_Gd3B2(O2F)3
_symmetry_space_group_name_H-M   'P 1'
_cell_length_a   12.85742066
_cell_length_b   6.23672800
_cell_length_c   8.36450335
_cell_angle_alpha   90.00000000
_cell_angle_beta   96.87675821
_cell_angle_gamma   90.00000000
_symmetry_Int_Tables_number   1
_chemical_formula_structural   Gd3B2(O2F)3
_chemical_formula_sum   'Gd12 B8 O24 F12'
_cell_volume   665.90949403
_cell_formula_units_Z   4
loop_
 _symmetry_equiv_pos_site_id
 _symmetry_equiv_pos_as_xyz
  1  'x, y, z'
loop_
 _atom_site_type_symbol
 _atom_site_label
 _atom_site_symmetry_multiplicity
 _atom_site_fract_x
 _atom_site_fract_y
 _atom_site_fract_z
 _atom_site_occupancy
  Gd  Gd0  1  0.82197550  0.60819750  0.82016500  1
  Gd  Gd1  1  0.67802450  0.89180250  0.17983500  1
  Gd  Gd2  1  0.00000000  0.10367400  0.75000000  1
  Gd  Gd3  1  0.00000000  0.89632600  0.25000000  1
  Gd  Gd4  1  0.67802450  0.10819750  0.67983500  1
  Gd  Gd5  1  0.82197550  0.39180250  0.32016500  1
  Gd  Gd6  1  0.32197550  0.10819750  0.82016500  1
  Gd  Gd7  1  0.17802450  0.39180250  0.17983500  1
  Gd  Gd8  1  0.50000000  0.60367400  0.75000000  1
  Gd  Gd9  1  0.50000000  0.39632600  0.25000000  1
  Gd  Gd10  1  0.17802450  0.60819750  0.67983500  1
  Gd  Gd11  1  0.32197550  0.89180250  0.32016500  1
  B  B12  1  0.81923800  0.09092100  0.97859500  1
  B  B13  1  0.68076200  0.40907900  0.02140500  1
  B  B14  1  0.81923800  0.90907900  0.47859500  1
  B  B15  1  0.68076200  0.59092100  0.52140500  1
  B  B16  1  0.31923800  0.59092100  0.97859500  1
  B  B17  1  0.18076200  0.90907900  0.02140500  1
  B  B18  1  0.31923800  0.40907900  0.47859500  1
  B  B19  1  0.18076200  0.09092100  0.52140500  1
  O  O20  1  0.76094350  0.44539450  0.57491900  1
  O  O21  1  0.64951500  0.59824900  0.35682200  1
  O  O22  1  0.73905650  0.94539450  0.92508100  1
  O  O23  1  0.64941600  0.73154200  0.63386500  1
  O  O24  1  0.85048500  0.09824900  0.14317800  1
  O  O25  1  0.85058400  0.23154200  0.86613500  1
  O  O26  1  0.64941600  0.26845800  0.13386500  1
  O  O27  1  0.76094350  0.55460550  0.07491900  1
  O  O28  1  0.73905650  0.05460550  0.42508100  1
  O  O29  1  0.85058400  0.76845800  0.36613500  1
  O  O30  1  0.64951500  0.40175100  0.85682200  1
  O  O31  1  0.85048500  0.90175100  0.64317800  1
  O  O32  1  0.26094350  0.94539450  0.57491900  1
  O  O33  1  0.14951500  0.09824900  0.35682200  1
  O  O34  1  0.23905650  0.44539450  0.92508100  1
  O  O35  1  0.14941600  0.23154200  0.63386500  1
  O  O36  1  0.35048500  0.59824900  0.14317800  1
  O  O37  1  0.35058400  0.73154200  0.86613500  1
  O  O38  1  0.14941600  0.76845800  0.13386500  1
  O  O39  1  0.26094350  0.05460550  0.07491900  1
  O  O40  1  0.23905650  0.55460550  0.42508100  1
  O  O41  1  0.35058400  0.26845800  0.36613500  1
  O  O42  1  0.14951500  0.90175100  0.85682200  1
  O  O43  1  0.35048500  0.40175100  0.64317800  1
  F  F44  1  0.55239050  0.67944650  0.04142100  1
  F  F45  1  0.94760950  0.82055350  0.95857900  1
  F  F46  1  0.55239050  0.32055350  0.54142100  1
  F  F47  1  0.00000000  0.47824000  0.75000000  1
  F  F48  1  0.94760950  0.17944650  0.45857900  1
  F  F49  1  0.00000000  0.52176000  0.25000000  1
  F  F50  1  0.05239050  0.17944650  0.04142100  1
  F  F51  1  0.44760950  0.32055350  0.95857900  1
  F  F52  1  0.05239050  0.82055350  0.54142100  1
  F  F53  1  0.50000000  0.97824000  0.75000000  1
  F  F54  1  0.44760950  0.67944650  0.45857900  1
  F  F55  1  0.50000000  0.02176000  0.25000000  1
