# generated using pymatgen
data_OsC3I2O3
_symmetry_space_group_name_H-M   'P 1'
_cell_length_a   11.19600200
_cell_length_b   7.80442000
_cell_length_c   9.83623365
_cell_angle_alpha   90.00000000
_cell_angle_beta   107.25426824
_cell_angle_gamma   90.00000000
_symmetry_Int_Tables_number   1
_chemical_formula_structural   OsC3I2O3
_chemical_formula_sum   'Os4 C12 I8 O12'
_cell_volume   820.79524419
_cell_formula_units_Z   4
loop_
 _symmetry_equiv_pos_site_id
 _symmetry_equiv_pos_as_xyz
  1  'x, y, z'
loop_
 _atom_site_type_symbol
 _atom_site_label
 _atom_site_symmetry_multiplicity
 _atom_site_fract_x
 _atom_site_fract_y
 _atom_site_fract_z
 _atom_site_occupancy
  Os  Os0  1  0.93172900  0.50000000  0.27793300  1
  Os  Os1  1  0.06827100  0.50000000  0.72206700  1
  Os  Os2  1  0.43172900  0.00000000  0.27793300  1
  Os  Os3  1  0.56827100  0.00000000  0.72206700  1
  C  C4  1  0.90522300  0.68223200  0.14308400  1
  C  C5  1  0.23728900  0.50000000  0.71471300  1
  C  C6  1  0.90522300  0.31776800  0.14308400  1
  C  C7  1  0.09477700  0.31776800  0.85691600  1
  C  C8  1  0.76271100  0.50000000  0.28528700  1
  C  C9  1  0.09477700  0.68223200  0.85691600  1
  C  C10  1  0.40522300  0.18223200  0.14308400  1
  C  C11  1  0.73728900  0.00000000  0.71471300  1
  C  C12  1  0.40522300  0.81776800  0.14308400  1
  C  C13  1  0.59477700  0.81776800  0.85691600  1
  C  C14  1  0.26271100  0.00000000  0.28528700  1
  C  C15  1  0.59477700  0.18223200  0.85691600  1
  I  I16  1  0.00000000  0.25969500  0.50000000  1
  I  I17  1  0.82177900  0.50000000  0.73132300  1
  I  I18  1  0.17822100  0.50000000  0.26867700  1
  I  I19  1  0.00000000  0.74030500  0.50000000  1
  I  I20  1  0.50000000  0.75969500  0.50000000  1
  I  I21  1  0.32177900  0.00000000  0.73132300  1
  I  I22  1  0.67822100  0.00000000  0.26867700  1
  I  I23  1  0.50000000  0.24030500  0.50000000  1
  O  O24  1  0.10830050  0.20262950  0.93387600  1
  O  O25  1  0.34145600  0.50000000  0.71731300  1
  O  O26  1  0.89169950  0.79737050  0.06612400  1
  O  O27  1  0.89169950  0.20262950  0.06612400  1
  O  O28  1  0.10830050  0.79737050  0.93387600  1
  O  O29  1  0.65854400  0.50000000  0.28268700  1
  O  O30  1  0.60830050  0.70262950  0.93387600  1
  O  O31  1  0.84145600  0.00000000  0.71731300  1
  O  O32  1  0.39169950  0.29737050  0.06612400  1
  O  O33  1  0.39169950  0.70262950  0.06612400  1
  O  O34  1  0.60830050  0.29737050  0.93387600  1
  O  O35  1  0.15854400  0.00000000  0.28268700  1
