# generated using pymatgen
data_Ca4GdB3O10
_symmetry_space_group_name_H-M   'P 1'
_cell_length_a   8.15072800
_cell_length_b   16.17749000
_cell_length_c   3.58311286
_cell_angle_alpha   90.00000000
_cell_angle_beta   101.26198936
_cell_angle_gamma   90.00000000
_symmetry_Int_Tables_number   1
_chemical_formula_structural   Ca4GdB3O10
_chemical_formula_sum   'Ca8 Gd2 B6 O20'
_cell_volume   463.36569827
_cell_formula_units_Z   2
loop_
 _symmetry_equiv_pos_site_id
 _symmetry_equiv_pos_as_xyz
  1  'x, y, z'
loop_
 _atom_site_type_symbol
 _atom_site_label
 _atom_site_symmetry_multiplicity
 _atom_site_fract_x
 _atom_site_fract_y
 _atom_site_fract_z
 _atom_site_occupancy
  Ca  Ca0  1  0.26362850  0.81812850  0.65751100  1
  Ca  Ca1  1  0.76362850  0.68187150  0.65751100  1
  Ca  Ca2  1  0.14156250  0.61284950  0.32740300  1
  Ca  Ca3  1  0.64156250  0.88715050  0.32740300  1
  Ca  Ca4  1  0.76362850  0.31812850  0.65751100  1
  Ca  Ca5  1  0.26362850  0.18187150  0.65751100  1
  Ca  Ca6  1  0.64156250  0.11284950  0.32740300  1
  Ca  Ca7  1  0.14156250  0.38715050  0.32740300  1
  Gd  Gd8  1  0.00112900  0.00000000  0.00210300  1
  Gd  Gd9  1  0.50112900  0.50000000  0.00210300  1
  B  B10  1  0.94897500  0.80509100  0.08033100  1
  B  B11  1  0.44897500  0.69490900  0.08033100  1
  B  B12  1  0.37527900  0.00000000  0.70119000  1
  B  B13  1  0.44897500  0.30509100  0.08033100  1
  B  B14  1  0.94897500  0.19490900  0.08033100  1
  B  B15  1  0.87527900  0.50000000  0.70119000  1
  O  O16  1  0.20108100  0.00000000  0.60698400  1
  O  O17  1  0.96719850  0.73031550  0.27158600  1
  O  O18  1  0.82813000  0.00000000  0.42176300  1
  O  O19  1  0.46096500  0.92553500  0.74799000  1
  O  O20  1  0.96096500  0.57446500  0.74799000  1
  O  O21  1  0.29183550  0.67241050  0.88309100  1
  O  O22  1  0.79183550  0.82758950  0.88309100  1
  O  O23  1  0.58647450  0.64311150  0.08166800  1
  O  O24  1  0.08647450  0.85688850  0.08166800  1
  O  O25  1  0.46719850  0.76968450  0.27158600  1
  O  O26  1  0.70108100  0.50000000  0.60698400  1
  O  O27  1  0.46719850  0.23031550  0.27158600  1
  O  O28  1  0.32813000  0.50000000  0.42176300  1
  O  O29  1  0.96096500  0.42553500  0.74799000  1
  O  O30  1  0.46096500  0.07446500  0.74799000  1
  O  O31  1  0.79183550  0.17241050  0.88309100  1
  O  O32  1  0.29183550  0.32758950  0.88309100  1
  O  O33  1  0.08647450  0.14311150  0.08166800  1
  O  O34  1  0.58647450  0.35688850  0.08166800  1
  O  O35  1  0.96719850  0.26968450  0.27158600  1
