# generated using pymatgen
data_Ta8Pb6O25
_symmetry_space_group_name_H-M   'P 1'
_cell_length_a   10.65247200
_cell_length_b   10.70456600
_cell_length_c   10.61819548
_cell_angle_alpha   90.00000000
_cell_angle_beta   90.10397558
_cell_angle_gamma   90.00000000
_symmetry_Int_Tables_number   1
_chemical_formula_structural   Ta8Pb6O25
_chemical_formula_sum   'Ta16 Pb12 O50'
_cell_volume   1210.79178859
_cell_formula_units_Z   2
loop_
 _symmetry_equiv_pos_site_id
 _symmetry_equiv_pos_as_xyz
  1  'x, y, z'
loop_
 _atom_site_type_symbol
 _atom_site_label
 _atom_site_symmetry_multiplicity
 _atom_site_fract_x
 _atom_site_fract_y
 _atom_site_fract_z
 _atom_site_occupancy
  Ta  Ta0  1  0.12602400  0.12412600  0.12617400  1
  Ta  Ta1  1  0.62903800  0.87758600  0.37699400  1
  Ta  Ta2  1  0.37800400  0.37435900  0.12683000  1
  Ta  Ta3  1  0.62384900  0.12793400  0.62320600  1
  Ta  Ta4  1  0.87397600  0.12412600  0.87382600  1
  Ta  Ta5  1  0.62199600  0.37435900  0.87317000  1
  Ta  Ta6  1  0.37096200  0.87758600  0.62300600  1
  Ta  Ta7  1  0.37615100  0.12793400  0.37679400  1
  Ta  Ta8  1  0.62602400  0.62412600  0.12617400  1
  Ta  Ta9  1  0.12903800  0.37758600  0.37699400  1
  Ta  Ta10  1  0.87800400  0.87435900  0.12683000  1
  Ta  Ta11  1  0.12384900  0.62793400  0.62320600  1
  Ta  Ta12  1  0.37397600  0.62412600  0.87382600  1
  Ta  Ta13  1  0.12199600  0.87435900  0.87317000  1
  Ta  Ta14  1  0.87096200  0.37758600  0.62300600  1
  Ta  Ta15  1  0.87615100  0.62793400  0.37679400  1
  Pb  Pb16  1  0.38906850  0.62012550  0.39211000  1
  Pb  Pb17  1  0.61093150  0.62012550  0.60789000  1
  Pb  Pb18  1  0.37480100  0.87505300  0.13318200  1
  Pb  Pb19  1  0.62519900  0.87505300  0.86681800  1
  Pb  Pb20  1  0.37671350  0.12798750  0.86834500  1
  Pb  Pb21  1  0.62328650  0.12798750  0.13165500  1
  Pb  Pb22  1  0.88906850  0.12012550  0.39211000  1
  Pb  Pb23  1  0.11093150  0.12012550  0.60789000  1
  Pb  Pb24  1  0.87480100  0.37505300  0.13318200  1
  Pb  Pb25  1  0.12519900  0.37505300  0.86681800  1
  Pb  Pb26  1  0.87671350  0.62798750  0.86834500  1
  Pb  Pb27  1  0.12328650  0.62798750  0.13165500  1
  O  O28  1  0.68666550  0.00326750  0.49604200  1
  O  O29  1  0.49610500  0.50417000  0.18395000  1
  O  O30  1  0.50389500  0.50417000  0.81605000  1
  O  O31  1  0.43830800  0.75013700  0.74942000  1
  O  O32  1  0.50000000  0.69248600  0.00000000  1
  O  O33  1  0.19092500  0.99949200  0.99965900  1
  O  O34  1  0.50000000  0.81623800  0.50000000  1
  O  O35  1  0.50020250  0.99773750  0.69407900  1
  O  O36  1  0.74941300  0.75183800  0.05699500  1
  O  O37  1  0.49979750  0.99773750  0.30592100  1
  O  O38  1  0.50000000  0.99972400  0.00000000  1
  O  O39  1  0.74976200  0.93681900  0.24883300  1
  O  O40  1  0.43689450  0.24835550  0.24753600  1
  O  O41  1  0.50000000  0.18036200  0.50000000  1
  O  O42  1  0.80907500  0.99949200  0.00034100  1
  O  O43  1  0.74572450  0.06242950  0.75495400  1
  O  O44  1  0.50000000  0.31008600  0.00000000  1
  O  O45  1  0.75478500  0.24508800  0.56469100  1
  O  O46  1  0.25058700  0.75183800  0.94300500  1
  O  O47  1  0.25023800  0.93681900  0.75116700  1
  O  O48  1  0.56169200  0.75013700  0.25058000  1
  O  O49  1  0.25427550  0.06242950  0.24504600  1
  O  O50  1  0.31333450  0.00326750  0.50395800  1
  O  O51  1  0.24521500  0.24508800  0.43530900  1
  O  O52  1  0.56310550  0.24835550  0.75246400  1
  O  O53  1  0.18666550  0.50326750  0.49604200  1
  O  O54  1  0.99610500  0.00417000  0.18395000  1
  O  O55  1  0.00389500  0.00417000  0.81605000  1
  O  O56  1  0.93830800  0.25013700  0.74942000  1
  O  O57  1  0.00000000  0.19248600  0.00000000  1
  O  O58  1  0.69092500  0.49949200  0.99965900  1
  O  O59  1  0.00000000  0.31623800  0.50000000  1
  O  O60  1  0.00020250  0.49773750  0.69407900  1
  O  O61  1  0.24941300  0.25183800  0.05699500  1
  O  O62  1  0.99979750  0.49773750  0.30592100  1
  O  O63  1  0.00000000  0.49972400  0.00000000  1
  O  O64  1  0.24976200  0.43681900  0.24883300  1
  O  O65  1  0.93689450  0.74835550  0.24753600  1
  O  O66  1  0.00000000  0.68036200  0.50000000  1
  O  O67  1  0.30907500  0.49949200  0.00034100  1
  O  O68  1  0.24572450  0.56242950  0.75495400  1
  O  O69  1  0.00000000  0.81008600  0.00000000  1
  O  O70  1  0.25478500  0.74508800  0.56469100  1
  O  O71  1  0.75058700  0.25183800  0.94300500  1
  O  O72  1  0.75023800  0.43681900  0.75116700  1
  O  O73  1  0.06169200  0.25013700  0.25058000  1
  O  O74  1  0.75427550  0.56242950  0.24504600  1
  O  O75  1  0.81333450  0.50326750  0.50395800  1
  O  O76  1  0.74521500  0.74508800  0.43530900  1
  O  O77  1  0.06310550  0.74835550  0.75246400  1
