# generated using pymatgen
data_Y2Ti2O7
_symmetry_space_group_name_H-M   'P 1'
_cell_length_a   12.62309600
_cell_length_b   7.16149600
_cell_length_c   24.10128384
_cell_angle_alpha   90.00000000
_cell_angle_beta   100.52243507
_cell_angle_gamma   90.00000000
_symmetry_Int_Tables_number   1
_chemical_formula_structural   Y2Ti2O7
_chemical_formula_sum   'Y32 Ti32 O112'
_cell_volume   2142.12291342
_cell_formula_units_Z   16
loop_
 _symmetry_equiv_pos_site_id
 _symmetry_equiv_pos_as_xyz
  1  'x, y, z'
loop_
 _atom_site_type_symbol
 _atom_site_label
 _atom_site_symmetry_multiplicity
 _atom_site_fract_x
 _atom_site_fract_y
 _atom_site_fract_z
 _atom_site_occupancy
  Y  Y0  1  0.48798000  0.75233400  0.75425100  1
  Y  Y1  1  0.48798000  0.24766600  0.75425100  1
  Y  Y2  1  0.73678000  0.50000000  0.74397400  1
  Y  Y3  1  0.35258900  0.50000000  0.62494900  1
  Y  Y4  1  0.25000000  0.75000000  0.50000000  1
  Y  Y5  1  0.64741100  0.50000000  0.37505100  1
  Y  Y6  1  0.25000000  0.25000000  0.50000000  1
  Y  Y7  1  0.51202000  0.75233400  0.24574900  1
  Y  Y8  1  0.50000000  0.00000000  0.50000000  1
  Y  Y9  1  0.51202000  0.24766600  0.24574900  1
  Y  Y10  1  0.25000000  0.25000000  0.00000000  1
  Y  Y11  1  0.26322000  0.50000000  0.25602600  1
  Y  Y12  1  0.25000000  0.75000000  0.00000000  1
  Y  Y13  1  0.62650800  0.50000000  0.87519200  1
  Y  Y14  1  0.00000000  0.00000000  0.00000000  1
  Y  Y15  1  0.37349200  0.50000000  0.12480800  1
  Y  Y16  1  0.98798000  0.25233400  0.75425100  1
  Y  Y17  1  0.98798000  0.74766600  0.75425100  1
  Y  Y18  1  0.23678000  0.00000000  0.74397400  1
  Y  Y19  1  0.85258900  0.00000000  0.62494900  1
  Y  Y20  1  0.75000000  0.25000000  0.50000000  1
  Y  Y21  1  0.14741100  0.00000000  0.37505100  1
  Y  Y22  1  0.75000000  0.75000000  0.50000000  1
  Y  Y23  1  0.01202000  0.25233400  0.24574900  1
  Y  Y24  1  0.00000000  0.50000000  0.50000000  1
  Y  Y25  1  0.01202000  0.74766600  0.24574900  1
  Y  Y26  1  0.75000000  0.75000000  0.00000000  1
  Y  Y27  1  0.76322000  0.00000000  0.25602600  1
  Y  Y28  1  0.75000000  0.25000000  0.00000000  1
  Y  Y29  1  0.12650800  0.00000000  0.87519200  1
  Y  Y30  1  0.50000000  0.50000000  0.00000000  1
  Y  Y31  1  0.87349200  0.00000000  0.12480800  1
  Ti  Ti32  1  0.36676200  0.00000000  0.62311300  1
  Ti  Ti33  1  0.61754100  0.24769900  0.62598900  1
  Ti  Ti34  1  0.50000000  0.50000000  0.50000000  1
  Ti  Ti35  1  0.61754100  0.75230100  0.62598900  1
  Ti  Ti36  1  0.63323800  0.00000000  0.37688700  1
  Ti  Ti37  1  0.38245900  0.75230100  0.37401100  1
  Ti  Ti38  1  0.37719400  0.00000000  0.12382400  1
  Ti  Ti39  1  0.25403200  0.00000000  0.24706800  1
  Ti  Ti40  1  0.38245900  0.24769900  0.37401100  1
  Ti  Ti41  1  0.12711500  0.24967800  0.12403900  1
  Ti  Ti42  1  0.62280600  0.00000000  0.87617600  1
  Ti  Ti43  1  0.00000000  0.50000000  0.00000000  1
  Ti  Ti44  1  0.12711500  0.75032200  0.12403900  1
  Ti  Ti45  1  0.87288500  0.75032200  0.87596100  1
  Ti  Ti46  1  0.87288500  0.24967800  0.87596100  1
  Ti  Ti47  1  0.74596800  0.00000000  0.75293200  1
  Ti  Ti48  1  0.86676200  0.50000000  0.62311300  1
  Ti  Ti49  1  0.11754100  0.74769900  0.62598900  1
  Ti  Ti50  1  0.00000000  0.00000000  0.50000000  1
  Ti  Ti51  1  0.11754100  0.25230100  0.62598900  1
  Ti  Ti52  1  0.13323800  0.50000000  0.37688700  1
  Ti  Ti53  1  0.88245900  0.25230100  0.37401100  1
  Ti  Ti54  1  0.87719400  0.50000000  0.12382400  1
  Ti  Ti55  1  0.75403200  0.50000000  0.24706800  1
  Ti  Ti56  1  0.88245900  0.74769900  0.37401100  1
  Ti  Ti57  1  0.62711500  0.74967800  0.12403900  1
  Ti  Ti58  1  0.12280600  0.50000000  0.87617600  1
  Ti  Ti59  1  0.50000000  0.00000000  0.00000000  1
  Ti  Ti60  1  0.62711500  0.25032200  0.12403900  1
  Ti  Ti61  1  0.37288500  0.25032200  0.87596100  1
  Ti  Ti62  1  0.37288500  0.74967800  0.87596100  1
  Ti  Ti63  1  0.24596800  0.50000000  0.75293200  1
  O  O64  1  0.38971800  0.00000000  0.71214000  1
  O  O65  1  0.77460950  0.70679750  0.60761200  1
  O  O66  1  0.38987200  0.50000000  0.71559100  1
  O  O67  1  0.67997850  0.79701850  0.70699700  1
  O  O68  1  0.64394100  0.00000000  0.46297500  1
  O  O69  1  0.77460950  0.29320250  0.60761200  1
  O  O70  1  0.67997850  0.20298150  0.70699700  1
  O  O71  1  0.65927100  0.00000000  0.60488200  1
  O  O72  1  0.62539600  0.50000000  0.65043000  1
  O  O73  1  0.52090750  0.21098450  0.36013000  1
  O  O74  1  0.57377150  0.28934950  0.54409400  1
  O  O75  1  0.63776300  0.50000000  0.46576200  1
  O  O76  1  0.47909250  0.21098450  0.63987000  1
  O  O77  1  0.42622850  0.28934950  0.45590600  1
  O  O78  1  0.40867800  0.50000000  0.21747800  1
  O  O79  1  0.57377150  0.71065050  0.54409400  1
  O  O80  1  0.52090750  0.78901550  0.36013000  1
  O  O81  1  0.42622850  0.71065050  0.45590600  1
  O  O82  1  0.47909250  0.78901550  0.63987000  1
  O  O83  1  0.37460400  0.50000000  0.34957000  1
  O  O84  1  0.36223700  0.50000000  0.53423800  1
  O  O85  1  0.26967350  0.79653850  0.10494900  1
  O  O86  1  0.34072900  0.00000000  0.39511800  1
  O  O87  1  0.32002150  0.79701850  0.29300300  1
  O  O88  1  0.37444800  0.00000000  0.20852000  1
  O  O89  1  0.22539050  0.70679750  0.39238800  1
  O  O90  1  0.16752200  0.79457900  0.20494900  1
  O  O91  1  0.35605900  0.00000000  0.53702500  1
  O  O92  1  0.65569800  0.50000000  0.96887100  1
  O  O93  1  0.32002150  0.20298150  0.29300300  1
  O  O94  1  0.26967350  0.20346150  0.10494900  1
  O  O95  1  0.06405500  0.00000000  0.10400900  1
  O  O96  1  0.16752200  0.20542100  0.20494900  1
  O  O97  1  0.22539050  0.29320250  0.39238800  1
  O  O98  1  0.61012800  0.50000000  0.28440900  1
  O  O99  1  0.51957450  0.79706050  0.85530400  1
  O  O100  1  0.18297600  0.50000000  0.14212500  1
  O  O101  1  0.08292350  0.29612250  0.04188100  1
  O  O102  1  0.62113600  0.00000000  0.95680000  1
  O  O103  1  0.48042550  0.79706050  0.14469600  1
  O  O104  1  0.91707650  0.29612250  0.95811900  1
  O  O105  1  0.61028200  0.00000000  0.28786000  1
  O  O106  1  0.08292350  0.70387750  0.04188100  1
  O  O107  1  0.51957450  0.20293950  0.85530400  1
  O  O108  1  0.91707650  0.70387750  0.95811900  1
  O  O109  1  0.81702400  0.50000000  0.85787500  1
  O  O110  1  0.37886400  0.00000000  0.04320000  1
  O  O111  1  0.48042550  0.20293950  0.14469600  1
  O  O112  1  0.83247800  0.79457900  0.79505100  1
  O  O113  1  0.93594500  0.00000000  0.89599100  1
  O  O114  1  0.34430200  0.50000000  0.03112900  1
  O  O115  1  0.73032650  0.79653850  0.89505100  1
  O  O116  1  0.83247800  0.20542100  0.79505100  1
  O  O117  1  0.73032650  0.20346150  0.89505100  1
  O  O118  1  0.62555200  0.00000000  0.79148000  1
  O  O119  1  0.59132200  0.50000000  0.78252200  1
  O  O120  1  0.88971800  0.50000000  0.71214000  1
  O  O121  1  0.27460950  0.20679750  0.60761200  1
  O  O122  1  0.88987200  0.00000000  0.71559100  1
  O  O123  1  0.17997850  0.29701850  0.70699700  1
  O  O124  1  0.14394100  0.50000000  0.46297500  1
  O  O125  1  0.27460950  0.79320250  0.60761200  1
  O  O126  1  0.17997850  0.70298150  0.70699700  1
  O  O127  1  0.15927100  0.50000000  0.60488200  1
  O  O128  1  0.12539600  0.00000000  0.65043000  1
  O  O129  1  0.02090750  0.71098450  0.36013000  1
  O  O130  1  0.07377150  0.78934950  0.54409400  1
  O  O131  1  0.13776300  0.00000000  0.46576200  1
  O  O132  1  0.97909250  0.71098450  0.63987000  1
  O  O133  1  0.92622850  0.78934950  0.45590600  1
  O  O134  1  0.90867800  0.00000000  0.21747800  1
  O  O135  1  0.07377150  0.21065050  0.54409400  1
  O  O136  1  0.02090750  0.28901550  0.36013000  1
  O  O137  1  0.92622850  0.21065050  0.45590600  1
  O  O138  1  0.97909250  0.28901550  0.63987000  1
  O  O139  1  0.87460400  0.00000000  0.34957000  1
  O  O140  1  0.86223700  0.00000000  0.53423800  1
  O  O141  1  0.76967350  0.29653850  0.10494900  1
  O  O142  1  0.84072900  0.50000000  0.39511800  1
  O  O143  1  0.82002150  0.29701850  0.29300300  1
  O  O144  1  0.87444800  0.50000000  0.20852000  1
  O  O145  1  0.72539050  0.20679750  0.39238800  1
  O  O146  1  0.66752200  0.29457900  0.20494900  1
  O  O147  1  0.85605900  0.50000000  0.53702500  1
  O  O148  1  0.15569800  0.00000000  0.96887100  1
  O  O149  1  0.82002150  0.70298150  0.29300300  1
  O  O150  1  0.76967350  0.70346150  0.10494900  1
  O  O151  1  0.56405500  0.50000000  0.10400900  1
  O  O152  1  0.66752200  0.70542100  0.20494900  1
  O  O153  1  0.72539050  0.79320250  0.39238800  1
  O  O154  1  0.11012800  0.00000000  0.28440900  1
  O  O155  1  0.01957450  0.29706050  0.85530400  1
  O  O156  1  0.68297600  0.00000000  0.14212500  1
  O  O157  1  0.58292350  0.79612250  0.04188100  1
  O  O158  1  0.12113600  0.50000000  0.95680000  1
  O  O159  1  0.98042550  0.29706050  0.14469600  1
  O  O160  1  0.41707650  0.79612250  0.95811900  1
  O  O161  1  0.11028200  0.50000000  0.28786000  1
  O  O162  1  0.58292350  0.20387750  0.04188100  1
  O  O163  1  0.01957450  0.70293950  0.85530400  1
  O  O164  1  0.41707650  0.20387750  0.95811900  1
  O  O165  1  0.31702400  0.00000000  0.85787500  1
  O  O166  1  0.87886400  0.50000000  0.04320000  1
  O  O167  1  0.98042550  0.70293950  0.14469600  1
  O  O168  1  0.33247800  0.29457900  0.79505100  1
  O  O169  1  0.43594500  0.50000000  0.89599100  1
  O  O170  1  0.84430200  0.00000000  0.03112900  1
  O  O171  1  0.23032650  0.29653850  0.89505100  1
  O  O172  1  0.33247800  0.70542100  0.79505100  1
  O  O173  1  0.23032650  0.70346150  0.89505100  1
  O  O174  1  0.12555200  0.50000000  0.79148000  1
  O  O175  1  0.09132200  0.00000000  0.78252200  1
