# generated using pymatgen
data_Te(HO2)2
_symmetry_space_group_name_H-M   'P 1'
_cell_length_a   5.26565700
_cell_length_b   4.97040600
_cell_length_c   5.94900840
_cell_angle_alpha   90.00000000
_cell_angle_beta   112.27829871
_cell_angle_gamma   90.00000000
_symmetry_Int_Tables_number   1
_chemical_formula_structural   Te(HO2)2
_chemical_formula_sum   'Te2 H4 O8'
_cell_volume   144.07765336
_cell_formula_units_Z   2
loop_
 _symmetry_equiv_pos_site_id
 _symmetry_equiv_pos_as_xyz
  1  'x, y, z'
loop_
 _atom_site_type_symbol
 _atom_site_label
 _atom_site_symmetry_multiplicity
 _atom_site_fract_x
 _atom_site_fract_y
 _atom_site_fract_z
 _atom_site_occupancy
  Te  Te0  1  0.52509400  0.74945900  0.99800600  1
  Te  Te1  1  0.02509400  0.25054100  0.99800600  1
  H  H2  1  0.50508100  0.92666100  0.37915900  1
  H  H3  1  0.75193100  0.48553500  0.61919100  1
  H  H4  1  0.25193100  0.51446500  0.61919100  1
  H  H5  1  0.00508100  0.07333900  0.37915900  1
  O  O6  1  0.66059800  0.88121900  0.33074000  1
  O  O7  1  0.92635800  0.38387800  0.66787600  1
  O  O8  1  0.42635800  0.61612200  0.66787600  1
  O  O9  1  0.16059800  0.11878100  0.33074000  1
  O  O10  1  0.67434400  0.06230900  0.88800800  1
  O  O11  1  0.87885400  0.56796200  0.10509400  1
  O  O12  1  0.37885400  0.43203800  0.10509400  1
  O  O13  1  0.17434400  0.93769100  0.88800800  1
