# generated using pymatgen
data_Na21In5O15
_symmetry_space_group_name_H-M   'P 1'
_cell_length_a   11.33541200
_cell_length_b   15.75854800
_cell_length_c   9.69549398
_cell_angle_alpha   90.00000000
_cell_angle_beta   125.62176483
_cell_angle_gamma   90.00000000
_symmetry_Int_Tables_number   1
_chemical_formula_structural   Na21In5O15
_chemical_formula_sum   'Na42 In10 O30'
_cell_volume   1407.82819773
_cell_formula_units_Z   2
loop_
 _symmetry_equiv_pos_site_id
 _symmetry_equiv_pos_as_xyz
  1  'x, y, z'
loop_
 _atom_site_type_symbol
 _atom_site_label
 _atom_site_symmetry_multiplicity
 _atom_site_fract_x
 _atom_site_fract_y
 _atom_site_fract_z
 _atom_site_occupancy
  Na  Na0  1  0.55907500  0.00000000  0.27215800  1
  Na  Na1  1  0.32638250  0.10273250  0.98795200  1
  Na  Na2  1  0.78669600  0.00000000  0.21863600  1
  Na  Na3  1  0.59294250  0.13858050  0.01598700  1
  Na  Na4  1  0.34890000  0.65119900  0.43809100  1
  Na  Na5  1  0.39428350  0.14854650  0.52168600  1
  Na  Na6  1  0.67550050  0.10863250  0.56767900  1
  Na  Na7  1  0.12222800  0.10280900  0.45567500  1
  Na  Na8  1  0.49550350  0.28093750  0.78805600  1
  Na  Na9  1  0.71940150  0.72668950  0.71952600  1
  Na  Na10  1  0.51042300  0.22970700  0.27947100  1
  Na  Na11  1  0.71940150  0.27331050  0.71952600  1
  Na  Na12  1  0.51042300  0.77029300  0.27947100  1
  Na  Na13  1  0.49550350  0.71906250  0.78805600  1
  Na  Na14  1  0.32638250  0.89726750  0.98795200  1
  Na  Na15  1  0.67550050  0.89136750  0.56767900  1
  Na  Na16  1  0.12222800  0.89719100  0.45567500  1
  Na  Na17  1  0.59294250  0.86141950  0.01598700  1
  Na  Na18  1  0.39428350  0.85145350  0.52168600  1
  Na  Na19  1  0.34890000  0.34880100  0.43809100  1
  Na  Na20  1  0.52671500  0.00000000  0.77473900  1
  Na  Na21  1  0.05907500  0.50000000  0.27215800  1
  Na  Na22  1  0.82638250  0.60273250  0.98795200  1
  Na  Na23  1  0.28669600  0.50000000  0.21863600  1
  Na  Na24  1  0.09294250  0.63858050  0.01598700  1
  Na  Na25  1  0.84890000  0.15119900  0.43809100  1
  Na  Na26  1  0.89428350  0.64854650  0.52168600  1
  Na  Na27  1  0.17550050  0.60863250  0.56767900  1
  Na  Na28  1  0.62222800  0.60280900  0.45567500  1
  Na  Na29  1  0.99550350  0.78093750  0.78805600  1
  Na  Na30  1  0.21940150  0.22668950  0.71952600  1
  Na  Na31  1  0.01042300  0.72970700  0.27947100  1
  Na  Na32  1  0.21940150  0.77331050  0.71952600  1
  Na  Na33  1  0.01042300  0.27029300  0.27947100  1
  Na  Na34  1  0.99550350  0.21906250  0.78805600  1
  Na  Na35  1  0.82638250  0.39726750  0.98795200  1
  Na  Na36  1  0.17550050  0.39136750  0.56767900  1
  Na  Na37  1  0.62222800  0.39719100  0.45567500  1
  Na  Na38  1  0.09294250  0.36141950  0.01598700  1
  Na  Na39  1  0.89428350  0.35145350  0.52168600  1
  Na  Na40  1  0.84890000  0.84880100  0.43809100  1
  Na  Na41  1  0.02671500  0.50000000  0.77473900  1
  In  In42  1  0.00769300  0.00000000  0.69823300  1
  In  In43  1  0.00866700  0.00000000  0.99828200  1
  In  In44  1  0.84854800  0.14381100  0.99254800  1
  In  In45  1  0.84854800  0.85618900  0.99254800  1
  In  In46  1  0.30261400  0.00000000  0.28393600  1
  In  In47  1  0.50769300  0.50000000  0.69823300  1
  In  In48  1  0.50866700  0.50000000  0.99828200  1
  In  In49  1  0.34854800  0.64381100  0.99254800  1
  In  In50  1  0.34854800  0.35618900  0.99254800  1
  In  In51  1  0.80261400  0.50000000  0.28393600  1
  O  O52  1  0.59086700  0.61592000  0.69382900  1
  O  O53  1  0.52333700  0.00000000  0.01988400  1
  O  O54  1  0.79100900  0.00000000  0.48801800  1
  O  O55  1  0.43257450  0.23755950  0.98752700  1
  O  O56  1  0.43522900  0.10284200  0.31474000  1
  O  O57  1  0.75235350  0.75459550  0.52149400  1
  O  O58  1  0.37134050  0.63567650  0.22219500  1
  O  O59  1  0.62558500  0.15037400  0.78583300  1
  O  O60  1  0.43257450  0.76244050  0.98752700  1
  O  O61  1  0.75235350  0.24540450  0.52149400  1
  O  O62  1  0.43522900  0.89715800  0.31474000  1
  O  O63  1  0.59086700  0.38408000  0.69382900  1
  O  O64  1  0.37134050  0.36432350  0.22219500  1
  O  O65  1  0.62558500  0.84962600  0.78583300  1
  O  O66  1  0.29476900  0.00000000  0.49653200  1
  O  O67  1  0.09086700  0.11592000  0.69382900  1
  O  O68  1  0.02333700  0.50000000  0.01988400  1
  O  O69  1  0.29100900  0.50000000  0.48801800  1
  O  O70  1  0.93257450  0.73755950  0.98752700  1
  O  O71  1  0.93522900  0.60284200  0.31474000  1
  O  O72  1  0.25235350  0.25459550  0.52149400  1
  O  O73  1  0.87134050  0.13567650  0.22219500  1
  O  O74  1  0.12558500  0.65037400  0.78583300  1
  O  O75  1  0.93257450  0.26244050  0.98752700  1
  O  O76  1  0.25235350  0.74540450  0.52149400  1
  O  O77  1  0.93522900  0.39715800  0.31474000  1
  O  O78  1  0.09086700  0.88408000  0.69382900  1
  O  O79  1  0.87134050  0.86432350  0.22219500  1
  O  O80  1  0.12558500  0.34962600  0.78583300  1
  O  O81  1  0.79476900  0.50000000  0.49653200  1
