# generated using pymatgen
data_Cs3B12H12I
_symmetry_space_group_name_H-M   'P 1'
_cell_length_a   10.86505541
_cell_length_b   10.86505541
_cell_length_c   12.16648843
_cell_angle_alpha   90.00000000
_cell_angle_beta   90.00000000
_cell_angle_gamma   120.00000000
_symmetry_Int_Tables_number   1
_chemical_formula_structural   Cs3B12H12I
_chemical_formula_sum   'Cs9 B36 H36 I3'
_cell_volume   1243.82639800
_cell_formula_units_Z   3
loop_
 _symmetry_equiv_pos_site_id
 _symmetry_equiv_pos_as_xyz
  1  'x, y, z'
loop_
 _atom_site_type_symbol
 _atom_site_label
 _atom_site_symmetry_multiplicity
 _atom_site_fract_x
 _atom_site_fract_y
 _atom_site_fract_z
 _atom_site_occupancy
  Cs  Cs0  1  0.16666667  0.83333333  0.33333333  1
  Cs  Cs1  1  0.16666667  0.33333333  0.33333333  1
  Cs  Cs2  1  0.66666667  0.83333333  0.33333333  1
  Cs  Cs3  1  0.83333333  0.16666667  0.66666667  1
  Cs  Cs4  1  0.83333333  0.66666667  0.66666667  1
  Cs  Cs5  1  0.33333333  0.16666667  0.66666667  1
  Cs  Cs6  1  0.50000000  0.50000000  0.00000000  1
  Cs  Cs7  1  0.50000000  0.00000000  0.00000000  1
  Cs  Cs8  1  0.00000000  0.50000000  0.00000000  1
  B  B9  1  0.10902000  0.05451000  0.11039500  1
  B  B10  1  0.94549000  0.05451000  0.11039500  1
  B  B11  1  0.94549000  0.89098000  0.11039500  1
  B  B12  1  0.89098000  0.94549000  0.88960500  1
  B  B13  1  0.05451000  0.94549000  0.88960500  1
  B  B14  1  0.05451000  0.10902000  0.88960500  1
  B  B15  1  0.51038733  0.75519367  0.64046967  1
  B  B16  1  0.24480633  0.75519367  0.64046967  1
  B  B17  1  0.24480633  0.48961267  0.64046967  1
  B  B18  1  0.48961267  0.24480633  0.35953033  1
  B  B19  1  0.75519367  0.24480633  0.35953033  1
  B  B20  1  0.75519367  0.51038733  0.35953033  1
  B  B21  1  0.77568667  0.38784333  0.44372833  1
  B  B22  1  0.61215667  0.38784333  0.44372833  1
  B  B23  1  0.61215667  0.22431333  0.44372833  1
  B  B24  1  0.55764667  0.27882333  0.22293833  1
  B  B25  1  0.72117667  0.27882333  0.22293833  1
  B  B26  1  0.72117667  0.44235333  0.22293833  1
  B  B27  1  0.17705400  0.08852700  0.97380300  1
  B  B28  1  0.91147300  0.08852700  0.97380300  1
  B  B29  1  0.91147300  0.82294600  0.97380300  1
  B  B30  1  0.15627933  0.57813967  0.69286367  1
  B  B31  1  0.42186033  0.57813967  0.69286367  1
  B  B32  1  0.42186033  0.84372067  0.69286367  1
  B  B33  1  0.44235333  0.72117667  0.77706167  1
  B  B34  1  0.27882333  0.72117667  0.77706167  1
  B  B35  1  0.27882333  0.55764667  0.77706167  1
  B  B36  1  0.22431333  0.61215667  0.55627167  1
  B  B37  1  0.38784333  0.61215667  0.55627167  1
  B  B38  1  0.38784333  0.77568667  0.55627167  1
  B  B39  1  0.84372067  0.42186033  0.30713633  1
  B  B40  1  0.57813967  0.42186033  0.30713633  1
  B  B41  1  0.57813967  0.15627933  0.30713633  1
  B  B42  1  0.82294600  0.91147300  0.02619700  1
  B  B43  1  0.08852700  0.91147300  0.02619700  1
  B  B44  1  0.08852700  0.17705400  0.02619700  1
  H  H45  1  0.81315867  0.90657933  0.81088233  1
  H  H46  1  0.09342067  0.90657933  0.81088233  1
  H  H47  1  0.09342067  0.18684133  0.81088233  1
  H  H48  1  0.18684133  0.09342067  0.18911767  1
  H  H49  1  0.90657933  0.09342067  0.18911767  1
  H  H50  1  0.90657933  0.81315867  0.18911767  1
  H  H51  1  0.63646600  0.81823300  0.62094700  1
  H  H52  1  0.18176700  0.81823300  0.62094700  1
  H  H53  1  0.18176700  0.36353400  0.62094700  1
  H  H54  1  0.36353400  0.18176700  0.37905300  1
  H  H55  1  0.81823300  0.18176700  0.37905300  1
  H  H56  1  0.81823300  0.63646600  0.37905300  1
  H  H57  1  0.47982533  0.23991267  0.14421567  1
  H  H58  1  0.76008733  0.23991267  0.14421567  1
  H  H59  1  0.76008733  0.52017467  0.14421567  1
  H  H60  1  0.85350800  0.42675400  0.52245100  1
  H  H61  1  0.57324600  0.42675400  0.52245100  1
  H  H62  1  0.57324600  0.14649200  0.52245100  1
  H  H63  1  0.30313267  0.15156633  0.95428033  1
  H  H64  1  0.84843367  0.15156633  0.95428033  1
  H  H65  1  0.84843367  0.69686733  0.95428033  1
  H  H66  1  0.03020067  0.51510033  0.71238633  1
  H  H67  1  0.48489967  0.51510033  0.71238633  1
  H  H68  1  0.48489967  0.96979933  0.71238633  1
  H  H69  1  0.14649200  0.57324600  0.47754900  1
  H  H70  1  0.42675400  0.57324600  0.47754900  1
  H  H71  1  0.42675400  0.85350800  0.47754900  1
  H  H72  1  0.52017467  0.76008733  0.85578433  1
  H  H73  1  0.23991267  0.76008733  0.85578433  1
  H  H74  1  0.23991267  0.47982533  0.85578433  1
  H  H75  1  0.96979933  0.48489967  0.28761367  1
  H  H76  1  0.51510033  0.48489967  0.28761367  1
  H  H77  1  0.51510033  0.03020067  0.28761367  1
  H  H78  1  0.69686733  0.84843367  0.04571967  1
  H  H79  1  0.15156633  0.84843367  0.04571967  1
  H  H80  1  0.15156633  0.30313267  0.04571967  1
  I  I81  1  0.00000000  0.00000000  0.50000000  1
  I  I82  1  0.66666667  0.33333333  0.83333333  1
  I  I83  1  0.33333333  0.66666667  0.16666667  1
