# generated using pymatgen
data_K2PtS15
_symmetry_space_group_name_H-M   'P 1'
_cell_length_a   15.58217400
_cell_length_b   10.08272600
_cell_length_c   12.83858695
_cell_angle_alpha   90.00000000
_cell_angle_beta   90.66238938
_cell_angle_gamma   90.00000000
_symmetry_Int_Tables_number   1
_chemical_formula_structural   K2PtS15
_chemical_formula_sum   'K8 Pt4 S60'
_cell_volume   2016.94575689
_cell_formula_units_Z   4
loop_
 _symmetry_equiv_pos_site_id
 _symmetry_equiv_pos_as_xyz
  1  'x, y, z'
loop_
 _atom_site_type_symbol
 _atom_site_label
 _atom_site_symmetry_multiplicity
 _atom_site_fract_x
 _atom_site_fract_y
 _atom_site_fract_z
 _atom_site_occupancy
  K  K0  1  0.29071800  0.94131600  0.14210300  1
  K  K1  1  0.29071800  0.05868400  0.64210300  1
  K  K2  1  0.38767500  0.66571200  0.39509900  1
  K  K3  1  0.38767500  0.33428800  0.89509900  1
  K  K4  1  0.79071800  0.44131600  0.14210300  1
  K  K5  1  0.79071800  0.55868400  0.64210300  1
  K  K6  1  0.88767500  0.16571200  0.39509900  1
  K  K7  1  0.88767500  0.83428800  0.89509900  1
  Pt  Pt8  1  0.51102750  0.28830050  0.24906500  1
  Pt  Pt9  1  0.51102750  0.71169950  0.74906500  1
  Pt  Pt10  1  0.01102750  0.78830050  0.24906500  1
  Pt  Pt11  1  0.01102750  0.21169950  0.74906500  1
  S  S12  1  0.51650350  0.92428150  0.28012300  1
  S  S13  1  0.51650350  0.07571850  0.78012300  1
  S  S14  1  0.52397700  0.88272800  0.11988800  1
  S  S15  1  0.52397700  0.11727200  0.61988800  1
  S  S16  1  0.76022050  0.89442350  0.37645700  1
  S  S17  1  0.76022050  0.10557650  0.87645700  1
  S  S18  1  0.35708550  0.29584850  0.45987500  1
  S  S19  1  0.35708550  0.70415150  0.95987500  1
  S  S20  1  0.47200300  0.37599700  0.41957200  1
  S  S21  1  0.47200300  0.62400300  0.91957200  1
  S  S22  1  0.43729800  0.08395100  0.29390500  1
  S  S23  1  0.43729800  0.91604900  0.79390500  1
  S  S24  1  0.60375600  0.03681900  0.07384500  1
  S  S25  1  0.60375600  0.96318100  0.57384500  1
  S  S26  1  0.53451800  0.20755600  0.07273400  1
  S  S27  1  0.53451800  0.79244400  0.57273400  1
  S  S28  1  0.88633650  0.90014150  0.17447400  1
  S  S29  1  0.88633650  0.09985850  0.67447400  1
  S  S30  1  0.77567950  0.81780750  0.22672000  1
  S  S31  1  0.77567950  0.18219250  0.72672000  1
  S  S32  1  0.64931500  0.20541500  0.30759100  1
  S  S33  1  0.64931500  0.79458500  0.80759100  1
  S  S34  1  0.11715800  0.08883800  0.33519100  1
  S  S35  1  0.11715800  0.91116200  0.83519100  1
  S  S36  1  0.68136850  0.30606350  0.43943000  1
  S  S37  1  0.68136850  0.69393650  0.93943000  1
  S  S38  1  0.08305350  0.99410950  0.20150000  1
  S  S39  1  0.08305350  0.00589050  0.70150000  1
  S  S40  1  0.22840550  0.99217750  0.39142600  1
  S  S41  1  0.22840550  0.00782250  0.89142600  1
  S  S42  1  0.01650350  0.42428150  0.28012300  1
  S  S43  1  0.01650350  0.57571850  0.78012300  1
  S  S44  1  0.02397700  0.38272800  0.11988800  1
  S  S45  1  0.02397700  0.61727200  0.61988800  1
  S  S46  1  0.26022050  0.39442350  0.37645700  1
  S  S47  1  0.26022050  0.60557650  0.87645700  1
  S  S48  1  0.85708550  0.79584850  0.45987500  1
  S  S49  1  0.85708550  0.20415150  0.95987500  1
  S  S50  1  0.97200300  0.87599700  0.41957200  1
  S  S51  1  0.97200300  0.12400300  0.91957200  1
  S  S52  1  0.93729800  0.58395100  0.29390500  1
  S  S53  1  0.93729800  0.41604900  0.79390500  1
  S  S54  1  0.10375600  0.53681900  0.07384500  1
  S  S55  1  0.10375600  0.46318100  0.57384500  1
  S  S56  1  0.03451800  0.70755600  0.07273400  1
  S  S57  1  0.03451800  0.29244400  0.57273400  1
  S  S58  1  0.38633650  0.40014150  0.17447400  1
  S  S59  1  0.38633650  0.59985850  0.67447400  1
  S  S60  1  0.27567950  0.31780750  0.22672000  1
  S  S61  1  0.27567950  0.68219250  0.72672000  1
  S  S62  1  0.14931500  0.70541500  0.30759100  1
  S  S63  1  0.14931500  0.29458500  0.80759100  1
  S  S64  1  0.61715800  0.58883800  0.33519100  1
  S  S65  1  0.61715800  0.41116200  0.83519100  1
  S  S66  1  0.18136850  0.80606350  0.43943000  1
  S  S67  1  0.18136850  0.19393650  0.93943000  1
  S  S68  1  0.58305350  0.49410950  0.20150000  1
  S  S69  1  0.58305350  0.50589050  0.70150000  1
  S  S70  1  0.72840550  0.49217750  0.39142600  1
  S  S71  1  0.72840550  0.50782250  0.89142600  1
