# generated using pymatgen
data_K2UF6
_symmetry_space_group_name_H-M   'P 1'
_cell_length_a   7.27441600
_cell_length_b   12.65135000
_cell_length_c   7.31219005
_cell_angle_alpha   90.00000000
_cell_angle_beta   107.17414381
_cell_angle_gamma   90.00000000
_symmetry_Int_Tables_number   1
_chemical_formula_structural   K2UF6
_chemical_formula_sum   'K8 U4 F24'
_cell_volume   642.94383221
_cell_formula_units_Z   4
loop_
 _symmetry_equiv_pos_site_id
 _symmetry_equiv_pos_as_xyz
  1  'x, y, z'
loop_
 _atom_site_type_symbol
 _atom_site_label
 _atom_site_symmetry_multiplicity
 _atom_site_fract_x
 _atom_site_fract_y
 _atom_site_fract_z
 _atom_site_occupancy
  K  K0  1  0.50000000  0.58827800  0.25000000  1
  K  K1  1  0.00000000  0.75596600  0.25000000  1
  K  K2  1  0.00000000  0.91172200  0.75000000  1
  K  K3  1  0.50000000  0.74403400  0.75000000  1
  K  K4  1  0.00000000  0.08827800  0.25000000  1
  K  K5  1  0.50000000  0.25596600  0.25000000  1
  K  K6  1  0.50000000  0.41172200  0.75000000  1
  K  K7  1  0.00000000  0.24403400  0.75000000  1
  U  U8  1  0.50000000  0.91980700  0.25000000  1
  U  U9  1  0.00000000  0.58019300  0.75000000  1
  U  U10  1  0.00000000  0.41980700  0.25000000  1
  U  U11  1  0.50000000  0.08019300  0.75000000  1
  F  F12  1  0.81706400  0.92330600  0.36738700  1
  F  F13  1  0.68293600  0.57669400  0.63261300  1
  F  F14  1  0.40089950  0.77757550  0.37639800  1
  F  F15  1  0.40483600  0.93182400  0.88988400  1
  F  F16  1  0.59516400  0.93182400  0.61011600  1
  F  F17  1  0.90483600  0.56817600  0.38988400  1
  F  F18  1  0.09516400  0.56817600  0.11011600  1
  F  F19  1  0.90089950  0.72242450  0.87639800  1
  F  F20  1  0.09910050  0.72242450  0.62360200  1
  F  F21  1  0.18293600  0.92330600  0.13261300  1
  F  F22  1  0.31706400  0.57669400  0.86738700  1
  F  F23  1  0.59910050  0.77757550  0.12360200  1
  F  F24  1  0.31706400  0.42330600  0.36738700  1
  F  F25  1  0.18293600  0.07669400  0.63261300  1
  F  F26  1  0.90089950  0.27757550  0.37639800  1
  F  F27  1  0.90483600  0.43182400  0.88988400  1
  F  F28  1  0.09516400  0.43182400  0.61011600  1
  F  F29  1  0.40483600  0.06817600  0.38988400  1
  F  F30  1  0.59516400  0.06817600  0.11011600  1
  F  F31  1  0.40089950  0.22242450  0.87639800  1
  F  F32  1  0.59910050  0.22242450  0.62360200  1
  F  F33  1  0.68293600  0.42330600  0.13261300  1
  F  F34  1  0.81706400  0.07669400  0.86738700  1
  F  F35  1  0.09910050  0.27757550  0.12360200  1
