# generated using pymatgen
data_SrLi2Ta2O7
_symmetry_space_group_name_H-M   'P 1'
_cell_length_a   3.98265200
_cell_length_b   3.98265200
_cell_length_c   18.53659400
_cell_angle_alpha   90.00000000
_cell_angle_beta   90.00000000
_cell_angle_gamma   90.00000000
_symmetry_Int_Tables_number   1
_chemical_formula_structural   SrLi2Ta2O7
_chemical_formula_sum   'Sr2 Li4 Ta4 O14'
_cell_volume   294.01849998
_cell_formula_units_Z   2
loop_
 _symmetry_equiv_pos_site_id
 _symmetry_equiv_pos_as_xyz
  1  'x, y, z'
loop_
 _atom_site_type_symbol
 _atom_site_label
 _atom_site_symmetry_multiplicity
 _atom_site_fract_x
 _atom_site_fract_y
 _atom_site_fract_z
 _atom_site_occupancy
  Sr  Sr0  1  0.00000000  0.00000000  0.00000000  1
  Sr  Sr1  1  0.50000000  0.50000000  0.50000000  1
  Li  Li2  1  0.00000000  0.50000000  0.25000000  1
  Li  Li3  1  0.50000000  0.00000000  0.25000000  1
  Li  Li4  1  0.50000000  0.00000000  0.75000000  1
  Li  Li5  1  0.00000000  0.50000000  0.75000000  1
  Ta  Ta6  1  0.50000000  0.50000000  0.11407400  1
  Ta  Ta7  1  0.00000000  0.00000000  0.38592600  1
  Ta  Ta8  1  0.00000000  0.00000000  0.61407400  1
  Ta  Ta9  1  0.50000000  0.50000000  0.88592600  1
  O  O10  1  0.50000000  0.50000000  0.00000000  1
  O  O11  1  0.50000000  0.00000000  0.10373300  1
  O  O12  1  0.00000000  0.50000000  0.10373300  1
  O  O13  1  0.00000000  0.50000000  0.39626700  1
  O  O14  1  0.50000000  0.00000000  0.39626700  1
  O  O15  1  0.00000000  0.00000000  0.28367000  1
  O  O16  1  0.50000000  0.50000000  0.21633000  1
  O  O17  1  0.00000000  0.00000000  0.50000000  1
  O  O18  1  0.00000000  0.50000000  0.60373300  1
  O  O19  1  0.50000000  0.00000000  0.60373300  1
  O  O20  1  0.50000000  0.00000000  0.89626700  1
  O  O21  1  0.00000000  0.50000000  0.89626700  1
  O  O22  1  0.50000000  0.50000000  0.78367000  1
  O  O23  1  0.00000000  0.00000000  0.71633000  1
