# generated using pymatgen
data_CuAs2Pb8Cl5O9
_symmetry_space_group_name_H-M   'P 1'
_cell_length_a   13.63520200
_cell_length_b   20.29524400
_cell_length_c   7.70858124
_cell_angle_alpha   90.00000000
_cell_angle_beta   106.19216254
_cell_angle_gamma   90.00000000
_symmetry_Int_Tables_number   1
_chemical_formula_structural   CuAs2Pb8Cl5O9
_chemical_formula_sum   'Cu4 As8 Pb32 Cl20 O36'
_cell_volume   2048.57389807
_cell_formula_units_Z   4
loop_
 _symmetry_equiv_pos_site_id
 _symmetry_equiv_pos_as_xyz
  1  'x, y, z'
loop_
 _atom_site_type_symbol
 _atom_site_label
 _atom_site_symmetry_multiplicity
 _atom_site_fract_x
 _atom_site_fract_y
 _atom_site_fract_z
 _atom_site_occupancy
  Cu  Cu0  1  0.50000000  0.92383600  0.50000000  1
  Cu  Cu1  1  0.50000000  0.07616400  0.50000000  1
  Cu  Cu2  1  0.00000000  0.42383600  0.50000000  1
  Cu  Cu3  1  0.00000000  0.57616400  0.50000000  1
  As  As4  1  0.67238500  0.88508400  0.58499400  1
  As  As5  1  0.32761500  0.88508400  0.41500600  1
  As  As6  1  0.32761500  0.11491600  0.41500600  1
  As  As7  1  0.67238500  0.11491600  0.58499400  1
  As  As8  1  0.17238500  0.38508400  0.58499400  1
  As  As9  1  0.82761500  0.38508400  0.41500600  1
  As  As10  1  0.82761500  0.61491600  0.41500600  1
  As  As11  1  0.17238500  0.61491600  0.58499400  1
  Pb  Pb12  1  0.35008450  0.90342150  0.92148100  1
  Pb  Pb13  1  0.85602100  0.00000000  0.42367800  1
  Pb  Pb14  1  0.64414150  0.69843650  0.57734200  1
  Pb  Pb15  1  0.65003950  0.70571250  0.07228000  1
  Pb  Pb16  1  0.64991550  0.09657850  0.07851900  1
  Pb  Pb17  1  0.14397900  0.00000000  0.57632200  1
  Pb  Pb18  1  0.14476900  0.00000000  0.07041300  1
  Pb  Pb19  1  0.64991550  0.90342150  0.07851900  1
  Pb  Pb20  1  0.35008450  0.09657850  0.92148100  1
  Pb  Pb21  1  0.65003950  0.29428750  0.07228000  1
  Pb  Pb22  1  0.85523100  0.00000000  0.92958700  1
  Pb  Pb23  1  0.35585850  0.30156350  0.42265800  1
  Pb  Pb24  1  0.35585850  0.69843650  0.42265800  1
  Pb  Pb25  1  0.34996050  0.70571250  0.92772000  1
  Pb  Pb26  1  0.34996050  0.29428750  0.92772000  1
  Pb  Pb27  1  0.64414150  0.30156350  0.57734200  1
  Pb  Pb28  1  0.85008450  0.40342150  0.92148100  1
  Pb  Pb29  1  0.35602100  0.50000000  0.42367800  1
  Pb  Pb30  1  0.14414150  0.19843650  0.57734200  1
  Pb  Pb31  1  0.15003950  0.20571250  0.07228000  1
  Pb  Pb32  1  0.14991550  0.59657850  0.07851900  1
  Pb  Pb33  1  0.64397900  0.50000000  0.57632200  1
  Pb  Pb34  1  0.64476900  0.50000000  0.07041300  1
  Pb  Pb35  1  0.14991550  0.40342150  0.07851900  1
  Pb  Pb36  1  0.85008450  0.59657850  0.92148100  1
  Pb  Pb37  1  0.15003950  0.79428750  0.07228000  1
  Pb  Pb38  1  0.35523100  0.50000000  0.92958700  1
  Pb  Pb39  1  0.85585850  0.80156350  0.42265800  1
  Pb  Pb40  1  0.85585850  0.19843650  0.42265800  1
  Pb  Pb41  1  0.84996050  0.20571250  0.92772000  1
  Pb  Pb42  1  0.84996050  0.79428750  0.92772000  1
  Pb  Pb43  1  0.14414150  0.80156350  0.57734200  1
  Cl  Cl44  1  0.50655200  0.79064600  0.76501000  1
  Cl  Cl45  1  0.50655200  0.20935400  0.76501000  1
  Cl  Cl46  1  0.50269700  0.40111300  0.75284400  1
  Cl  Cl47  1  0.49344800  0.20935400  0.23499000  1
  Cl  Cl48  1  0.49344800  0.79064600  0.23499000  1
  Cl  Cl49  1  0.50225900  0.00000000  0.26081500  1
  Cl  Cl50  1  0.49774100  0.00000000  0.73918500  1
  Cl  Cl51  1  0.49730300  0.59888700  0.24715600  1
  Cl  Cl52  1  0.49730300  0.40111300  0.24715600  1
  Cl  Cl53  1  0.50269700  0.59888700  0.75284400  1
  Cl  Cl54  1  0.00655200  0.29064600  0.76501000  1
  Cl  Cl55  1  0.00655200  0.70935400  0.76501000  1
  Cl  Cl56  1  0.00269700  0.90111300  0.75284400  1
  Cl  Cl57  1  0.99344800  0.70935400  0.23499000  1
  Cl  Cl58  1  0.99344800  0.29064600  0.23499000  1
  Cl  Cl59  1  0.00225900  0.50000000  0.26081500  1
  Cl  Cl60  1  0.99774100  0.50000000  0.73918500  1
  Cl  Cl61  1  0.99730300  0.09888700  0.24715600  1
  Cl  Cl62  1  0.99730300  0.90111300  0.24715600  1
  Cl  Cl63  1  0.00269700  0.09888700  0.75284400  1
  O  O64  1  0.75922800  0.00000000  0.12959400  1
  O  O65  1  0.74065750  0.08733950  0.80640700  1
  O  O66  1  0.72781000  0.80336800  0.60786000  1
  O  O67  1  0.25949300  0.91267900  0.57190200  1
  O  O68  1  0.74776450  0.19208250  0.12821900  1
  O  O69  1  0.72781000  0.19663200  0.60786000  1
  O  O70  1  0.74776450  0.80791750  0.12821900  1
  O  O71  1  0.74050700  0.08732100  0.42809800  1
  O  O72  1  0.27219000  0.80336800  0.39214000  1
  O  O73  1  0.74050700  0.91267900  0.42809800  1
  O  O74  1  0.74065750  0.91266050  0.80640700  1
  O  O75  1  0.27219000  0.19663200  0.39214000  1
  O  O76  1  0.25223550  0.19208250  0.87178100  1
  O  O77  1  0.25934250  0.91266050  0.19359300  1
  O  O78  1  0.24077200  0.00000000  0.87040600  1
  O  O79  1  0.25949300  0.08732100  0.57190200  1
  O  O80  1  0.25223550  0.80791750  0.87178100  1
  O  O81  1  0.25934250  0.08733950  0.19359300  1
  O  O82  1  0.25922800  0.50000000  0.12959400  1
  O  O83  1  0.24065750  0.58733950  0.80640700  1
  O  O84  1  0.22781000  0.30336800  0.60786000  1
  O  O85  1  0.75949300  0.41267900  0.57190200  1
  O  O86  1  0.24776450  0.69208250  0.12821900  1
  O  O87  1  0.22781000  0.69663200  0.60786000  1
  O  O88  1  0.24776450  0.30791750  0.12821900  1
  O  O89  1  0.24050700  0.58732100  0.42809800  1
  O  O90  1  0.77219000  0.30336800  0.39214000  1
  O  O91  1  0.24050700  0.41267900  0.42809800  1
  O  O92  1  0.24065750  0.41266050  0.80640700  1
  O  O93  1  0.77219000  0.69663200  0.39214000  1
  O  O94  1  0.75223550  0.69208250  0.87178100  1
  O  O95  1  0.75934250  0.41266050  0.19359300  1
  O  O96  1  0.74077200  0.50000000  0.87040600  1
  O  O97  1  0.75949300  0.58732100  0.57190200  1
  O  O98  1  0.75223550  0.30791750  0.87178100  1
  O  O99  1  0.75934250  0.58733950  0.19359300  1
