# generated using pymatgen
data_KMgIn(MoO4)3
_symmetry_space_group_name_H-M   'P 1'
_cell_length_a   16.76309400
_cell_length_b   9.66487000
_cell_length_c   9.99091869
_cell_angle_alpha   90.00000000
_cell_angle_beta   123.90035215
_cell_angle_gamma   90.00000000
_symmetry_Int_Tables_number   1
_chemical_formula_structural   KMgIn(MoO4)3
_chemical_formula_sum   'K4 Mg4 In4 Mo12 O48'
_cell_volume   1343.50209599
_cell_formula_units_Z   4
loop_
 _symmetry_equiv_pos_site_id
 _symmetry_equiv_pos_as_xyz
  1  'x, y, z'
loop_
 _atom_site_type_symbol
 _atom_site_label
 _atom_site_symmetry_multiplicity
 _atom_site_fract_x
 _atom_site_fract_y
 _atom_site_fract_z
 _atom_site_occupancy
  K  K0  1  0.24758200  0.87187100  0.24471400  1
  K  K1  1  0.25241800  0.37187100  0.75528600  1
  K  K2  1  0.74758200  0.37187100  0.24471400  1
  K  K3  1  0.75241800  0.87187100  0.75528600  1
  Mg  Mg4  1  0.39374350  0.36208350  0.18153700  1
  Mg  Mg5  1  0.10625650  0.86208350  0.81846300  1
  Mg  Mg6  1  0.89374350  0.86208350  0.18153700  1
  Mg  Mg7  1  0.60625650  0.36208350  0.81846300  1
  In  In8  1  0.39354900  0.86108600  0.68009800  1
  In  In9  1  0.10645100  0.36108600  0.31990200  1
  In  In10  1  0.89354900  0.36108600  0.68009800  1
  In  In11  1  0.60645100  0.86108600  0.31990200  1
  Mo  Mo12  1  0.00000000  0.07133200  0.00000000  1
  Mo  Mo13  1  0.35683100  0.00643700  0.00263200  1
  Mo  Mo14  1  0.00000000  0.14089600  0.50000000  1
  Mo  Mo15  1  0.35838100  0.22216400  0.49888000  1
  Mo  Mo16  1  0.14161900  0.72216400  0.50112000  1
  Mo  Mo17  1  0.14316900  0.50643700  0.99736800  1
  Mo  Mo18  1  0.50000000  0.57133200  0.00000000  1
  Mo  Mo19  1  0.85683100  0.50643700  0.00263200  1
  Mo  Mo20  1  0.50000000  0.64089600  0.50000000  1
  Mo  Mo21  1  0.85838100  0.72216400  0.49888000  1
  Mo  Mo22  1  0.64161900  0.22216400  0.50112000  1
  Mo  Mo23  1  0.64316900  0.00643700  0.99736800  1
  O  O24  1  0.07784950  0.96528050  0.97503100  1
  O  O25  1  0.07153650  0.03785750  0.67441500  1
  O  O26  1  0.25198850  0.93056350  0.97676300  1
  O  O27  1  0.24648600  0.79570200  0.51685700  1
  O  O28  1  0.42690250  0.67671550  0.82338300  1
  O  O29  1  0.35951650  0.97640050  0.82722200  1
  O  O30  1  0.41903750  0.75174650  0.51822300  1
  O  O31  1  0.35577550  0.03569150  0.51928400  1
  O  O32  1  0.04027100  0.42946200  0.82027600  1
  O  O33  1  0.35629400  0.25512500  0.32275500  1
  O  O34  1  0.46189450  0.29548650  0.66994000  1
  O  O35  1  0.08096250  0.25174650  0.48177700  1
  O  O36  1  0.45972900  0.92946200  0.17972400  1
  O  O37  1  0.14487100  0.68846400  0.97149100  1
  O  O38  1  0.35512900  0.18846400  0.02850900  1
  O  O39  1  0.07309750  0.17671550  0.17661700  1
  O  O40  1  0.14422450  0.53569150  0.48071600  1
  O  O41  1  0.14370600  0.75512500  0.67724500  1
  O  O42  1  0.25351400  0.29570200  0.48314300  1
  O  O43  1  0.03810550  0.79548650  0.33006000  1
  O  O44  1  0.14048350  0.47640050  0.17277800  1
  O  O45  1  0.24801150  0.43056350  0.02323700  1
  O  O46  1  0.42846350  0.53785750  0.32558500  1
  O  O47  1  0.42215050  0.46528050  0.02496900  1
  O  O48  1  0.57784950  0.46528050  0.97503100  1
  O  O49  1  0.57153650  0.53785750  0.67441500  1
  O  O50  1  0.75198850  0.43056350  0.97676300  1
  O  O51  1  0.74648600  0.29570200  0.51685700  1
  O  O52  1  0.92690250  0.17671550  0.82338300  1
  O  O53  1  0.85951650  0.47640050  0.82722200  1
  O  O54  1  0.91903750  0.25174650  0.51822300  1
  O  O55  1  0.85577550  0.53569150  0.51928400  1
  O  O56  1  0.54027100  0.92946200  0.82027600  1
  O  O57  1  0.85629400  0.75512500  0.32275500  1
  O  O58  1  0.96189450  0.79548650  0.66994000  1
  O  O59  1  0.58096250  0.75174650  0.48177700  1
  O  O60  1  0.95972900  0.42946200  0.17972400  1
  O  O61  1  0.64487100  0.18846400  0.97149100  1
  O  O62  1  0.85512900  0.68846400  0.02850900  1
  O  O63  1  0.57309750  0.67671550  0.17661700  1
  O  O64  1  0.64422450  0.03569150  0.48071600  1
  O  O65  1  0.64370600  0.25512500  0.67724500  1
  O  O66  1  0.75351400  0.79570200  0.48314300  1
  O  O67  1  0.53810550  0.29548650  0.33006000  1
  O  O68  1  0.64048350  0.97640050  0.17277800  1
  O  O69  1  0.74801150  0.93056350  0.02323700  1
  O  O70  1  0.92846350  0.03785750  0.32558500  1
  O  O71  1  0.92215050  0.96528050  0.02496900  1
