# generated using pymatgen
data_ZnH16C6(N3O5)2
_symmetry_space_group_name_H-M   'P 1'
_cell_length_a   14.46546200
_cell_length_b   10.15724600
_cell_length_c   11.34193695
_cell_angle_alpha   90.00000000
_cell_angle_beta   115.96625425
_cell_angle_gamma   90.00000000
_symmetry_Int_Tables_number   1
_chemical_formula_structural   ZnH16C6(N3O5)2
_chemical_formula_sum   'Zn4 H64 C24 N24 O40'
_cell_volume   1498.23644838
_cell_formula_units_Z   4
loop_
 _symmetry_equiv_pos_site_id
 _symmetry_equiv_pos_as_xyz
  1  'x, y, z'
loop_
 _atom_site_type_symbol
 _atom_site_label
 _atom_site_symmetry_multiplicity
 _atom_site_fract_x
 _atom_site_fract_y
 _atom_site_fract_z
 _atom_site_occupancy
  Zn  Zn0  1  0.00000000  0.67134600  0.25000000  1
  Zn  Zn1  1  0.00000000  0.32865400  0.75000000  1
  Zn  Zn2  1  0.50000000  0.17134600  0.25000000  1
  Zn  Zn3  1  0.50000000  0.82865400  0.75000000  1
  H  H4  1  0.61187350  0.54835950  0.52535500  1
  H  H5  1  0.38812650  0.54835950  0.97464500  1
  H  H6  1  0.38812650  0.45164050  0.47464500  1
  H  H7  1  0.61187350  0.45164050  0.02535500  1
  H  H8  1  0.10636000  0.21394900  0.56168800  1
  H  H9  1  0.89364000  0.21394900  0.93831200  1
  H  H10  1  0.89364000  0.78605100  0.43831200  1
  H  H11  1  0.10636000  0.78605100  0.06168800  1
  H  H12  1  0.62323200  0.48439100  0.34071700  1
  H  H13  1  0.37676800  0.48439100  0.15928300  1
  H  H14  1  0.37676800  0.51560900  0.65928300  1
  H  H15  1  0.62323200  0.51560900  0.84071700  1
  H  H16  1  0.64868200  0.60338900  0.24383800  1
  H  H17  1  0.35131800  0.60338900  0.25616200  1
  H  H18  1  0.35131800  0.39661100  0.75616200  1
  H  H19  1  0.64868200  0.39661100  0.74383800  1
  H  H20  1  0.11735400  0.37783900  0.41572500  1
  H  H21  1  0.88264600  0.37783900  0.08427500  1
  H  H22  1  0.88264600  0.62216100  0.58427500  1
  H  H23  1  0.11735400  0.62216100  0.91572500  1
  H  H24  1  0.14363750  0.32524250  0.28712300  1
  H  H25  1  0.85636250  0.32524250  0.21287700  1
  H  H26  1  0.85636250  0.67475750  0.71287700  1
  H  H27  1  0.14363750  0.67475750  0.78712300  1
  H  H28  1  0.86587600  0.56246000  0.33193000  1
  H  H29  1  0.13412400  0.56246000  0.16807000  1
  H  H30  1  0.13412400  0.43754000  0.66807000  1
  H  H31  1  0.86587600  0.43754000  0.83193000  1
  H  H32  1  0.80289400  0.67196400  0.22837600  1
  H  H33  1  0.19710600  0.67196400  0.27162400  1
  H  H34  1  0.19710600  0.32803600  0.77162400  1
  H  H35  1  0.80289400  0.32803600  0.72837600  1
  H  H36  1  0.11187350  0.04835950  0.52535500  1
  H  H37  1  0.88812650  0.04835950  0.97464500  1
  H  H38  1  0.88812650  0.95164050  0.47464500  1
  H  H39  1  0.11187350  0.95164050  0.02535500  1
  H  H40  1  0.60636000  0.71394900  0.56168800  1
  H  H41  1  0.39364000  0.71394900  0.93831200  1
  H  H42  1  0.39364000  0.28605100  0.43831200  1
  H  H43  1  0.60636000  0.28605100  0.06168800  1
  H  H44  1  0.12323200  0.98439100  0.34071700  1
  H  H45  1  0.87676800  0.98439100  0.15928300  1
  H  H46  1  0.87676800  0.01560900  0.65928300  1
  H  H47  1  0.12323200  0.01560900  0.84071700  1
  H  H48  1  0.14868200  0.10338900  0.24383800  1
  H  H49  1  0.85131800  0.10338900  0.25616200  1
  H  H50  1  0.85131800  0.89661100  0.75616200  1
  H  H51  1  0.14868200  0.89661100  0.74383800  1
  H  H52  1  0.61735400  0.87783900  0.41572500  1
  H  H53  1  0.38264600  0.87783900  0.08427500  1
  H  H54  1  0.38264600  0.12216100  0.58427500  1
  H  H55  1  0.61735400  0.12216100  0.91572500  1
  H  H56  1  0.64363750  0.82524250  0.28712300  1
  H  H57  1  0.35636250  0.82524250  0.21287700  1
  H  H58  1  0.35636250  0.17475750  0.71287700  1
  H  H59  1  0.64363750  0.17475750  0.78712300  1
  H  H60  1  0.36587600  0.06246000  0.33193000  1
  H  H61  1  0.63412400  0.06246000  0.16807000  1
  H  H62  1  0.63412400  0.93754000  0.66807000  1
  H  H63  1  0.36587600  0.93754000  0.83193000  1
  H  H64  1  0.30289400  0.17196400  0.22837600  1
  H  H65  1  0.69710600  0.17196400  0.27162400  1
  H  H66  1  0.69710600  0.82803600  0.77162400  1
  H  H67  1  0.30289400  0.82803600  0.72837600  1
  C  C68  1  0.12545200  0.78349900  0.50290800  1
  C  C69  1  0.87454800  0.78349900  0.99709200  1
  C  C70  1  0.87454800  0.21650100  0.49709200  1
  C  C71  1  0.12545200  0.21650100  0.00290800  1
  C  C72  1  0.88022250  0.63279650  0.97391900  1
  C  C73  1  0.11977750  0.63279650  0.52608100  1
  C  C74  1  0.11977750  0.36720350  0.02608100  1
  C  C75  1  0.88022250  0.36720350  0.47391900  1
  C  C76  1  0.12328850  0.17567450  0.39527200  1
  C  C77  1  0.87671150  0.17567450  0.10472800  1
  C  C78  1  0.87671150  0.82432550  0.60472800  1
  C  C79  1  0.12328850  0.82432550  0.89527200  1
  C  C80  1  0.62545200  0.28349900  0.50290800  1
  C  C81  1  0.37454800  0.28349900  0.99709200  1
  C  C82  1  0.37454800  0.71650100  0.49709200  1
  C  C83  1  0.62545200  0.71650100  0.00290800  1
  C  C84  1  0.38022250  0.13279650  0.97391900  1
  C  C85  1  0.61977750  0.13279650  0.52608100  1
  C  C86  1  0.61977750  0.86720350  0.02608100  1
  C  C87  1  0.38022250  0.86720350  0.47391900  1
  C  C88  1  0.62328850  0.67567450  0.39527200  1
  C  C89  1  0.37671150  0.67567450  0.10472800  1
  C  C90  1  0.37671150  0.32432550  0.60472800  1
  C  C91  1  0.62328850  0.32432550  0.89527200  1
  N  N92  1  0.09756150  0.14354950  0.49264100  1
  N  N93  1  0.90243850  0.14354950  0.00735900  1
  N  N94  1  0.90243850  0.85645050  0.50735900  1
  N  N95  1  0.09756150  0.85645050  0.99264100  1
  N  N96  1  0.63850350  0.57982350  0.32510000  1
  N  N97  1  0.36149650  0.57982350  0.17490000  1
  N  N98  1  0.36149650  0.42017650  0.67490000  1
  N  N99  1  0.63850350  0.42017650  0.82510000  1
  N  N100  1  0.13308650  0.30123150  0.36841200  1
  N  N101  1  0.86691350  0.30123150  0.13158800  1
  N  N102  1  0.86691350  0.69876850  0.63158800  1
  N  N103  1  0.13308650  0.69876850  0.86841200  1
  N  N104  1  0.59756150  0.64354950  0.49264100  1
  N  N105  1  0.40243850  0.64354950  0.00735900  1
  N  N106  1  0.40243850  0.35645050  0.50735900  1
  N  N107  1  0.59756150  0.35645050  0.99264100  1
  N  N108  1  0.13850350  0.07982350  0.32510000  1
  N  N109  1  0.86149650  0.07982350  0.17490000  1
  N  N110  1  0.86149650  0.92017650  0.67490000  1
  N  N111  1  0.13850350  0.92017650  0.82510000  1
  N  N112  1  0.63308650  0.80123150  0.36841200  1
  N  N113  1  0.36691350  0.80123150  0.13158800  1
  N  N114  1  0.36691350  0.19876850  0.63158800  1
  N  N115  1  0.63308650  0.19876850  0.86841200  1
  O  O116  1  0.07974800  0.82195800  0.38372000  1
  O  O117  1  0.92025200  0.82195800  0.11628000  1
  O  O118  1  0.92025200  0.17804200  0.61628000  1
  O  O119  1  0.07974800  0.17804200  0.88372000  1
  O  O120  1  0.91885400  0.56072400  0.07651600  1
  O  O121  1  0.08114600  0.56072400  0.42348400  1
  O  O122  1  0.08114600  0.43927600  0.92348400  1
  O  O123  1  0.91885400  0.43927600  0.57651600  1
  O  O124  1  0.87139850  0.65500750  0.30204100  1
  O  O125  1  0.12860150  0.65500750  0.19795900  1
  O  O126  1  0.12860150  0.34499250  0.69795900  1
  O  O127  1  0.87139850  0.34499250  0.80204100  1
  O  O128  1  0.67360450  0.35808150  0.59918600  1
  O  O129  1  0.32639550  0.35808150  0.90081400  1
  O  O130  1  0.32639550  0.64191850  0.40081400  1
  O  O131  1  0.67360450  0.64191850  0.09918600  1
  O  O132  1  0.84692050  0.59288850  0.85748300  1
  O  O133  1  0.15307950  0.59288850  0.64251700  1
  O  O134  1  0.15307950  0.40711150  0.14251700  1
  O  O135  1  0.84692050  0.40711150  0.35748300  1
  O  O136  1  0.57974800  0.32195800  0.38372000  1
  O  O137  1  0.42025200  0.32195800  0.11628000  1
  O  O138  1  0.42025200  0.67804200  0.61628000  1
  O  O139  1  0.57974800  0.67804200  0.88372000  1
  O  O140  1  0.41885400  0.06072400  0.07651600  1
  O  O141  1  0.58114600  0.06072400  0.42348400  1
  O  O142  1  0.58114600  0.93927600  0.92348400  1
  O  O143  1  0.41885400  0.93927600  0.57651600  1
  O  O144  1  0.37139850  0.15500750  0.30204100  1
  O  O145  1  0.62860150  0.15500750  0.19795900  1
  O  O146  1  0.62860150  0.84499250  0.69795900  1
  O  O147  1  0.37139850  0.84499250  0.80204100  1
  O  O148  1  0.17360450  0.85808150  0.59918600  1
  O  O149  1  0.82639550  0.85808150  0.90081400  1
  O  O150  1  0.82639550  0.14191850  0.40081400  1
  O  O151  1  0.17360450  0.14191850  0.09918600  1
  O  O152  1  0.34692050  0.09288850  0.85748300  1
  O  O153  1  0.65307950  0.09288850  0.64251700  1
  O  O154  1  0.65307950  0.90711150  0.14251700  1
  O  O155  1  0.34692050  0.90711150  0.35748300  1
