# generated using pymatgen
data_KCoPH2O5
_symmetry_space_group_name_H-M   'P 1'
_cell_length_a   4.82822909
_cell_length_b   5.64955501
_cell_length_c   8.39707386
_cell_angle_alpha   90.00000000
_cell_angle_beta   90.00000000
_cell_angle_gamma   90.00000000
_symmetry_Int_Tables_number   1
_chemical_formula_structural   KCoPH2O5
_chemical_formula_sum   'K2 Co2 P2 H4 O10'
_cell_volume   229.04988799
_cell_formula_units_Z   2
loop_
 _symmetry_equiv_pos_site_id
 _symmetry_equiv_pos_as_xyz
  1  'x, y, z'
loop_
 _atom_site_type_symbol
 _atom_site_label
 _atom_site_symmetry_multiplicity
 _atom_site_fract_x
 _atom_site_fract_y
 _atom_site_fract_z
 _atom_site_occupancy
  K  K0  1  0.20565950  0.50000000  0.96371175  1
  K  K1  1  0.70565950  0.00000000  0.03628825  1
  Co  Co2  1  0.08578250  0.50000000  0.51900575  1
  Co  Co3  1  0.58578250  0.00000000  0.48099425  1
  P  P4  1  0.65595750  0.50000000  0.29158975  1
  P  P5  1  0.15595750  0.00000000  0.70841025  1
  H  H6  1  0.66335400  0.63955375  0.69455625  1
  H  H7  1  0.66335400  0.36044625  0.69455625  1
  H  H8  1  0.16335400  0.86044625  0.30544375  1
  H  H9  1  0.16335400  0.13955375  0.30544375  1
  O  O10  1  0.34069050  0.50000000  0.32306375  1
  O  O11  1  0.84069050  0.00000000  0.67693625  1
  O  O12  1  0.71411400  0.50000000  0.11202325  1
  O  O13  1  0.21411400  0.00000000  0.88797675  1
  O  O14  1  0.78321050  0.50000000  0.71190775  1
  O  O15  1  0.28321050  0.00000000  0.28809225  1
  O  O16  1  0.79874550  0.72001175  0.37543375  1
  O  O17  1  0.79874550  0.27998825  0.37543375  1
  O  O18  1  0.29874550  0.77998825  0.62456625  1
  O  O19  1  0.29874550  0.22001175  0.62456625  1
