# generated using pymatgen
data_DyFeGe2O7
_symmetry_space_group_name_H-M   'P 1'
_cell_length_a   6.74204800
_cell_length_b   8.68055800
_cell_length_c   9.81920087
_cell_angle_alpha   90.00000000
_cell_angle_beta   100.59627636
_cell_angle_gamma   90.00000000
_symmetry_Int_Tables_number   1
_chemical_formula_structural   DyFeGe2O7
_chemical_formula_sum   'Dy4 Fe4 Ge8 O28'
_cell_volume   564.86655645
_cell_formula_units_Z   4
loop_
 _symmetry_equiv_pos_site_id
 _symmetry_equiv_pos_as_xyz
  1  'x, y, z'
loop_
 _atom_site_type_symbol
 _atom_site_label
 _atom_site_symmetry_multiplicity
 _atom_site_fract_x
 _atom_site_fract_y
 _atom_site_fract_z
 _atom_site_occupancy
  Dy  Dy0  1  0.25011500  0.95738300  0.25260200  1
  Dy  Dy1  1  0.74988500  0.45738300  0.74739800  1
  Dy  Dy2  1  0.74988500  0.04261700  0.74739800  1
  Dy  Dy3  1  0.25011500  0.54261700  0.25260200  1
  Fe  Fe4  1  0.24856600  0.94485900  0.75141100  1
  Fe  Fe5  1  0.75143400  0.05514100  0.24858900  1
  Fe  Fe6  1  0.75143400  0.44485900  0.24858900  1
  Fe  Fe7  1  0.24856600  0.55514100  0.75141100  1
  Ge  Ge8  1  0.45393200  0.25000000  0.96671500  1
  Ge  Ge9  1  0.04821600  0.25000000  0.53060200  1
  Ge  Ge10  1  0.47739800  0.75000000  0.55398100  1
  Ge  Ge11  1  0.95178400  0.75000000  0.46939800  1
  Ge  Ge12  1  0.54606800  0.75000000  0.03328500  1
  Ge  Ge13  1  0.02048800  0.75000000  0.94975400  1
  Ge  Ge14  1  0.52260200  0.25000000  0.44601900  1
  Ge  Ge15  1  0.97951200  0.25000000  0.05024600  1
  O  O16  1  0.75064900  0.75000000  0.56578400  1
  O  O17  1  0.95781300  0.58536100  0.36177900  1
  O  O18  1  0.02773200  0.57332600  0.86004700  1
  O  O19  1  0.53239000  0.07273600  0.35938900  1
  O  O20  1  0.45965900  0.41426700  0.85888000  1
  O  O21  1  0.02773200  0.92667400  0.86004700  1
  O  O22  1  0.04218700  0.08536100  0.63822100  1
  O  O23  1  0.54034100  0.91426700  0.14112000  1
  O  O24  1  0.25296600  0.25000000  0.06174100  1
  O  O25  1  0.84900600  0.25000000  0.87922900  1
  O  O26  1  0.97226800  0.42667400  0.13995300  1
  O  O27  1  0.65669300  0.25000000  0.11390400  1
  O  O28  1  0.45965900  0.08573300  0.85888000  1
  O  O29  1  0.84905900  0.25000000  0.38102600  1
  O  O30  1  0.97226800  0.07332600  0.13995300  1
  O  O31  1  0.65653100  0.25000000  0.61596700  1
  O  O32  1  0.54034100  0.58573300  0.14112000  1
  O  O33  1  0.74703400  0.75000000  0.93825900  1
  O  O34  1  0.46761000  0.57273600  0.64061100  1
  O  O35  1  0.34330700  0.75000000  0.88609600  1
  O  O36  1  0.15099400  0.75000000  0.12077100  1
  O  O37  1  0.15094100  0.75000000  0.61897400  1
  O  O38  1  0.24935100  0.25000000  0.43421600  1
  O  O39  1  0.04218700  0.41463900  0.63822100  1
  O  O40  1  0.46761000  0.92726400  0.64061100  1
  O  O41  1  0.34346900  0.75000000  0.38403300  1
  O  O42  1  0.95781300  0.91463900  0.36177900  1
  O  O43  1  0.53239000  0.42726400  0.35938900  1
