# generated using pymatgen
data_Rb8BaNaAl11Si13O48
_symmetry_space_group_name_H-M   'P 1'
_cell_length_a   12.24164500
_cell_length_b   12.27086111
_cell_length_c   12.61196189
_cell_angle_alpha   90.28059465
_cell_angle_beta   90.38534226
_cell_angle_gamma   90.05717971
_symmetry_Int_Tables_number   1
_chemical_formula_structural   Rb8BaNaAl11Si13O48
_chemical_formula_sum   'Rb8 Ba1 Na1 Al11 Si13 O48'
_cell_volume   1894.44591260
_cell_formula_units_Z   1
loop_
 _symmetry_equiv_pos_site_id
 _symmetry_equiv_pos_as_xyz
  1  'x, y, z'
loop_
 _atom_site_type_symbol
 _atom_site_label
 _atom_site_symmetry_multiplicity
 _atom_site_fract_x
 _atom_site_fract_y
 _atom_site_fract_z
 _atom_site_occupancy
  Rb  Rb0  1  0.47305400  0.47973600  0.98392300  1
  Rb  Rb1  1  0.02613900  0.46232200  0.44256000  1
  Rb  Rb2  1  0.46384700  0.02657000  0.44367100  1
  Rb  Rb3  1  0.71790400  0.70802900  0.27434600  1
  Rb  Rb4  1  0.23840400  0.75925400  0.25821200  1
  Rb  Rb5  1  0.75749300  0.23679700  0.26277500  1
  Rb  Rb6  1  0.67360500  0.66447000  0.74788800  1
  Rb  Rb7  1  0.11313300  0.13359500  0.99833200  1
  Ba  Ba8  1  0.89989000  0.89704900  0.17522200  1
  Na  Na9  1  0.83882400  0.83748100  0.84724100  1
  Al  Al10  1  0.19092500  0.38070100  0.00111700  1
  Al  Al11  1  0.99505500  0.80690300  0.39343100  1
  Al  Al12  1  0.80830700  0.99058100  0.39356400  1
  Al  Al13  1  0.00564200  0.18744100  0.38214100  1
  Al  Al14  1  0.18723500  0.00866200  0.38194300  1
  Al  Al15  1  0.99313800  0.63202000  0.17542500  1
  Al  Al16  1  0.99933300  0.36482600  0.18197900  1
  Al  Al17  1  0.63492600  0.99165700  0.17469000  1
  Al  Al18  1  0.36719000  0.00259900  0.18134200  1
  Al  Al19  1  0.62252200  0.80861500  0.99429300  1
  Al  Al20  1  0.81009200  0.62392100  0.99496600  1
  Si  Si21  1  0.18272400  0.63190200  0.99392800  1
  Si  Si22  1  0.63312600  0.17955300  0.99328200  1
  Si  Si23  1  0.37914400  0.18925200  0.99869700  1
  Si  Si24  1  0.00107700  0.62103800  0.81371500  1
  Si  Si25  1  0.00116200  0.37328200  0.81608900  1
  Si  Si26  1  0.62263300  0.00040000  0.81300200  1
  Si  Si27  1  0.37469400  0.00443000  0.81598700  1
  Si  Si28  1  0.00116700  0.81399900  0.63679000  1
  Si  Si29  1  0.99988500  0.18480600  0.63247900  1
  Si  Si30  1  0.81445300  0.99711500  0.63522700  1
  Si  Si31  1  0.18446700  0.00335700  0.63296600  1
  Si  Si32  1  0.36490400  0.82187300  0.99541100  1
  Si  Si33  1  0.81827100  0.36545300  0.99634900  1
  O  O34  1  0.48566800  0.76837900  0.00445600  1
  O  O35  1  0.27857200  0.72209900  0.97814200  1
  O  O36  1  0.70993500  0.28628100  0.98071100  1
  O  O37  1  0.24353200  0.51513400  0.00978000  1
  O  O38  1  0.31111000  0.30095700  0.98203300  1
  O  O39  1  0.64856100  0.88969600  0.87829400  1
  O  O40  1  0.89042900  0.65204600  0.87892600  1
  O  O41  1  0.35889300  0.89638000  0.88692900  1
  O  O42  1  0.89152900  0.35591500  0.88786400  1
  O  O43  1  0.11250600  0.62947000  0.88254900  1
  O  O44  1  0.63630700  0.11200900  0.88124300  1
  O  O45  1  0.11249800  0.35971100  0.88309600  1
  O  O46  1  0.36352300  0.11514600  0.88796000  1
  O  O47  1  0.49826700  0.99979900  0.76125400  1
  O  O48  1  0.99236900  0.49770100  0.76149200  1
  O  O49  1  0.00520100  0.71666900  0.72427000  1
  O  O50  1  0.28212400  0.00329200  0.72400200  1
  O  O51  1  0.99358000  0.28174000  0.72206800  1
  O  O52  1  0.71705400  0.00133800  0.72313700  1
  O  O53  1  0.88772700  0.88558700  0.66984500  1
  O  O54  1  0.10641800  0.89414500  0.65156100  1
  O  O55  1  0.89265700  0.10355900  0.64897800  1
  O  O56  1  0.10726600  0.10935500  0.66115200  1
  O  O57  1  0.75325600  0.98477900  0.52282300  1
  O  O58  1  0.99143100  0.75404600  0.52330000  1
  O  O59  1  0.24039200  0.00461900  0.51829100  1
  O  O60  1  0.00232400  0.24035700  0.51781100  1
  O  O61  1  0.86312100  0.85975800  0.36805200  1
  O  O62  1  0.09931300  0.89688900  0.37053700  1
  O  O63  1  0.89645600  0.09631600  0.37308800  1
  O  O64  1  0.13058700  0.13253600  0.35357000  1
  O  O65  1  0.29978000  0.98230700  0.30042100  1
  O  O66  1  0.00253200  0.71826300  0.28501500  1
  O  O67  1  0.97399000  0.29920400  0.30225700  1
  O  O68  1  0.72133300  0.99844600  0.28378400  1
  O  O69  1  0.98783500  0.50126500  0.22007600  1
  O  O70  1  0.50344300  0.99536000  0.21894500  1
  O  O71  1  0.68159800  0.87164300  0.10662900  1
  O  O72  1  0.32969100  0.89026900  0.09887200  1
  O  O73  1  0.87334000  0.68261900  0.10746300  1
  O  O74  1  0.10502000  0.66727100  0.09182700  1
  O  O75  1  0.88400800  0.32605000  0.09987400  1
  O  O76  1  0.11459000  0.33325600  0.10572900  1
  O  O77  1  0.67038900  0.10462800  0.09143300  1
  O  O78  1  0.33849600  0.11826800  0.09847600  1
  O  O79  1  0.69141600  0.69124000  0.95622200  1
  O  O80  1  0.76925400  0.48789600  0.00504400  1
  O  O81  1  0.50861300  0.22891700  0.00770700  1
