# generated using pymatgen
data_CaP2H2O7
_symmetry_space_group_name_H-M   'P 1'
_cell_length_a   7.49472200
_cell_length_b   8.13590200
_cell_length_c   9.90187694
_cell_angle_alpha   90.00000000
_cell_angle_beta   100.72082933
_cell_angle_gamma   90.00000000
_symmetry_Int_Tables_number   1
_chemical_formula_structural   CaP2H2O7
_chemical_formula_sum   'Ca4 P8 H8 O28'
_cell_volume   593.24121437
_cell_formula_units_Z   4
loop_
 _symmetry_equiv_pos_site_id
 _symmetry_equiv_pos_as_xyz
  1  'x, y, z'
loop_
 _atom_site_type_symbol
 _atom_site_label
 _atom_site_symmetry_multiplicity
 _atom_site_fract_x
 _atom_site_fract_y
 _atom_site_fract_z
 _atom_site_occupancy
  Ca  Ca0  1  0.00000000  0.00000000  0.00000000  1
  Ca  Ca1  1  0.00000000  0.00000000  0.50000000  1
  Ca  Ca2  1  0.50000000  0.50000000  0.00000000  1
  Ca  Ca3  1  0.50000000  0.50000000  0.50000000  1
  P  P4  1  0.33721300  0.11395900  0.80960900  1
  P  P5  1  0.66278700  0.11395900  0.69039100  1
  P  P6  1  0.66278700  0.88604100  0.19039100  1
  P  P7  1  0.33721300  0.88604100  0.30960900  1
  P  P8  1  0.83721300  0.61395900  0.80960900  1
  P  P9  1  0.16278700  0.61395900  0.69039100  1
  P  P10  1  0.16278700  0.38604100  0.19039100  1
  P  P11  1  0.83721300  0.38604100  0.30960900  1
  H  H12  1  0.71353650  0.79269750  0.65185200  1
  H  H13  1  0.28646350  0.79269750  0.84814800  1
  H  H14  1  0.28646350  0.20730250  0.34814800  1
  H  H15  1  0.71353650  0.20730250  0.15185200  1
  H  H16  1  0.21353650  0.29269750  0.65185200  1
  H  H17  1  0.78646350  0.29269750  0.84814800  1
  H  H18  1  0.78646350  0.70730250  0.34814800  1
  H  H19  1  0.21353650  0.70730250  0.15185200  1
  O  O20  1  0.24739750  0.97733050  0.87678700  1
  O  O21  1  0.75260250  0.97733050  0.62321300  1
  O  O22  1  0.75260250  0.02266950  0.12321300  1
  O  O23  1  0.24739750  0.02266950  0.37678700  1
  O  O24  1  0.19686550  0.17073150  0.67489900  1
  O  O25  1  0.80313450  0.17073150  0.82510100  1
  O  O26  1  0.80313450  0.82926850  0.32510100  1
  O  O27  1  0.19686550  0.82926850  0.17489900  1
  O  O28  1  0.40853700  0.25957500  0.89510600  1
  O  O29  1  0.59146300  0.25957500  0.60489400  1
  O  O30  1  0.59146300  0.74042500  0.10489400  1
  O  O31  1  0.40853700  0.74042500  0.39510600  1
  O  O32  1  0.50000000  0.02382900  0.75000000  1
  O  O33  1  0.50000000  0.97617100  0.25000000  1
  O  O34  1  0.74739750  0.47733050  0.87678700  1
  O  O35  1  0.25260250  0.47733050  0.62321300  1
  O  O36  1  0.25260250  0.52266950  0.12321300  1
  O  O37  1  0.74739750  0.52266950  0.37678700  1
  O  O38  1  0.69686550  0.67073150  0.67489900  1
  O  O39  1  0.30313450  0.67073150  0.82510100  1
  O  O40  1  0.30313450  0.32926850  0.32510100  1
  O  O41  1  0.69686550  0.32926850  0.17489900  1
  O  O42  1  0.90853700  0.75957500  0.89510600  1
  O  O43  1  0.09146300  0.75957500  0.60489400  1
  O  O44  1  0.09146300  0.24042500  0.10489400  1
  O  O45  1  0.90853700  0.24042500  0.39510600  1
  O  O46  1  0.00000000  0.52382900  0.75000000  1
  O  O47  1  0.00000000  0.47617100  0.25000000  1
