# generated using pymatgen
data_NaGa(SiO3)2
_symmetry_space_group_name_H-M   'P 1'
_cell_length_a   9.71962000
_cell_length_b   8.82463800
_cell_length_c   5.34421818
_cell_angle_alpha   90.00000000
_cell_angle_beta   107.95023488
_cell_angle_gamma   90.00000000
_symmetry_Int_Tables_number   1
_chemical_formula_structural   NaGa(SiO3)2
_chemical_formula_sum   'Na4 Ga4 Si8 O24'
_cell_volume   436.07287514
_cell_formula_units_Z   4
loop_
 _symmetry_equiv_pos_site_id
 _symmetry_equiv_pos_as_xyz
  1  'x, y, z'
loop_
 _atom_site_type_symbol
 _atom_site_label
 _atom_site_symmetry_multiplicity
 _atom_site_fract_x
 _atom_site_fract_y
 _atom_site_fract_z
 _atom_site_occupancy
  Na  Na0  1  0.00000000  0.29908900  0.25000000  1
  Na  Na1  1  0.00000000  0.70091100  0.75000000  1
  Na  Na2  1  0.50000000  0.79908900  0.25000000  1
  Na  Na3  1  0.50000000  0.20091100  0.75000000  1
  Ga  Ga4  1  0.00000000  0.90003600  0.25000000  1
  Ga  Ga5  1  0.00000000  0.09996400  0.75000000  1
  Ga  Ga6  1  0.50000000  0.40003600  0.25000000  1
  Ga  Ga7  1  0.50000000  0.59996400  0.75000000  1
  Si  Si8  1  0.20939400  0.40929000  0.76922400  1
  Si  Si9  1  0.79060600  0.59071000  0.23077600  1
  Si  Si10  1  0.79060600  0.40929000  0.73077600  1
  Si  Si11  1  0.20939400  0.59071000  0.26922400  1
  Si  Si12  1  0.70939400  0.90929000  0.76922400  1
  Si  Si13  1  0.29060600  0.09071000  0.23077600  1
  Si  Si14  1  0.29060600  0.90929000  0.73077600  1
  Si  Si15  1  0.70939400  0.09071000  0.26922400  1
  O  O16  1  0.85141800  0.49147600  0.50773000  1
  O  O17  1  0.14858200  0.49147600  0.99227000  1
  O  O18  1  0.14858200  0.50852400  0.49227000  1
  O  O19  1  0.85141800  0.50852400  0.00773000  1
  O  O20  1  0.85909700  0.24262300  0.80157200  1
  O  O21  1  0.14090300  0.24262300  0.69842800  1
  O  O22  1  0.14090300  0.75737700  0.19842800  1
  O  O23  1  0.85909700  0.75737700  0.30157200  1
  O  O24  1  0.61200300  0.57839200  0.13288100  1
  O  O25  1  0.38799700  0.57839200  0.36711900  1
  O  O26  1  0.38799700  0.42160800  0.86711900  1
  O  O27  1  0.61200300  0.42160800  0.63288100  1
  O  O28  1  0.35141800  0.99147600  0.50773000  1
  O  O29  1  0.64858200  0.99147600  0.99227000  1
  O  O30  1  0.64858200  0.00852400  0.49227000  1
  O  O31  1  0.35141800  0.00852400  0.00773000  1
  O  O32  1  0.35909700  0.74262300  0.80157200  1
  O  O33  1  0.64090300  0.74262300  0.69842800  1
  O  O34  1  0.64090300  0.25737700  0.19842800  1
  O  O35  1  0.35909700  0.25737700  0.30157200  1
  O  O36  1  0.11200300  0.07839200  0.13288100  1
  O  O37  1  0.88799700  0.07839200  0.36711900  1
  O  O38  1  0.88799700  0.92160800  0.86711900  1
  O  O39  1  0.11200300  0.92160800  0.63288100  1
