# generated using pymatgen
data_Er2Zr8O19
_symmetry_space_group_name_H-M   'P 1'
_cell_length_a   3.66230200
_cell_length_b   3.66230200
_cell_length_c   26.19377000
_cell_angle_alpha   90.00000000
_cell_angle_beta   90.00000000
_cell_angle_gamma   90.00000000
_symmetry_Int_Tables_number   1
_chemical_formula_structural   Er2Zr8O19
_chemical_formula_sum   'Er2 Zr8 O19'
_cell_volume   351.32278601
_cell_formula_units_Z   1
loop_
 _symmetry_equiv_pos_site_id
 _symmetry_equiv_pos_as_xyz
  1  'x, y, z'
loop_
 _atom_site_type_symbol
 _atom_site_label
 _atom_site_symmetry_multiplicity
 _atom_site_fract_x
 _atom_site_fract_y
 _atom_site_fract_z
 _atom_site_occupancy
  Er  Er0  1  0.50000000  0.00000000  0.94301000  1
  Er  Er1  1  0.00000000  0.50000000  0.05699000  1
  Zr  Zr2  1  0.50000000  0.00000000  0.15304100  1
  Zr  Zr3  1  0.00000000  0.50000000  0.25276200  1
  Zr  Zr4  1  0.50000000  0.00000000  0.35218500  1
  Zr  Zr5  1  0.00000000  0.50000000  0.45100800  1
  Zr  Zr6  1  0.50000000  0.00000000  0.54899200  1
  Zr  Zr7  1  0.00000000  0.50000000  0.64781500  1
  Zr  Zr8  1  0.50000000  0.00000000  0.74723800  1
  Zr  Zr9  1  0.00000000  0.50000000  0.84695900  1
  O  O10  1  0.50000000  0.50000000  0.19448900  1
  O  O11  1  0.00000000  0.00000000  0.30955000  1
  O  O12  1  0.50000000  0.50000000  0.39658500  1
  O  O13  1  0.00000000  0.00000000  0.50000000  1
  O  O14  1  0.50000000  0.50000000  0.60341500  1
  O  O15  1  0.00000000  0.00000000  0.69045000  1
  O  O16  1  0.50000000  0.50000000  0.70372400  1
  O  O17  1  0.50000000  0.50000000  0.80551100  1
  O  O18  1  0.00000000  0.00000000  0.78970800  1
  O  O19  1  0.00000000  0.00000000  0.88874500  1
  O  O20  1  0.50000000  0.50000000  0.90482900  1
  O  O21  1  0.00000000  0.00000000  0.11125500  1
  O  O22  1  0.00000000  0.00000000  0.00000000  1
  O  O23  1  0.50000000  0.50000000  0.09517100  1
  O  O24  1  0.00000000  0.00000000  0.21029200  1
  O  O25  1  0.50000000  0.50000000  0.29627600  1
  O  O26  1  0.00000000  0.00000000  0.40609000  1
  O  O27  1  0.50000000  0.50000000  0.50000000  1
  O  O28  1  0.00000000  0.00000000  0.59391000  1
