# generated using pymatgen
data_CaFe2Sb2(PO4)6
_symmetry_space_group_name_H-M   'P 1'
_cell_length_a   8.44357733
_cell_length_b   8.44357733
_cell_length_c   22.47785648
_cell_angle_alpha   90.00000000
_cell_angle_beta   90.00000000
_cell_angle_gamma   120.00000000
_symmetry_Int_Tables_number   1
_chemical_formula_structural   CaFe2Sb2(PO4)6
_chemical_formula_sum   'Ca3 Fe6 Sb6 P18 O72'
_cell_volume   1387.83710850
_cell_formula_units_Z   3
loop_
 _symmetry_equiv_pos_site_id
 _symmetry_equiv_pos_as_xyz
  1  'x, y, z'
loop_
 _atom_site_type_symbol
 _atom_site_label
 _atom_site_symmetry_multiplicity
 _atom_site_fract_x
 _atom_site_fract_y
 _atom_site_fract_z
 _atom_site_occupancy
  Ca  Ca0  1  0.00000000  0.00000000  0.00000000  1
  Ca  Ca1  1  0.66666667  0.33333333  0.33333333  1
  Ca  Ca2  1  0.33333333  0.66666667  0.66666667  1
  Fe  Fe3  1  0.00000000  0.00000000  0.14689100  1
  Fe  Fe4  1  0.66666667  0.33333333  0.18644233  1
  Fe  Fe5  1  0.66666667  0.33333333  0.48022433  1
  Fe  Fe6  1  0.33333333  0.66666667  0.51977567  1
  Fe  Fe7  1  0.33333333  0.66666667  0.81355767  1
  Fe  Fe8  1  0.00000000  0.00000000  0.85310900  1
  Sb  Sb9  1  0.33333333  0.66666667  0.31450967  1
  Sb  Sb10  1  0.33333333  0.66666667  0.01882367  1
  Sb  Sb11  1  0.00000000  0.00000000  0.64784300  1
  Sb  Sb12  1  0.00000000  0.00000000  0.35215700  1
  Sb  Sb13  1  0.66666667  0.33333333  0.98117633  1
  Sb  Sb14  1  0.66666667  0.33333333  0.68549033  1
  P  P15  1  0.29110400  0.00301000  0.24968200  1
  P  P16  1  0.99699000  0.28809400  0.24968200  1
  P  P17  1  0.71190600  0.70889600  0.24968200  1
  P  P18  1  0.95476067  0.62443733  0.08365133  1
  P  P19  1  0.66967667  0.04523933  0.08365133  1
  P  P20  1  0.37556267  0.33032333  0.08365133  1
  P  P21  1  0.95777067  0.33634333  0.58301533  1
  P  P22  1  0.66365667  0.62142733  0.58301533  1
  P  P23  1  0.37857267  0.04222933  0.58301533  1
  P  P24  1  0.62142733  0.95777067  0.41698467  1
  P  P25  1  0.33634333  0.37857267  0.41698467  1
  P  P26  1  0.04222933  0.66365667  0.41698467  1
  P  P27  1  0.62443733  0.66967667  0.91634867  1
  P  P28  1  0.33032333  0.95476067  0.91634867  1
  P  P29  1  0.04523933  0.37556267  0.91634867  1
  P  P30  1  0.28809400  0.29110400  0.75031800  1
  P  P31  1  0.00301000  0.71190600  0.75031800  1
  P  P32  1  0.70889600  0.99699000  0.75031800  1
  O  O33  1  0.92213967  0.14521033  0.30269133  1
  O  O34  1  0.47089500  0.88534700  0.06988700  1
  O  O35  1  0.41445200  0.52910500  0.06988700  1
  O  O36  1  0.11465300  0.58554800  0.06988700  1
  O  O37  1  0.79725500  0.80707400  0.19223600  1
  O  O38  1  0.85478967  0.77692933  0.30269133  1
  O  O39  1  0.19292600  0.99018100  0.19223600  1
  O  O40  1  0.22307067  0.07786033  0.30269133  1
  O  O41  1  0.16921100  0.19310100  0.08442800  1
  O  O42  1  0.02389000  0.83078900  0.08442800  1
  O  O43  1  0.80689900  0.97611000  0.08442800  1
  O  O44  1  0.65684767  0.13058833  0.14109733  1
  O  O45  1  0.00981900  0.20274500  0.19223600  1
  O  O46  1  0.85976767  0.35722333  0.24890533  1
  O  O47  1  0.64277667  0.50254433  0.24890533  1
  O  O48  1  0.49745567  0.14023233  0.24890533  1
  O  O49  1  0.44359600  0.25547300  0.03064200  1
  O  O50  1  0.47374067  0.34315233  0.14109733  1
  O  O51  1  0.81187700  0.55640400  0.03064200  1
  O  O52  1  0.86941167  0.52625933  0.14109733  1
  O  O53  1  0.55201367  0.74778533  0.26344633  1
  O  O54  1  0.25221467  0.80422833  0.26344633  1
  O  O55  1  0.19577167  0.44798633  0.26344633  1
  O  O56  1  0.74452700  0.18812300  0.03064200  1
  O  O57  1  0.58880633  0.47854367  0.63602467  1
  O  O58  1  0.13756167  0.21868033  0.40322033  1
  O  O59  1  0.08111867  0.86243833  0.40322033  1
  O  O60  1  0.78131967  0.91888133  0.40322033  1
  O  O61  1  0.46392167  0.14040733  0.52556933  1
  O  O62  1  0.52145633  0.11026267  0.63602467  1
  O  O63  1  0.85959267  0.32351433  0.52556933  1
  O  O64  1  0.88973733  0.41119367  0.63602467  1
  O  O65  1  0.83587767  0.52643433  0.41776133  1
  O  O66  1  0.69055667  0.16412233  0.41776133  1
  O  O67  1  0.47356567  0.30944333  0.41776133  1
  O  O68  1  0.32351433  0.46392167  0.47443067  1
  O  O69  1  0.67648567  0.53607833  0.52556933  1
  O  O70  1  0.52643433  0.69055667  0.58223867  1
  O  O71  1  0.30944333  0.83587767  0.58223867  1
  O  O72  1  0.16412233  0.47356567  0.58223867  1
  O  O73  1  0.11026267  0.58880633  0.36397533  1
  O  O74  1  0.14040733  0.67648567  0.47443067  1
  O  O75  1  0.47854367  0.88973733  0.36397533  1
  O  O76  1  0.53607833  0.85959267  0.47443067  1
  O  O77  1  0.21868033  0.08111867  0.59677967  1
  O  O78  1  0.91888133  0.13756167  0.59677967  1
  O  O79  1  0.86243833  0.78131967  0.59677967  1
  O  O80  1  0.41119367  0.52145633  0.36397533  1
  O  O81  1  0.25547300  0.81187700  0.96935800  1
  O  O82  1  0.80422833  0.55201367  0.73655367  1
  O  O83  1  0.74778533  0.19577167  0.73655367  1
  O  O84  1  0.44798633  0.25221467  0.73655367  1
  O  O85  1  0.13058833  0.47374067  0.85890267  1
  O  O86  1  0.18812300  0.44359600  0.96935800  1
  O  O87  1  0.52625933  0.65684767  0.85890267  1
  O  O88  1  0.55640400  0.74452700  0.96935800  1
  O  O89  1  0.50254433  0.85976767  0.75109467  1
  O  O90  1  0.35722333  0.49745567  0.75109467  1
  O  O91  1  0.14023233  0.64277667  0.75109467  1
  O  O92  1  0.99018100  0.79725500  0.80776400  1
  O  O93  1  0.34315233  0.86941167  0.85890267  1
  O  O94  1  0.19310100  0.02389000  0.91557200  1
  O  O95  1  0.97611000  0.16921100  0.91557200  1
  O  O96  1  0.83078900  0.80689900  0.91557200  1
  O  O97  1  0.77692933  0.92213967  0.69730867  1
  O  O98  1  0.80707400  0.00981900  0.80776400  1
  O  O99  1  0.14521033  0.22307067  0.69730867  1
  O  O100  1  0.20274500  0.19292600  0.80776400  1
  O  O101  1  0.88534700  0.41445200  0.93011300  1
  O  O102  1  0.58554800  0.47089500  0.93011300  1
  O  O103  1  0.52910500  0.11465300  0.93011300  1
  O  O104  1  0.07786033  0.85478967  0.69730867  1
