# generated using pymatgen
data_NaPO3
_symmetry_space_group_name_H-M   'P 1'
_cell_length_a   12.64487600
_cell_length_b   12.64487600
_cell_length_c   7.48576200
_cell_angle_alpha   90.00000000
_cell_angle_beta   90.00000000
_cell_angle_gamma   90.00000000
_symmetry_Int_Tables_number   1
_chemical_formula_structural   NaPO3
_chemical_formula_sum   'Na16 P16 O48'
_cell_volume   1196.92011296
_cell_formula_units_Z   16
loop_
 _symmetry_equiv_pos_site_id
 _symmetry_equiv_pos_as_xyz
  1  'x, y, z'
loop_
 _atom_site_type_symbol
 _atom_site_label
 _atom_site_symmetry_multiplicity
 _atom_site_fract_x
 _atom_site_fract_y
 _atom_site_fract_z
 _atom_site_occupancy
  Na  Na0  1  0.91848450  0.89603450  0.26810750  1
  Na  Na1  1  0.08151550  0.60396550  0.48189250  1
  Na  Na2  1  0.60396550  0.41848450  0.23189250  1
  Na  Na3  1  0.10396550  0.41848450  0.01810750  1
  Na  Na4  1  0.08151550  0.10396550  0.26810750  1
  Na  Na5  1  0.39603450  0.58151550  0.23189250  1
  Na  Na6  1  0.89603450  0.58151550  0.01810750  1
  Na  Na7  1  0.91848450  0.39603450  0.48189250  1
  Na  Na8  1  0.41848450  0.39603450  0.76810750  1
  Na  Na9  1  0.58151550  0.10396550  0.98189250  1
  Na  Na10  1  0.10396550  0.91848450  0.73189250  1
  Na  Na11  1  0.60396550  0.91848450  0.51810750  1
  Na  Na12  1  0.58151550  0.60396550  0.76810750  1
  Na  Na13  1  0.89603450  0.08151550  0.73189250  1
  Na  Na14  1  0.39603450  0.08151550  0.51810750  1
  Na  Na15  1  0.41848450  0.89603450  0.98189250  1
  P  P16  1  0.86038050  0.79960550  0.68533350  1
  P  P17  1  0.29960550  0.63961950  0.81466650  1
  P  P18  1  0.20039450  0.36038050  0.43533350  1
  P  P19  1  0.86038050  0.29960550  0.06466650  1
  P  P20  1  0.13961950  0.70039450  0.06466650  1
  P  P21  1  0.79960550  0.63961950  0.43533350  1
  P  P22  1  0.70039450  0.36038050  0.81466650  1
  P  P23  1  0.13961950  0.20039450  0.68533350  1
  P  P24  1  0.36038050  0.29960550  0.18533350  1
  P  P25  1  0.79960550  0.13961950  0.31466650  1
  P  P26  1  0.70039450  0.86038050  0.93533350  1
  P  P27  1  0.36038050  0.79960550  0.56466650  1
  P  P28  1  0.63961950  0.20039450  0.56466650  1
  P  P29  1  0.29960550  0.13961950  0.93533350  1
  P  P30  1  0.20039450  0.86038050  0.31466650  1
  P  P31  1  0.63961950  0.70039450  0.18533350  1
  O  O32  1  0.10338700  0.42814200  0.41838600  1
  O  O33  1  0.92814200  0.39661300  0.08161400  1
  O  O34  1  0.89661300  0.57185800  0.41838600  1
  O  O35  1  0.11092000  0.79335600  0.95302000  1
  O  O36  1  0.70664400  0.61092000  0.54698000  1
  O  O37  1  0.76120350  0.65947550  0.22859550  1
  O  O38  1  0.88908000  0.70664400  0.79698000  1
  O  O39  1  0.84052450  0.26120350  0.27140450  1
  O  O40  1  0.11092000  0.29335600  0.79698000  1
  O  O41  1  0.88908000  0.20664400  0.95302000  1
  O  O42  1  0.07185800  0.60338700  0.08161400  1
  O  O43  1  0.73879650  0.34052450  0.02140450  1
  O  O44  1  0.23879650  0.34052450  0.22859550  1
  O  O45  1  0.26120350  0.65947550  0.02140450  1
  O  O46  1  0.20664400  0.61092000  0.70302000  1
  O  O47  1  0.60338700  0.42814200  0.83161400  1
  O  O48  1  0.15947550  0.73879650  0.27140450  1
  O  O49  1  0.84052450  0.76120350  0.47859550  1
  O  O50  1  0.07185800  0.10338700  0.66838600  1
  O  O51  1  0.39661300  0.57185800  0.83161400  1
  O  O52  1  0.79335600  0.38908000  0.70302000  1
  O  O53  1  0.15947550  0.23879650  0.47859550  1
  O  O54  1  0.29335600  0.38908000  0.54698000  1
  O  O55  1  0.92814200  0.89661300  0.66838600  1
  O  O56  1  0.60338700  0.92814200  0.91838600  1
  O  O57  1  0.42814200  0.89661300  0.58161400  1
  O  O58  1  0.39661300  0.07185800  0.91838600  1
  O  O59  1  0.61092000  0.29335600  0.45302000  1
  O  O60  1  0.20664400  0.11092000  0.04698000  1
  O  O61  1  0.26120350  0.15947550  0.72859550  1
  O  O62  1  0.38908000  0.20664400  0.29698000  1
  O  O63  1  0.34052450  0.76120350  0.77140450  1
  O  O64  1  0.61092000  0.79335600  0.29698000  1
  O  O65  1  0.38908000  0.70664400  0.45302000  1
  O  O66  1  0.57185800  0.10338700  0.58161400  1
  O  O67  1  0.23879650  0.84052450  0.52140450  1
  O  O68  1  0.73879650  0.84052450  0.72859550  1
  O  O69  1  0.76120350  0.15947550  0.52140450  1
  O  O70  1  0.70664400  0.11092000  0.20302000  1
  O  O71  1  0.10338700  0.92814200  0.33161400  1
  O  O72  1  0.65947550  0.23879650  0.77140450  1
  O  O73  1  0.34052450  0.26120350  0.97859550  1
  O  O74  1  0.57185800  0.60338700  0.16838600  1
  O  O75  1  0.89661300  0.07185800  0.33161400  1
  O  O76  1  0.29335600  0.88908000  0.20302000  1
  O  O77  1  0.65947550  0.73879650  0.97859550  1
  O  O78  1  0.79335600  0.88908000  0.04698000  1
  O  O79  1  0.42814200  0.39661300  0.16838600  1
