# generated using pymatgen
data_Ge7H18O23
_symmetry_space_group_name_H-M   'P 1'
_cell_length_a   7.66870700
_cell_length_b   7.76648130
_cell_length_c   7.95282103
_cell_angle_alpha   90.07157807
_cell_angle_beta   91.03678555
_cell_angle_gamma   90.25229761
_symmetry_Int_Tables_number   1
_chemical_formula_structural   Ge7H18O23
_chemical_formula_sum   'Ge7 H18 O23'
_cell_volume   473.57847399
_cell_formula_units_Z   1
loop_
 _symmetry_equiv_pos_site_id
 _symmetry_equiv_pos_as_xyz
  1  'x, y, z'
loop_
 _atom_site_type_symbol
 _atom_site_label
 _atom_site_symmetry_multiplicity
 _atom_site_fract_x
 _atom_site_fract_y
 _atom_site_fract_z
 _atom_site_occupancy
  Ge  Ge0  1  0.86271100  0.15028500  0.87714900  1
  Ge  Ge1  1  0.13256900  0.88762100  0.86060000  1
  Ge  Ge2  1  0.86311800  0.86756000  0.13062900  1
  Ge  Ge3  1  0.14360100  0.14365800  0.14349400  1
  Ge  Ge4  1  0.99942700  0.49841300  0.00892400  1
  Ge  Ge5  1  0.49928400  0.00783200  0.99357200  1
  Ge  Ge6  1  0.00114200  0.99731100  0.48477800  1
  H  H7  1  0.04224100  0.42862700  0.53069200  1
  H  H8  1  0.03123000  0.63401500  0.56892200  1
  H  H9  1  0.27470800  0.60443900  0.91987300  1
  H  H10  1  0.47556200  0.42918700  0.03239100  1
  H  H11  1  0.54892900  0.62217300  0.03098700  1
  H  H12  1  0.53238000  0.00497100  0.39007800  1
  H  H13  1  0.56563700  0.96188600  0.58196300  1
  H  H14  1  0.73689100  0.44229000  0.31443000  1
  H  H15  1  0.62296600  0.28154900  0.27318100  1
  H  H16  1  0.78665100  0.21600800  0.55303800  1
  H  H17  1  0.67051200  0.56224900  0.69249200  1
  H  H18  1  0.52423500  0.69266000  0.72285700  1
  H  H19  1  0.40302200  0.15738500  0.56246300  1
  H  H20  1  0.45341400  0.26916800  0.73639600  1
  H  H21  1  0.36305900  0.37592900  0.58346400  1
  H  H22  1  0.42916000  0.61318800  0.36078400  1
  H  H23  1  0.34726500  0.77452300  0.45414000  1
  H  H24  1  0.20227700  0.59811200  0.42327000  1
  O  O25  1  0.87906400  0.12787900  0.11586200  1
  O  O26  1  0.88089200  0.89232300  0.87985600  1
  O  O27  1  0.11429600  0.13118800  0.88028900  1
  O  O28  1  0.12039700  0.89548000  0.11206500  1
  O  O29  1  0.87485800  0.38712200  0.85457200  1
  O  O30  1  0.62009600  0.14704100  0.85813800  1
  O  O31  1  0.86541700  0.13877900  0.61749500  1
  O  O32  1  0.14907200  0.63103500  0.88187700  1
  O  O33  1  0.37238200  0.88475700  0.84926500  1
  O  O34  1  0.10921600  0.85805600  0.62611500  1
  O  O35  1  0.86544600  0.62895000  0.12820100  1
  O  O36  1  0.62088200  0.86304700  0.11714800  1
  O  O37  1  0.85380900  0.87811800  0.36376600  1
  O  O38  1  0.13912300  0.38016000  0.13967700  1
  O  O39  1  0.38753600  0.14323500  0.13392500  1
  O  O40  1  0.13879300  0.13841600  0.37819900  1
  O  O41  1  0.05868900  0.54409400  0.48473900  1
  O  O42  1  0.46904400  0.53976400  0.97427300  1
  O  O43  1  0.47674500  0.00058600  0.50075300  1
  O  O44  1  0.65271100  0.36247500  0.36402000  1
  O  O45  1  0.57543400  0.62362200  0.63408400  1
  O  O46  1  0.36490000  0.26490300  0.64145500  1
  O  O47  1  0.32090800  0.67694400  0.37653300  1
