# generated using pymatgen
data_Na5Zr4Si3(PO8)3
_symmetry_space_group_name_H-M   'P 1'
_cell_length_a   9.12093623
_cell_length_b   9.12093623
_cell_length_c   23.07739217
_cell_angle_alpha   90.00000000
_cell_angle_beta   90.00000000
_cell_angle_gamma   120.00000000
_symmetry_Int_Tables_number   1
_chemical_formula_structural   Na5Zr4Si3(PO8)3
_chemical_formula_sum   'Na15 Zr12 Si9 P9 O72'
_cell_volume   1662.63225071
_cell_formula_units_Z   3
loop_
 _symmetry_equiv_pos_site_id
 _symmetry_equiv_pos_as_xyz
  1  'x, y, z'
loop_
 _atom_site_type_symbol
 _atom_site_label
 _atom_site_symmetry_multiplicity
 _atom_site_fract_x
 _atom_site_fract_y
 _atom_site_fract_z
 _atom_site_occupancy
  Na  Na0  1  0.00000000  0.00000000  0.25531100  1
  Na  Na1  1  0.33333333  0.30631767  0.16666667  1
  Na  Na2  1  0.97298433  0.66666667  0.16666667  1
  Na  Na3  1  0.69368233  0.02701567  0.16666667  1
  Na  Na4  1  0.66666667  0.33333333  0.07802233  1
  Na  Na5  1  0.66666667  0.33333333  0.58864433  1
  Na  Na6  1  0.00000000  0.63965100  0.50000000  1
  Na  Na7  1  0.63965100  0.00000000  0.50000000  1
  Na  Na8  1  0.36034900  0.36034900  0.50000000  1
  Na  Na9  1  0.33333333  0.66666667  0.41135567  1
  Na  Na10  1  0.33333333  0.66666667  0.92197767  1
  Na  Na11  1  0.66666667  0.97298433  0.83333333  1
  Na  Na12  1  0.30631767  0.33333333  0.83333333  1
  Na  Na13  1  0.02701567  0.69368233  0.83333333  1
  Na  Na14  1  0.00000000  0.00000000  0.74468900  1
  Zr  Zr15  1  0.00000000  0.00000000  0.10087600  1
  Zr  Zr16  1  0.66666667  0.33333333  0.23245733  1
  Zr  Zr17  1  0.33333333  0.66666667  0.26933567  1
  Zr  Zr18  1  0.33333333  0.66666667  0.06399767  1
  Zr  Zr19  1  0.66666667  0.33333333  0.43420933  1
  Zr  Zr20  1  0.33333333  0.66666667  0.56579067  1
  Zr  Zr21  1  0.00000000  0.00000000  0.60266900  1
  Zr  Zr22  1  1.00000000  0.00000000  0.39733100  1
  Zr  Zr23  1  0.33333333  0.66666667  0.76754267  1
  Zr  Zr24  1  0.00000000  0.00000000  0.89912400  1
  Zr  Zr25  1  0.66666667  0.33333333  0.93600233  1
  Zr  Zr26  1  0.66666667  0.33333333  0.73066433  1
  Si  Si27  1  0.62314133  0.66666667  0.16666667  1
  Si  Si28  1  0.33333333  0.95647467  0.16666667  1
  Si  Si29  1  0.04352533  0.37685867  0.16666667  1
  Si  Si30  1  0.28980800  0.00000000  0.50000000  1
  Si  Si31  1  0.00000000  0.28980800  0.50000000  1
  Si  Si32  1  0.71019200  0.71019200  0.50000000  1
  Si  Si33  1  0.95647467  0.33333333  0.83333333  1
  Si  Si34  1  0.66666667  0.62314133  0.83333333  1
  Si  Si35  1  0.37685867  0.04352533  0.83333333  1
  P  P36  1  0.29815700  0.29815700  0.00000000  1
  P  P37  1  0.00000000  0.70184300  0.00000000  1
  P  P38  1  0.36850967  0.33333333  0.33333333  1
  P  P39  1  0.96482367  0.63149033  0.33333333  1
  P  P40  1  0.66666667  0.03517633  0.33333333  1
  P  P41  1  0.03517633  0.66666667  0.66666667  1
  P  P42  1  0.63149033  0.96482367  0.66666667  1
  P  P43  1  0.33333333  0.36850967  0.66666667  1
  P  P44  1  0.70184300  0.00000000  0.00000000  1
  O  O45  1  0.46243500  0.32265000  0.27852300  1
  O  O46  1  0.86021500  0.53756500  0.27852300  1
  O  O47  1  0.81272533  0.83221267  0.15811267  1
  O  O48  1  0.67735000  0.13978500  0.27852300  1
  O  O49  1  0.64717933  0.50112067  0.17522067  1
  O  O50  1  0.49700933  0.62285467  0.11111467  1
  O  O51  1  0.16778733  0.98051267  0.15811267  1
  O  O52  1  0.49887933  0.14605867  0.17522067  1
  O  O53  1  0.85394133  0.35282067  0.17522067  1
  O  O54  1  0.20423167  0.19354833  0.05481033  1
  O  O55  1  0.31161767  0.47362433  0.00182333  1
  O  O56  1  0.98931667  0.79576833  0.05481033  1
  O  O57  1  0.37714533  0.87415467  0.11111467  1
  O  O58  1  0.01948733  0.18727467  0.15811267  1
  O  O59  1  0.12584533  0.50299067  0.11111467  1
  O  O60  1  0.14029100  0.64495100  0.33151000  1
  O  O61  1  0.50466000  0.85970900  0.33151000  1
  O  O62  1  0.16200667  0.68838233  0.00182333  1
  O  O63  1  0.80645167  0.01068333  0.05481033  1
  O  O64  1  0.35504900  0.49534000  0.33151000  1
  O  O65  1  0.28952133  0.83034267  0.22221867  1
  O  O66  1  0.52637567  0.83799333  0.00182333  1
  O  O67  1  0.16965733  0.45917867  0.22221867  1
  O  O68  1  0.54082133  0.71047867  0.22221867  1
  O  O69  1  0.12910167  0.65598333  0.61185633  1
  O  O70  1  0.52688167  0.87089833  0.61185633  1
  O  O71  1  0.47939200  0.16554600  0.49144600  1
  O  O72  1  0.34401667  0.47311833  0.61185633  1
  O  O73  1  0.31384600  0.83445400  0.50855400  1
  O  O74  1  0.16367600  0.95618800  0.44444800  1
  O  O75  1  0.83445400  0.31384600  0.49144600  1
  O  O76  1  0.16554600  0.47939200  0.50855400  1
  O  O77  1  0.52060800  0.68615400  0.50855400  1
  O  O78  1  0.87089833  0.52688167  0.38814367  1
  O  O79  1  0.97828433  0.80695767  0.33515667  1
  O  O80  1  0.65598333  0.12910167  0.38814367  1
  O  O81  1  0.04381200  0.20748800  0.44444800  1
  O  O82  1  0.68615400  0.52060800  0.49144600  1
  O  O83  1  0.79251200  0.83632400  0.44444800  1
  O  O84  1  0.80695767  0.97828433  0.66484333  1
  O  O85  1  0.17132667  0.19304233  0.66484333  1
  O  O86  1  0.82867333  0.02171567  0.33515667  1
  O  O87  1  0.47311833  0.34401667  0.38814367  1
  O  O88  1  0.02171567  0.82867333  0.66484333  1
  O  O89  1  0.95618800  0.16367600  0.55555200  1
  O  O90  1  0.19304233  0.17132667  0.33515667  1
  O  O91  1  0.83632400  0.79251200  0.55555200  1
  O  O92  1  0.20748800  0.04381200  0.55555200  1
  O  O93  1  0.79576833  0.98931667  0.94518967  1
  O  O94  1  0.19354833  0.20423167  0.94518967  1
  O  O95  1  0.14605867  0.49887933  0.82477933  1
  O  O96  1  0.01068333  0.80645167  0.94518967  1
  O  O97  1  0.98051267  0.16778733  0.84188733  1
  O  O98  1  0.83034267  0.28952133  0.77778133  1
  O  O99  1  0.50112067  0.64717933  0.82477933  1
  O  O100  1  0.83221267  0.81272533  0.84188733  1
  O  O101  1  0.18727467  0.01948733  0.84188733  1
  O  O102  1  0.53756500  0.86021500  0.72147700  1
  O  O103  1  0.64495100  0.14029100  0.66849000  1
  O  O104  1  0.32265000  0.46243500  0.72147700  1
  O  O105  1  0.71047867  0.54082133  0.77778133  1
  O  O106  1  0.35282067  0.85394133  0.82477933  1
  O  O107  1  0.45917867  0.16965733  0.77778133  1
  O  O108  1  0.47362433  0.31161767  0.99817667  1
  O  O109  1  0.83799333  0.52637567  0.99817667  1
  O  O110  1  0.49534000  0.35504900  0.66849000  1
  O  O111  1  0.13978500  0.67735000  0.72147700  1
  O  O112  1  0.68838233  0.16200667  0.99817667  1
  O  O113  1  0.62285467  0.49700933  0.88888533  1
  O  O114  1  0.85970900  0.50466000  0.66849000  1
  O  O115  1  0.50299067  0.12584533  0.88888533  1
  O  O116  1  0.87415467  0.37714533  0.88888533  1
