# generated using pymatgen
data_Li7Mn11O24
_symmetry_space_group_name_H-M   'P 1'
_cell_length_a   19.23088200
_cell_length_b   5.79102800
_cell_length_c   8.56348449
_cell_angle_alpha   90.00000000
_cell_angle_beta   114.67383516
_cell_angle_gamma   90.00000000
_symmetry_Int_Tables_number   1
_chemical_formula_structural   Li7Mn11O24
_chemical_formula_sum   'Li14 Mn22 O48'
_cell_volume   866.61337842
_cell_formula_units_Z   2
loop_
 _symmetry_equiv_pos_site_id
 _symmetry_equiv_pos_as_xyz
  1  'x, y, z'
loop_
 _atom_site_type_symbol
 _atom_site_label
 _atom_site_symmetry_multiplicity
 _atom_site_fract_x
 _atom_site_fract_y
 _atom_site_fract_z
 _atom_site_occupancy
  Li  Li0  1  0.10105000  0.33084200  0.23571100  1
  Li  Li1  1  0.25270900  0.83306400  0.88330900  1
  Li  Li2  1  0.42099650  0.33339150  0.54311600  1
  Li  Li3  1  0.07900350  0.83339150  0.45688400  1
  Li  Li4  1  0.24729100  0.33306400  0.11669100  1
  Li  Li5  1  0.39895000  0.83084200  0.76428900  1
  Li  Li6  1  0.00000000  0.34206800  0.00000000  1
  Li  Li7  1  0.60105000  0.83084200  0.23571100  1
  Li  Li8  1  0.75270900  0.33306400  0.88330900  1
  Li  Li9  1  0.92099650  0.83339150  0.54311600  1
  Li  Li10  1  0.57900350  0.33339150  0.45688400  1
  Li  Li11  1  0.74729100  0.83306400  0.11669100  1
  Li  Li12  1  0.89895000  0.33084200  0.76428900  1
  Li  Li13  1  0.50000000  0.84206800  0.00000000  1
  Mn  Mn14  1  0.16336300  0.83276700  0.15867900  1
  Mn  Mn15  1  0.08154450  0.07887950  0.84142900  1
  Mn  Mn16  1  0.24978850  0.08300150  0.50024000  1
  Mn  Mn17  1  0.16884500  0.33278400  0.68276900  1
  Mn  Mn18  1  0.33663700  0.33276700  0.84132100  1
  Mn  Mn19  1  0.08172450  0.58703250  0.84119800  1
  Mn  Mn20  1  0.25021150  0.58300150  0.49976000  1
  Mn  Mn21  1  0.41845550  0.57887950  0.15857100  1
  Mn  Mn22  1  0.33115500  0.83278400  0.31723100  1
  Mn  Mn23  1  0.00000000  0.33335400  0.50000000  1
  Mn  Mn24  1  0.41827550  0.08703250  0.15880200  1
  Mn  Mn25  1  0.66336300  0.33276700  0.15867900  1
  Mn  Mn26  1  0.58154450  0.57887950  0.84142900  1
  Mn  Mn27  1  0.74978850  0.58300150  0.50024000  1
  Mn  Mn28  1  0.66884500  0.83278400  0.68276900  1
  Mn  Mn29  1  0.83663700  0.83276700  0.84132100  1
  Mn  Mn30  1  0.58172450  0.08703250  0.84119800  1
  Mn  Mn31  1  0.75021150  0.08300150  0.49976000  1
  Mn  Mn32  1  0.91845550  0.07887950  0.15857100  1
  Mn  Mn33  1  0.83115500  0.33278400  0.31723100  1
  Mn  Mn34  1  0.50000000  0.83335400  0.50000000  1
  Mn  Mn35  1  0.91827550  0.58703250  0.15880200  1
  O  O36  1  0.09180250  0.58571150  0.06984500  1
  O  O37  1  0.15770700  0.83298600  0.92335500  1
  O  O38  1  0.09169100  0.07919900  0.06987200  1
  O  O39  1  0.25024900  0.11260200  0.75529900  1
  O  O40  1  0.15755400  0.33266800  0.89358900  1
  O  O41  1  0.17650100  0.33258100  0.45991700  1
  O  O42  1  0.32820300  0.33445900  0.60403100  1
  O  O43  1  0.25010400  0.55309200  0.75580700  1
  O  O44  1  0.24975100  0.61260200  0.24470100  1
  O  O45  1  0.41520950  0.60937650  0.39195100  1
  O  O46  1  0.32349900  0.83258100  0.54008300  1
  O  O47  1  0.17179700  0.83445900  0.39596900  1
  O  O48  1  0.34244600  0.83266800  0.10641100  1
  O  O49  1  0.49115650  0.83352350  0.22621000  1
  O  O50  1  0.24989600  0.05309200  0.24419300  1
  O  O51  1  0.41514450  0.05750650  0.39204400  1
  O  O52  1  0.40819750  0.08571150  0.93015500  1
  O  O53  1  0.48627500  0.33335800  0.23919300  1
  O  O54  1  0.01372500  0.83335800  0.76080700  1
  O  O55  1  0.34229300  0.33298600  0.07664500  1
  O  O56  1  0.40830900  0.57919900  0.93012800  1
  O  O57  1  0.08479050  0.10937650  0.60804900  1
  O  O58  1  0.00884350  0.33352350  0.77379000  1
  O  O59  1  0.08485550  0.55750650  0.60795600  1
  O  O60  1  0.59180250  0.08571150  0.06984500  1
  O  O61  1  0.65770700  0.33298600  0.92335500  1
  O  O62  1  0.59169100  0.57919900  0.06987200  1
  O  O63  1  0.75024900  0.61260200  0.75529900  1
  O  O64  1  0.65755400  0.83266800  0.89358900  1
  O  O65  1  0.67650100  0.83258100  0.45991700  1
  O  O66  1  0.82820300  0.83445900  0.60403100  1
  O  O67  1  0.75010400  0.05309200  0.75580700  1
  O  O68  1  0.74975100  0.11260200  0.24470100  1
  O  O69  1  0.91520950  0.10937650  0.39195100  1
  O  O70  1  0.82349900  0.33258100  0.54008300  1
  O  O71  1  0.67179700  0.33445900  0.39596900  1
  O  O72  1  0.84244600  0.33266800  0.10641100  1
  O  O73  1  0.99115650  0.33352350  0.22621000  1
  O  O74  1  0.74989600  0.55309200  0.24419300  1
  O  O75  1  0.91514450  0.55750650  0.39204400  1
  O  O76  1  0.90819750  0.58571150  0.93015500  1
  O  O77  1  0.98627500  0.83335800  0.23919300  1
  O  O78  1  0.51372500  0.33335800  0.76080700  1
  O  O79  1  0.84229300  0.83298600  0.07664500  1
  O  O80  1  0.90830900  0.07919900  0.93012800  1
  O  O81  1  0.58479050  0.60937650  0.60804900  1
  O  O82  1  0.50884350  0.83352350  0.77379000  1
  O  O83  1  0.58485550  0.05750650  0.60795600  1
