# generated using pymatgen
data_Zn(HO)2
_symmetry_space_group_name_H-M   'P 1'
_cell_length_a   3.34921600
_cell_length_b   8.13849460
_cell_length_c   12.58907105
_cell_angle_alpha   108.83808778
_cell_angle_beta   97.21723070
_cell_angle_gamma   90.10080718
_symmetry_Int_Tables_number   1
_chemical_formula_structural   Zn(HO)2
_chemical_formula_sum   'Zn6 H12 O12'
_cell_volume   321.86614880
_cell_formula_units_Z   6
loop_
 _symmetry_equiv_pos_site_id
 _symmetry_equiv_pos_as_xyz
  1  'x, y, z'
loop_
 _atom_site_type_symbol
 _atom_site_label
 _atom_site_symmetry_multiplicity
 _atom_site_fract_x
 _atom_site_fract_y
 _atom_site_fract_z
 _atom_site_occupancy
  Zn  Zn0  1  0.93246900  0.68142400  0.82433200  1
  Zn  Zn1  1  0.10425200  0.31477300  0.17762500  1
  Zn  Zn2  1  0.10690400  0.86976300  0.17348800  1
  Zn  Zn3  1  0.93195900  0.14480000  0.81874100  1
  Zn  Zn4  1  0.80012100  0.79385300  0.56224800  1
  Zn  Zn5  1  0.24076500  0.22940200  0.43594500  1
  H  H6  1  0.48628800  0.60841500  0.64725500  1
  H  H7  1  0.18760600  0.50035200  0.38371100  1
  H  H8  1  0.83833400  0.96117800  0.35115200  1
  H  H9  1  0.79894400  0.11839200  0.61391700  1
  H  H10  1  0.44917300  0.47858600  0.87195400  1
  H  H11  1  0.57705300  0.51295500  0.12780000  1
  H  H12  1  0.53708700  0.69302800  0.04024200  1
  H  H13  1  0.49823600  0.31002800  0.96784900  1
  H  H14  1  0.22320200  0.80805300  0.42001400  1
  H  H15  1  0.80077100  0.38464700  0.57844700  1
  H  H16  1  0.59767600  0.95037700  0.89240600  1
  H  H17  1  0.99020800  0.02260100  0.03447600  1
  O  O18  1  0.77673000  0.62673000  0.65413100  1
  O  O19  1  0.13556500  0.37515300  0.34193700  1
  O  O20  1  0.12239800  0.97109300  0.34415700  1
  O  O21  1  0.79518700  0.03591400  0.65738600  1
  O  O22  1  0.45087100  0.60474100  0.87697600  1
  O  O23  1  0.56952200  0.38531300  0.11324500  1
  O  O24  1  0.57585400  0.72875400  0.12408700  1
  O  O25  1  0.45577000  0.27528400  0.88255400  1
  O  O26  1  0.25015800  0.73417000  0.46973600  1
  O  O27  1  0.77815800  0.26073500  0.53054000  1
  O  O28  1  0.87724700  0.93978400  0.87921700  1
  O  O29  1  0.02345300  0.06267900  0.11773800  1
