# generated using pymatgen
data_Na6CaZr(SiO3)6
_symmetry_space_group_name_H-M   'P 1'
_cell_length_a   10.46284418
_cell_length_b   10.46284418
_cell_length_c   26.60724133
_cell_angle_alpha   90.00000000
_cell_angle_beta   90.00000000
_cell_angle_gamma   120.00000000
_symmetry_Int_Tables_number   1
_chemical_formula_structural   Na6CaZr(SiO3)6
_chemical_formula_sum   'Na36 Ca6 Zr6 Si36 O108'
_cell_volume   2522.49315194
_cell_formula_units_Z   6
loop_
 _symmetry_equiv_pos_site_id
 _symmetry_equiv_pos_as_xyz
  1  'x, y, z'
loop_
 _atom_site_type_symbol
 _atom_site_label
 _atom_site_symmetry_multiplicity
 _atom_site_fract_x
 _atom_site_fract_y
 _atom_site_fract_z
 _atom_site_occupancy
  Na  Na0  1  0.80682133  0.20377667  0.17559167  1
  Na  Na1  1  0.79622333  0.60304467  0.17559167  1
  Na  Na2  1  0.39695533  0.19317867  0.17559167  1
  Na  Na3  1  0.46289000  0.52651200  0.00892500  1
  Na  Na4  1  0.47348800  0.93637800  0.00892500  1
  Na  Na5  1  0.50944400  0.48357400  0.25062400  1
  Na  Na6  1  0.51642600  0.02587000  0.25062400  1
  Na  Na7  1  0.97413000  0.49055600  0.25062400  1
  Na  Na8  1  0.64079667  0.81690733  0.08395733  1
  Na  Na9  1  0.17611067  0.35920333  0.08395733  1
  Na  Na10  1  0.18309267  0.82388933  0.08395733  1
  Na  Na11  1  0.06362200  0.53711000  0.00892500  1
  Na  Na12  1  0.47348800  0.53711000  0.50892500  1
  Na  Na13  1  0.46289000  0.93637800  0.50892500  1
  Na  Na14  1  0.06362200  0.52651200  0.50892500  1
  Na  Na15  1  0.12955667  0.85984533  0.34225833  1
  Na  Na16  1  0.14015467  0.26971133  0.34225833  1
  Na  Na17  1  0.17611067  0.81690733  0.58395733  1
  Na  Na18  1  0.18309267  0.35920333  0.58395733  1
  Na  Na19  1  0.64079667  0.82388933  0.58395733  1
  Na  Na20  1  0.30746333  0.15024067  0.41729067  1
  Na  Na21  1  0.84277733  0.69253667  0.41729067  1
  Na  Na22  1  0.84975933  0.15722267  0.41729067  1
  Na  Na23  1  0.73028867  0.87044333  0.34225833  1
  Na  Na24  1  0.14015467  0.87044333  0.84225833  1
  Na  Na25  1  0.12955667  0.26971133  0.84225833  1
  Na  Na26  1  0.73028867  0.85984533  0.84225833  1
  Na  Na27  1  0.79622333  0.19317867  0.67559167  1
  Na  Na28  1  0.80682133  0.60304467  0.67559167  1
  Na  Na29  1  0.84277733  0.15024067  0.91729067  1
  Na  Na30  1  0.84975933  0.69253667  0.91729067  1
  Na  Na31  1  0.30746333  0.15722267  0.91729067  1
  Na  Na32  1  0.97413000  0.48357400  0.75062400  1
  Na  Na33  1  0.50944400  0.02587000  0.75062400  1
  Na  Na34  1  0.51642600  0.49055600  0.75062400  1
  Na  Na35  1  0.39695533  0.20377667  0.67559167  1
  Ca  Ca36  1  0.33333333  0.66666667  0.28969167  1
  Ca  Ca37  1  0.00000000  0.00000000  0.12302500  1
  Ca  Ca38  1  0.00000000  0.00000000  0.62302500  1
  Ca  Ca39  1  0.66666667  0.33333333  0.45635833  1
  Ca  Ca40  1  0.66666667  0.33333333  0.95635833  1
  Ca  Ca41  1  0.33333333  0.66666667  0.78969167  1
  Zr  Zr42  1  0.66666667  0.33333333  0.32894033  1
  Zr  Zr43  1  0.33333333  0.66666667  0.16227367  1
  Zr  Zr44  1  0.33333333  0.66666667  0.66227367  1
  Zr  Zr45  1  0.00000000  0.00000000  0.49560700  1
  Zr  Zr46  1  0.00000000  0.00000000  0.99560700  1
  Zr  Zr47  1  0.66666667  0.33333333  0.82894033  1
  Si  Si48  1  0.81907500  0.63717900  0.04843300  1
  Si  Si49  1  0.81810400  0.18092500  0.04843300  1
  Si  Si50  1  0.36282100  0.18189600  0.04843300  1
  Si  Si51  1  0.69615433  0.84759167  0.21509967  1
  Si  Si52  1  0.15240833  0.84856267  0.21509967  1
  Si  Si53  1  0.15143733  0.30384567  0.21509967  1
  Si  Si54  1  0.51890200  0.03360300  0.11650600  1
  Si  Si55  1  0.51470100  0.48109800  0.11650600  1
  Si  Si56  1  0.96639700  0.48529900  0.11650600  1
  Si  Si57  1  0.29973033  0.14776467  0.28317267  1
  Si  Si58  1  0.85223533  0.15196567  0.28317267  1
  Si  Si59  1  0.84803433  0.70026967  0.28317267  1
  Si  Si60  1  0.48574167  0.97051233  0.38176633  1
  Si  Si61  1  0.48477067  0.51425833  0.38176633  1
  Si  Si62  1  0.02948767  0.51522933  0.38176633  1
  Si  Si63  1  0.36282100  0.18092500  0.54843300  1
  Si  Si64  1  0.81907500  0.18189600  0.54843300  1
  Si  Si65  1  0.81810400  0.63717900  0.54843300  1
  Si  Si66  1  0.18556867  0.36693633  0.44983933  1
  Si  Si67  1  0.18136767  0.81443133  0.44983933  1
  Si  Si68  1  0.63306367  0.81863233  0.44983933  1
  Si  Si69  1  0.96639700  0.48109800  0.61650600  1
  Si  Si70  1  0.51890200  0.48529900  0.61650600  1
  Si  Si71  1  0.51470100  0.03360300  0.61650600  1
  Si  Si72  1  0.15240833  0.30384567  0.71509967  1
  Si  Si73  1  0.15143733  0.84759167  0.71509967  1
  Si  Si74  1  0.69615433  0.84856267  0.71509967  1
  Si  Si75  1  0.02948767  0.51425833  0.88176633  1
  Si  Si76  1  0.48574167  0.51522933  0.88176633  1
  Si  Si77  1  0.48477067  0.97051233  0.88176633  1
  Si  Si78  1  0.85223533  0.70026967  0.78317267  1
  Si  Si79  1  0.84803433  0.14776467  0.78317267  1
  Si  Si80  1  0.29973033  0.15196567  0.78317267  1
  Si  Si81  1  0.63306367  0.81443133  0.94983933  1
  Si  Si82  1  0.18556867  0.81863233  0.94983933  1
  Si  Si83  1  0.18136767  0.36693633  0.94983933  1
  O  O84  1  0.91671267  0.33372633  0.08221433  1
  O  O85  1  0.90402700  0.81836600  0.04881500  1
  O  O86  1  0.91433900  0.09597300  0.04881500  1
  O  O87  1  0.66627367  0.58298633  0.08221433  1
  O  O88  1  0.41701367  0.08328733  0.08221433  1
  O  O89  1  0.45012900  0.89220200  0.32765100  1
  O  O90  1  0.44207300  0.54987100  0.32765100  1
  O  O91  1  0.73868867  0.73810533  0.24809833  1
  O  O92  1  0.10779800  0.55792700  0.32765100  1
  O  O93  1  0.18163400  0.08566100  0.04881500  1
  O  O94  1  0.77446467  0.88320433  0.16098433  1
  O  O95  1  0.51496733  0.76263967  0.21548167  1
  O  O96  1  0.26189467  0.00058333  0.24809833  1
  O  O97  1  0.55941700  0.10886000  0.17016500  1
  O  O98  1  0.54944300  0.44058300  0.17016500  1
  O  O99  1  0.23736033  0.75232767  0.21548167  1
  O  O100  1  0.24767233  0.48503267  0.21548167  1
  O  O101  1  0.99941667  0.26131133  0.24809833  1
  O  O102  1  0.66608333  0.07143867  0.08143167  1
  O  O103  1  0.42303833  0.85292767  0.11679067  1
  O  O104  1  0.42988933  0.57696167  0.11679067  1
  O  O105  1  0.11679567  0.89126033  0.16098433  1
  O  O106  1  0.10873967  0.22553533  0.16098433  1
  O  O107  1  0.40535533  0.33391667  0.08143167  1
  O  O108  1  0.14707233  0.57011067  0.11679067  1
  O  O109  1  0.89114000  0.45055700  0.17016500  1
  O  O110  1  0.48040567  0.24362833  0.28345733  1
  O  O111  1  0.55780667  0.77391633  0.00349833  1
  O  O112  1  0.92856133  0.59464467  0.08143167  1
  O  O113  1  0.22608367  0.78389033  0.00349833  1
  O  O114  1  0.21610967  0.44219333  0.00349833  1
  O  O115  1  0.25004600  0.24965300  0.24888100  1
  O  O116  1  0.99960700  0.74995400  0.24888100  1
  O  O117  1  0.75637167  0.23677733  0.28345733  1
  O  O118  1  0.76322267  0.51959433  0.28345733  1
  O  O119  1  0.75034700  0.00039300  0.24888100  1
  O  O120  1  0.58337933  0.66705967  0.41554767  1
  O  O121  1  0.57069367  0.15169933  0.38214833  1
  O  O122  1  0.58100567  0.42930633  0.38214833  1
  O  O123  1  0.33294033  0.91631967  0.41554767  1
  O  O124  1  0.08368033  0.41662067  0.41554767  1
  O  O125  1  0.11679567  0.22553533  0.66098433  1
  O  O126  1  0.10873967  0.88320433  0.66098433  1
  O  O127  1  0.40535533  0.07143867  0.58143167  1
  O  O128  1  0.77446467  0.89126033  0.66098433  1
  O  O129  1  0.84830067  0.41899433  0.38214833  1
  O  O130  1  0.44113133  0.21653767  0.49431767  1
  O  O131  1  0.18163400  0.09597300  0.54881500  1
  O  O132  1  0.92856133  0.33391667  0.58143167  1
  O  O133  1  0.22608367  0.44219333  0.50349833  1
  O  O134  1  0.21610967  0.77391633  0.50349833  1
  O  O135  1  0.90402700  0.08566100  0.54881500  1
  O  O136  1  0.91433900  0.81836600  0.54881500  1
  O  O137  1  0.66608333  0.59464467  0.58143167  1
  O  O138  1  0.33275000  0.40477200  0.41476500  1
  O  O139  1  0.08970500  0.18626100  0.45012400  1
  O  O140  1  0.09655600  0.91029500  0.45012400  1
  O  O141  1  0.78346233  0.22459367  0.49431767  1
  O  O142  1  0.77540633  0.55886867  0.49431767  1
  O  O143  1  0.07202200  0.66725000  0.41476500  1
  O  O144  1  0.81373900  0.90344400  0.45012400  1
  O  O145  1  0.55780667  0.78389033  0.50349833  1
  O  O146  1  0.14707233  0.57696167  0.61679067  1
  O  O147  1  0.22447333  0.10724967  0.33683167  1
  O  O148  1  0.59522800  0.92797800  0.41476500  1
  O  O149  1  0.89275033  0.11722367  0.33683167  1
  O  O150  1  0.88277633  0.77552667  0.33683167  1
  O  O151  1  0.91671267  0.58298633  0.58221433  1
  O  O152  1  0.66627367  0.08328733  0.58221433  1
  O  O153  1  0.42303833  0.57011067  0.61679067  1
  O  O154  1  0.42988933  0.85292767  0.61679067  1
  O  O155  1  0.41701367  0.33372633  0.58221433  1
  O  O156  1  0.25004600  0.00039300  0.74888100  1
  O  O157  1  0.23736033  0.48503267  0.71548167  1
  O  O158  1  0.24767233  0.76263967  0.71548167  1
  O  O159  1  0.99960700  0.24965300  0.74888100  1
  O  O160  1  0.75034700  0.74995400  0.74888100  1
  O  O161  1  0.78346233  0.55886867  0.99431767  1
  O  O162  1  0.77540633  0.21653767  0.99431767  1
  O  O163  1  0.07202200  0.40477200  0.91476500  1
  O  O164  1  0.44113133  0.22459367  0.99431767  1
  O  O165  1  0.51496733  0.75232767  0.71548167  1
  O  O166  1  0.10779800  0.54987100  0.82765100  1
  O  O167  1  0.84830067  0.42930633  0.88214833  1
  O  O168  1  0.59522800  0.66725000  0.91476500  1
  O  O169  1  0.89275033  0.77552667  0.83683167  1
  O  O170  1  0.88277633  0.10724967  0.83683167  1
  O  O171  1  0.57069367  0.41899433  0.88214833  1
  O  O172  1  0.58100567  0.15169933  0.88214833  1
  O  O173  1  0.33275000  0.92797800  0.91476500  1
  O  O174  1  0.99941667  0.73810533  0.74809833  1
  O  O175  1  0.75637167  0.51959433  0.78345733  1
  O  O176  1  0.76322267  0.24362833  0.78345733  1
  O  O177  1  0.45012900  0.55792700  0.82765100  1
  O  O178  1  0.44207300  0.89220200  0.82765100  1
  O  O179  1  0.73868867  0.00058333  0.74809833  1
  O  O180  1  0.48040567  0.23677733  0.78345733  1
  O  O181  1  0.22447333  0.11722367  0.83683167  1
  O  O182  1  0.81373900  0.91029500  0.95012400  1
  O  O183  1  0.89114000  0.44058300  0.67016500  1
  O  O184  1  0.26189467  0.26131133  0.74809833  1
  O  O185  1  0.55941700  0.45055700  0.67016500  1
  O  O186  1  0.54944300  0.10886000  0.67016500  1
  O  O187  1  0.58337933  0.91631967  0.91554767  1
  O  O188  1  0.33294033  0.41662067  0.91554767  1
  O  O189  1  0.08970500  0.90344400  0.95012400  1
  O  O190  1  0.09655600  0.18626100  0.95012400  1
  O  O191  1  0.08368033  0.66705967  0.91554767  1
