# generated using pymatgen
data_Gd(C2N3)3
_symmetry_space_group_name_H-M   'P 1'
_cell_length_a   7.82400200
_cell_length_b   11.58746800
_cell_length_c   10.29520200
_cell_angle_alpha   90.00000000
_cell_angle_beta   90.00000000
_cell_angle_gamma   90.00000000
_symmetry_Int_Tables_number   1
_chemical_formula_structural   Gd(C2N3)3
_chemical_formula_sum   'Gd4 C24 N36'
_cell_volume   933.36685144
_cell_formula_units_Z   4
loop_
 _symmetry_equiv_pos_site_id
 _symmetry_equiv_pos_as_xyz
  1  'x, y, z'
loop_
 _atom_site_type_symbol
 _atom_site_label
 _atom_site_symmetry_multiplicity
 _atom_site_fract_x
 _atom_site_fract_y
 _atom_site_fract_z
 _atom_site_occupancy
  Gd  Gd0  1  0.50000000  0.21462400  0.75000000  1
  Gd  Gd1  1  0.50000000  0.78537600  0.25000000  1
  Gd  Gd2  1  0.00000000  0.71462400  0.75000000  1
  Gd  Gd3  1  0.00000000  0.28537600  0.25000000  1
  C  C4  1  0.64383450  0.64739750  0.55209100  1
  C  C5  1  0.35775000  0.91594200  0.75000000  1
  C  C6  1  0.64225000  0.08405800  0.25000000  1
  C  C7  1  0.35616550  0.64739750  0.94790900  1
  C  C8  1  0.64383450  0.35260250  0.44790900  1
  C  C9  1  0.64383450  0.35260250  0.05209100  1
  C  C10  1  0.35616550  0.35260250  0.05209100  1
  C  C11  1  0.35616550  0.35260250  0.44790900  1
  C  C12  1  0.35616550  0.64739750  0.55209100  1
  C  C13  1  0.64225000  0.91594200  0.75000000  1
  C  C14  1  0.35775000  0.08405800  0.25000000  1
  C  C15  1  0.64383450  0.64739750  0.94790900  1
  C  C16  1  0.14383450  0.14739750  0.55209100  1
  C  C17  1  0.85775000  0.41594200  0.75000000  1
  C  C18  1  0.14225000  0.58405800  0.25000000  1
  C  C19  1  0.85616550  0.14739750  0.94790900  1
  C  C20  1  0.14383450  0.85260250  0.44790900  1
  C  C21  1  0.14383450  0.85260250  0.05209100  1
  C  C22  1  0.85616550  0.85260250  0.05209100  1
  C  C23  1  0.85616550  0.85260250  0.44790900  1
  C  C24  1  0.85616550  0.14739750  0.55209100  1
  C  C25  1  0.14225000  0.41594200  0.75000000  1
  C  C26  1  0.85775000  0.58405800  0.25000000  1
  C  C27  1  0.14383450  0.14739750  0.94790900  1
  N  N28  1  0.27909450  0.86179750  0.39907300  1
  N  N29  1  0.22588900  0.86685400  0.75000000  1
  N  N30  1  0.50000000  0.65919700  0.48992500  1
  N  N31  1  0.72090550  0.13820250  0.89907300  1
  N  N32  1  0.22588900  0.13314600  0.25000000  1
  N  N33  1  0.72090550  0.86179750  0.39907300  1
  N  N34  1  0.27909450  0.13820250  0.89907300  1
  N  N35  1  0.77411100  0.86685400  0.75000000  1
  N  N36  1  0.50000000  0.65919700  0.01007500  1
  N  N37  1  0.27909450  0.13820250  0.60092700  1
  N  N38  1  0.50000000  0.34080300  0.98992500  1
  N  N39  1  0.27909450  0.86179750  0.10092700  1
  N  N40  1  0.72090550  0.13820250  0.60092700  1
  N  N41  1  0.72090550  0.86179750  0.10092700  1
  N  N42  1  0.50000000  0.34080300  0.51007500  1
  N  N43  1  0.77411100  0.13314600  0.25000000  1
  N  N44  1  0.50000000  0.97475900  0.75000000  1
  N  N45  1  0.50000000  0.02524100  0.25000000  1
  N  N46  1  0.77909450  0.36179750  0.39907300  1
  N  N47  1  0.72588900  0.36685400  0.75000000  1
  N  N48  1  0.00000000  0.15919700  0.48992500  1
  N  N49  1  0.22090550  0.63820250  0.89907300  1
  N  N50  1  0.72588900  0.63314600  0.25000000  1
  N  N51  1  0.22090550  0.36179750  0.39907300  1
  N  N52  1  0.77909450  0.63820250  0.89907300  1
  N  N53  1  0.27411100  0.36685400  0.75000000  1
  N  N54  1  0.00000000  0.15919700  0.01007500  1
  N  N55  1  0.77909450  0.63820250  0.60092700  1
  N  N56  1  0.00000000  0.84080300  0.98992500  1
  N  N57  1  0.77909450  0.36179750  0.10092700  1
  N  N58  1  0.22090550  0.63820250  0.60092700  1
  N  N59  1  0.22090550  0.36179750  0.10092700  1
  N  N60  1  0.00000000  0.84080300  0.51007500  1
  N  N61  1  0.27411100  0.63314600  0.25000000  1
  N  N62  1  0.00000000  0.47475900  0.75000000  1
  N  N63  1  0.00000000  0.52524100  0.25000000  1
