# generated using pymatgen
data_K3Sc(MoO4)3
_symmetry_space_group_name_H-M   'P 1'
_cell_length_a   9.52771100
_cell_length_b   11.10174500
_cell_length_c   13.92999500
_cell_angle_alpha   90.00000000
_cell_angle_beta   90.00000000
_cell_angle_gamma   90.00000000
_symmetry_Int_Tables_number   1
_chemical_formula_structural   K3Sc(MoO4)3
_chemical_formula_sum   'K12 Sc4 Mo12 O48'
_cell_volume   1473.43432725
_cell_formula_units_Z   4
loop_
 _symmetry_equiv_pos_site_id
 _symmetry_equiv_pos_as_xyz
  1  'x, y, z'
loop_
 _atom_site_type_symbol
 _atom_site_label
 _atom_site_symmetry_multiplicity
 _atom_site_fract_x
 _atom_site_fract_y
 _atom_site_fract_z
 _atom_site_occupancy
  K  K0  1  0.81549200  0.23052900  0.74600900  1
  K  K1  1  0.54318200  0.76069500  0.52475000  1
  K  K2  1  0.18450800  0.76947100  0.24600900  1
  K  K3  1  0.53254700  0.98270600  0.25179600  1
  K  K4  1  0.53254700  0.51729400  0.75179600  1
  K  K5  1  0.46745300  0.01729400  0.75179600  1
  K  K6  1  0.45681800  0.23930500  0.02475000  1
  K  K7  1  0.81549200  0.26947100  0.24600900  1
  K  K8  1  0.54318200  0.73930500  0.02475000  1
  K  K9  1  0.46745300  0.48270600  0.25179600  1
  K  K10  1  0.18450800  0.73052900  0.74600900  1
  K  K11  1  0.45681800  0.26069500  0.52475000  1
  Sc  Sc12  1  0.06729600  0.24811900  0.49338200  1
  Sc  Sc13  1  0.06729600  0.25188100  0.99338200  1
  Sc  Sc14  1  0.93270400  0.74811900  0.49338200  1
  Sc  Sc15  1  0.93270400  0.75188100  0.99338200  1
  Mo  Mo16  1  0.74891100  0.04958500  0.99855500  1
  Mo  Mo17  1  0.25012300  0.95232300  0.99246000  1
  Mo  Mo18  1  0.81924200  0.83603800  0.74564300  1
  Mo  Mo19  1  0.74987700  0.45232300  0.99246000  1
  Mo  Mo20  1  0.25012300  0.54767700  0.49246000  1
  Mo  Mo21  1  0.25108900  0.95041500  0.49855500  1
  Mo  Mo22  1  0.18075800  0.16396200  0.24564300  1
  Mo  Mo23  1  0.18075800  0.33603800  0.74564300  1
  Mo  Mo24  1  0.74987700  0.04767700  0.49246000  1
  Mo  Mo25  1  0.25108900  0.54958500  0.99855500  1
  Mo  Mo26  1  0.81924200  0.66396200  0.24564300  1
  Mo  Mo27  1  0.74891100  0.45041500  0.49855500  1
  O  O28  1  0.61397600  0.43034200  0.07871200  1
  O  O29  1  0.91570500  0.78629200  0.64011100  1
  O  O30  1  0.31230800  0.61400200  0.10840300  1
  O  O31  1  0.07055100  0.20460100  0.34792100  1
  O  O32  1  0.09283900  0.87449300  0.03029800  1
  O  O33  1  0.90716100  0.12550700  0.53029800  1
  O  O34  1  0.38602400  0.56965800  0.57871200  1
  O  O35  1  0.20167400  0.49346600  0.74320400  1
  O  O36  1  0.77345800  0.88710900  0.01255700  1
  O  O37  1  0.90807700  0.37507600  0.46215700  1
  O  O38  1  0.90716100  0.37449300  0.03029800  1
  O  O39  1  0.08429500  0.28629200  0.64011100  1
  O  O40  1  0.69093600  0.11207200  0.38301400  1
  O  O41  1  0.64904700  0.76961200  0.74944300  1
  O  O42  1  0.38588300  0.92143700  0.41316900  1
  O  O43  1  0.30906400  0.88792800  0.88301400  1
  O  O44  1  0.22193200  0.11413800  0.97561700  1
  O  O45  1  0.30906400  0.61207200  0.38301400  1
  O  O46  1  0.64904700  0.73038800  0.24944300  1
  O  O47  1  0.91570500  0.71370800  0.14011100  1
  O  O48  1  0.77806800  0.88586200  0.47561700  1
  O  O49  1  0.79832600  0.50653400  0.24320400  1
  O  O50  1  0.92944900  0.70460100  0.34792100  1
  O  O51  1  0.61411700  0.42143700  0.41316900  1
  O  O52  1  0.38588300  0.57856300  0.91316900  1
  O  O53  1  0.07055100  0.29539900  0.84792100  1
  O  O54  1  0.22654200  0.38710900  0.01255700  1
  O  O55  1  0.68769200  0.38599800  0.60840300  1
  O  O56  1  0.08429500  0.21370800  0.14011100  1
  O  O57  1  0.09192300  0.62492400  0.96215700  1
  O  O58  1  0.61411700  0.07856300  0.91316900  1
  O  O59  1  0.38602400  0.93034200  0.07871200  1
  O  O60  1  0.77345800  0.61289100  0.51255700  1
  O  O61  1  0.35095300  0.23038800  0.24944300  1
  O  O62  1  0.92944900  0.79539900  0.84792100  1
  O  O63  1  0.68769200  0.11400200  0.10840300  1
  O  O64  1  0.69093600  0.38792800  0.88301400  1
  O  O65  1  0.79832600  0.99346600  0.74320400  1
  O  O66  1  0.22193200  0.38586200  0.47561700  1
  O  O67  1  0.09283900  0.62550700  0.53029800  1
  O  O68  1  0.20167400  0.00653400  0.24320400  1
  O  O69  1  0.35095300  0.26961200  0.74944300  1
  O  O70  1  0.61397600  0.06965800  0.57871200  1
  O  O71  1  0.90807700  0.12492400  0.96215700  1
  O  O72  1  0.77806800  0.61413800  0.97561700  1
  O  O73  1  0.09192300  0.87507600  0.46215700  1
  O  O74  1  0.31230800  0.88599800  0.60840300  1
  O  O75  1  0.22654200  0.11289100  0.51255700  1
