# generated using pymatgen
data_LiSn4(PO4)3
_symmetry_space_group_name_H-M   'P 1'
_cell_length_a   9.69486378
_cell_length_b   9.69486378
_cell_length_c   7.10562700
_cell_angle_alpha   90.00000000
_cell_angle_beta   90.00000000
_cell_angle_gamma   120.00000000
_symmetry_Int_Tables_number   1
_chemical_formula_structural   LiSn4(PO4)3
_chemical_formula_sum   'Li2 Sn8 P6 O24'
_cell_volume   578.38425282
_cell_formula_units_Z   2
loop_
 _symmetry_equiv_pos_site_id
 _symmetry_equiv_pos_as_xyz
  1  'x, y, z'
loop_
 _atom_site_type_symbol
 _atom_site_label
 _atom_site_symmetry_multiplicity
 _atom_site_fract_x
 _atom_site_fract_y
 _atom_site_fract_z
 _atom_site_occupancy
  Li  Li0  1  0.33333333  0.66666667  0.03692700  1
  Li  Li1  1  0.66666667  0.33333333  0.53692700  1
  Sn  Sn2  1  0.24167000  0.98251300  0.74680300  1
  Sn  Sn3  1  0.75833000  0.01748700  0.24680300  1
  Sn  Sn4  1  0.66666667  0.33333333  0.97087900  1
  Sn  Sn5  1  0.25915700  0.24167000  0.24680300  1
  Sn  Sn6  1  0.33333333  0.66666667  0.47087900  1
  Sn  Sn7  1  0.98251300  0.74084300  0.24680300  1
  Sn  Sn8  1  0.74084300  0.75833000  0.74680300  1
  Sn  Sn9  1  0.01748700  0.25915700  0.74680300  1
  P  P10  1  0.40244200  0.01700600  0.25098500  1
  P  P11  1  0.38543600  0.40244200  0.75098500  1
  P  P12  1  0.59755800  0.98299400  0.75098500  1
  P  P13  1  0.98299400  0.38543600  0.25098500  1
  P  P14  1  0.61456400  0.59755800  0.25098500  1
  P  P15  1  0.01700600  0.61456400  0.75098500  1
  O  O16  1  0.67386900  0.16611400  0.73644200  1
  O  O17  1  0.07183100  0.72778100  0.92471800  1
  O  O18  1  0.35743400  0.08585400  0.07681900  1
  O  O19  1  0.92816900  0.27221900  0.42471800  1
  O  O20  1  0.64256600  0.91414600  0.57681900  1
  O  O21  1  0.41142100  0.90155400  0.76161900  1
  O  O22  1  0.27221900  0.34405000  0.92471800  1
  O  O23  1  0.72842000  0.64256600  0.07681900  1
  O  O24  1  0.27158000  0.35743400  0.57681900  1
  O  O25  1  0.49224500  0.32613100  0.73644200  1
  O  O26  1  0.83388600  0.50775500  0.73644200  1
  O  O27  1  0.09844600  0.50986700  0.76161900  1
  O  O28  1  0.49013300  0.58857900  0.76161900  1
  O  O29  1  0.72778100  0.65595000  0.42471800  1
  O  O30  1  0.65595000  0.92816900  0.92471800  1
  O  O31  1  0.50775500  0.67386900  0.23644200  1
  O  O32  1  0.08585400  0.72842000  0.57681900  1
  O  O33  1  0.58857900  0.09844600  0.26161900  1
  O  O34  1  0.16611400  0.49224500  0.23644200  1
  O  O35  1  0.50986700  0.41142100  0.26161900  1
  O  O36  1  0.32613100  0.83388600  0.23644200  1
  O  O37  1  0.91414600  0.27158000  0.07681900  1
  O  O38  1  0.90155400  0.49013300  0.26161900  1
  O  O39  1  0.34405000  0.07183100  0.42471800  1
