# generated using pymatgen
data_Ca4LaB3O10
_symmetry_space_group_name_H-M   'P 1'
_cell_length_a   8.21075600
_cell_length_b   16.22993200
_cell_length_c   3.65555471
_cell_angle_alpha   90.00000000
_cell_angle_beta   101.40704774
_cell_angle_gamma   90.00000000
_symmetry_Int_Tables_number   1
_chemical_formula_structural   Ca4LaB3O10
_chemical_formula_sum   'Ca8 La2 B6 O20'
_cell_volume   477.51672934
_cell_formula_units_Z   2
loop_
 _symmetry_equiv_pos_site_id
 _symmetry_equiv_pos_as_xyz
  1  'x, y, z'
loop_
 _atom_site_type_symbol
 _atom_site_label
 _atom_site_symmetry_multiplicity
 _atom_site_fract_x
 _atom_site_fract_y
 _atom_site_fract_z
 _atom_site_occupancy
  Ca  Ca0  1  0.72205100  0.81892200  0.32926500  1
  Ca  Ca1  1  0.22205100  0.68107800  0.32926500  1
  Ca  Ca2  1  0.84977250  0.61421350  0.66617900  1
  Ca  Ca3  1  0.34977250  0.88578650  0.66617900  1
  Ca  Ca4  1  0.22205100  0.31892200  0.32926500  1
  Ca  Ca5  1  0.72205100  0.18107800  0.32926500  1
  Ca  Ca6  1  0.34977250  0.11421350  0.66617900  1
  Ca  Ca7  1  0.84977250  0.38578650  0.66617900  1
  La  La8  1  0.99559700  0.00000000  0.99896600  1
  La  La9  1  0.49559700  0.50000000  0.99896600  1
  B  B10  1  0.53861400  0.69615600  0.91111000  1
  B  B11  1  0.03861400  0.80384400  0.91111000  1
  B  B12  1  0.61008300  0.00000000  0.29021500  1
  B  B13  1  0.03861400  0.19615600  0.91111000  1
  B  B14  1  0.53861400  0.30384400  0.91111000  1
  B  B15  1  0.11008300  0.50000000  0.29021500  1
  O  O16  1  0.52869850  0.77118250  0.72699600  1
  O  O17  1  0.89672350  0.85175650  0.90383800  1
  O  O18  1  0.02869850  0.72881750  0.72699600  1
  O  O19  1  0.19188100  0.83057700  0.10849300  1
  O  O20  1  0.69188100  0.66942300  0.10849300  1
  O  O21  1  0.17368600  0.00000000  0.58211200  1
  O  O22  1  0.52534500  0.92551600  0.24290700  1
  O  O23  1  0.02534500  0.57448400  0.24290700  1
  O  O24  1  0.78316600  0.00000000  0.38553300  1
  O  O25  1  0.39672350  0.64824350  0.90383800  1
  O  O26  1  0.02869850  0.27118250  0.72699600  1
  O  O27  1  0.39672350  0.35175650  0.90383800  1
  O  O28  1  0.52869850  0.22881750  0.72699600  1
  O  O29  1  0.69188100  0.33057700  0.10849300  1
  O  O30  1  0.19188100  0.16942300  0.10849300  1
  O  O31  1  0.67368600  0.50000000  0.58211200  1
  O  O32  1  0.02534500  0.42551600  0.24290700  1
  O  O33  1  0.52534500  0.07448400  0.24290700  1
  O  O34  1  0.28316600  0.50000000  0.38553300  1
  O  O35  1  0.89672350  0.14824350  0.90383800  1
