# generated using pymatgen
data_Sn3(HO2)2
_symmetry_space_group_name_H-M   'P 1'
_cell_length_a   8.00802900
_cell_length_b   8.00802900
_cell_length_c   9.14954300
_cell_angle_alpha   90.00000000
_cell_angle_beta   90.00000000
_cell_angle_gamma   90.00000000
_symmetry_Int_Tables_number   1
_chemical_formula_structural   Sn3(HO2)2
_chemical_formula_sum   'Sn12 H8 O16'
_cell_volume   586.74672872
_cell_formula_units_Z   4
loop_
 _symmetry_equiv_pos_site_id
 _symmetry_equiv_pos_as_xyz
  1  'x, y, z'
loop_
 _atom_site_type_symbol
 _atom_site_label
 _atom_site_symmetry_multiplicity
 _atom_site_fract_x
 _atom_site_fract_y
 _atom_site_fract_z
 _atom_site_occupancy
  Sn  Sn0  1  0.79646100  0.61783500  0.50140900  1
  Sn  Sn1  1  0.29646100  0.88216500  0.99859100  1
  Sn  Sn2  1  0.20353900  0.38216500  0.50140900  1
  Sn  Sn3  1  0.70353900  0.11783500  0.99859100  1
  Sn  Sn4  1  0.61783500  0.20353900  0.49859100  1
  Sn  Sn5  1  0.88216500  0.70353900  0.00140900  1
  Sn  Sn6  1  0.38216500  0.79646100  0.49859100  1
  Sn  Sn7  1  0.11783500  0.29646100  0.00140900  1
  Sn  Sn8  1  0.50000000  0.50000000  0.77852500  1
  Sn  Sn9  1  0.00000000  0.00000000  0.72147500  1
  Sn  Sn10  1  0.50000000  0.50000000  0.22147500  1
  Sn  Sn11  1  0.00000000  0.00000000  0.27852500  1
  H  H12  1  0.65946200  0.82299100  0.74137300  1
  H  H13  1  0.15946200  0.67700900  0.75862700  1
  H  H14  1  0.34053800  0.17700900  0.74137300  1
  H  H15  1  0.84053800  0.32299100  0.75862700  1
  H  H16  1  0.82299100  0.34053800  0.25862700  1
  H  H17  1  0.67700900  0.84053800  0.24137300  1
  H  H18  1  0.17700900  0.65946200  0.25862700  1
  H  H19  1  0.32299100  0.15946200  0.24137300  1
  O  O20  1  0.60696200  0.74586800  0.66933800  1
  O  O21  1  0.10696200  0.75413200  0.83066200  1
  O  O22  1  0.39303800  0.25413200  0.66933800  1
  O  O23  1  0.89303800  0.24586800  0.83066200  1
  O  O24  1  0.74586800  0.39303800  0.33066200  1
  O  O25  1  0.75413200  0.89303800  0.16933800  1
  O  O26  1  0.25413200  0.60696200  0.33066200  1
  O  O27  1  0.24586800  0.10696200  0.16933800  1
  O  O28  1  0.68818700  0.41759300  0.62462000  1
  O  O29  1  0.18818700  0.08240700  0.87538000  1
  O  O30  1  0.31181300  0.58240700  0.62462000  1
  O  O31  1  0.81181300  0.91759300  0.87538000  1
  O  O32  1  0.41759300  0.31181300  0.37538000  1
  O  O33  1  0.08240700  0.81181300  0.12462000  1
  O  O34  1  0.58240700  0.68818700  0.37538000  1
  O  O35  1  0.91759300  0.18818700  0.12462000  1
