# generated using pymatgen
data_K6Al11Si13Ag5O48
_symmetry_space_group_name_H-M   'P 1'
_cell_length_a   12.39717000
_cell_length_b   12.60211000
_cell_length_c   12.69431067
_cell_angle_alpha   90.00000000
_cell_angle_beta   90.34164243
_cell_angle_gamma   90.00000000
_symmetry_Int_Tables_number   1
_chemical_formula_structural   K6Al11Si13Ag5O48
_chemical_formula_sum   'K6 Al11 Si13 Ag5 O48'
_cell_volume   1983.20324696
_cell_formula_units_Z   1
loop_
 _symmetry_equiv_pos_site_id
 _symmetry_equiv_pos_as_xyz
  1  'x, y, z'
loop_
 _atom_site_type_symbol
 _atom_site_label
 _atom_site_symmetry_multiplicity
 _atom_site_fract_x
 _atom_site_fract_y
 _atom_site_fract_z
 _atom_site_occupancy
  K  K0  1  0.00119500  0.39218700  0.53998700  1
  K  K1  1  0.00119500  0.60781300  0.53998700  1
  K  K2  1  0.23929500  0.22701800  0.76010900  1
  K  K3  1  0.76163300  0.22768800  0.76038400  1
  K  K4  1  0.76163300  0.77231200  0.76038400  1
  K  K5  1  0.23929500  0.77298200  0.76010900  1
  Al  Al6  1  0.99905200  0.18003700  0.36370300  1
  Al  Al7  1  0.99905200  0.81996300  0.36370300  1
  Al  Al8  1  0.19006500  0.00000000  0.36636600  1
  Al  Al9  1  0.99801100  0.17683700  0.62761400  1
  Al  Al10  1  0.80582700  0.00000000  0.62225100  1
  Al  Al11  1  0.99801100  0.82316300  0.62761400  1
  Al  Al12  1  0.19139300  0.00000000  0.62574700  1
  Al  Al13  1  0.99983900  0.37346400  0.81786000  1
  Al  Al14  1  0.99983900  0.62653600  0.81786000  1
  Al  Al15  1  0.63027300  0.00000000  0.82542400  1
  Al  Al16  1  0.37078000  0.00000000  0.82779000  1
  Si  Si17  1  0.81288100  0.37530600  0.00320700  1
  Si  Si18  1  0.37379100  0.18715300  0.00596800  1
  Si  Si19  1  0.81288100  0.62469400  0.00320700  1
  Si  Si20  1  0.62886500  0.81382600  0.00566500  1
  Si  Si21  1  0.18662500  0.37485600  0.00545300  1
  Si  Si22  1  0.37379100  0.81284700  0.00596800  1
  Si  Si23  1  0.99966600  0.62627400  0.18040900  1
  Si  Si24  1  0.99966600  0.37372600  0.18040900  1
  Si  Si25  1  0.37531400  0.00000000  0.17790000  1
  Si  Si26  1  0.63032100  0.00000000  0.17815400  1
  Si  Si27  1  0.81119200  0.00000000  0.36451600  1
  Si  Si28  1  0.62886500  0.18617400  0.00566500  1
  Si  Si29  1  0.18662500  0.62514400  0.00545300  1
  Ag  Ag30  1  0.19570600  0.81092400  0.19538200  1
  Ag  Ag31  1  0.19570600  0.18907600  0.19538200  1
  Ag  Ag32  1  0.81020300  0.80339200  0.19422000  1
  Ag  Ag33  1  0.81020300  0.19660800  0.19422000  1
  Ag  Ag34  1  0.00143700  0.00000000  0.77403100  1
  O  O35  1  0.70767400  0.29384100  0.01461800  1
  O  O36  1  0.50180500  0.22588900  0.01261500  1
  O  O37  1  0.77089200  0.50000000  0.01174600  1
  O  O38  1  0.29290000  0.29377500  0.01626400  1
  O  O39  1  0.70767400  0.70615900  0.01461800  1
  O  O40  1  0.29290000  0.70622500  0.01626400  1
  O  O41  1  0.65717700  0.11151200  0.11258900  1
  O  O42  1  0.88912700  0.34910400  0.10906800  1
  O  O43  1  0.11012700  0.34903300  0.11092900  1
  O  O44  1  0.65717700  0.88848800  0.11258900  1
  O  O45  1  0.35045900  0.11148300  0.11088700  1
  O  O46  1  0.88912700  0.65089600  0.10906800  1
  O  O47  1  0.11012700  0.65096700  0.11092900  1
  O  O48  1  0.35045900  0.88851700  0.11088700  1
  O  O49  1  0.99997200  0.50000000  0.21128800  1
  O  O50  1  0.50368300  0.00000000  0.20495700  1
  O  O51  1  0.99366600  0.30084300  0.28374700  1
  O  O52  1  0.30216000  0.00000000  0.27893600  1
  O  O53  1  0.99366600  0.69915700  0.28374700  1
  O  O54  1  0.70409800  0.00000000  0.28281400  1
  O  O55  1  0.87874500  0.10753100  0.32989700  1
  O  O56  1  0.11443500  0.11312200  0.32475100  1
  O  O57  1  0.87874500  0.89246900  0.32989700  1
  O  O58  1  0.11443500  0.88687800  0.32475100  1
  O  O59  1  0.99627100  0.21385400  0.49426400  1
  O  O60  1  0.22616100  0.00000000  0.49509600  1
  O  O61  1  0.99627100  0.78614600  0.49426400  1
  O  O62  1  0.77556300  0.00000000  0.48476000  1
  O  O63  1  0.88062300  0.11141900  0.65793200  1
  O  O64  1  0.11350700  0.11075300  0.66384600  1
  O  O65  1  0.88062300  0.88858100  0.65793200  1
  O  O66  1  0.11350700  0.88924700  0.66384600  1
  O  O67  1  0.28947700  0.00000000  0.72139500  1
  O  O68  1  0.99803900  0.29207500  0.70824200  1
  O  O69  1  0.99803900  0.70792500  0.70824200  1
  O  O70  1  0.70548300  0.00000000  0.71447500  1
  O  O71  1  0.99977700  0.50000000  0.76533600  1
  O  O72  1  0.49999400  0.00000000  0.79236400  1
  O  O73  1  0.65880600  0.11845500  0.90423100  1
  O  O74  1  0.88158200  0.35174100  0.89903800  1
  O  O75  1  0.11785600  0.35120900  0.90025100  1
  O  O76  1  0.65880600  0.88154500  0.90423100  1
  O  O77  1  0.34424600  0.12031300  0.90369500  1
  O  O78  1  0.88158200  0.64825900  0.89903800  1
  O  O79  1  0.11785600  0.64879100  0.90025100  1
  O  O80  1  0.34424600  0.87968700  0.90369500  1
  O  O81  1  0.22852200  0.50000000  0.01360200  1
  O  O82  1  0.50180500  0.77411100  0.01261500  1
