# generated using pymatgen
data_Cr3AuO8
_symmetry_space_group_name_H-M   'P 1'
_cell_length_a   8.85856031
_cell_length_b   5.52114074
_cell_length_c   8.35470878
_cell_angle_alpha   90.00000000
_cell_angle_beta   101.22340918
_cell_angle_gamma   90.00000000
_symmetry_Int_Tables_number   1
_chemical_formula_structural   Cr3AuO8
_chemical_formula_sum   'Cr6 Au2 O16'
_cell_volume   400.80881358
_cell_formula_units_Z   2
loop_
 _symmetry_equiv_pos_site_id
 _symmetry_equiv_pos_as_xyz
  1  'x, y, z'
loop_
 _atom_site_type_symbol
 _atom_site_label
 _atom_site_symmetry_multiplicity
 _atom_site_fract_x
 _atom_site_fract_y
 _atom_site_fract_z
 _atom_site_occupancy
  Cr  Cr0  1  0.82055300  0.50000000  0.80438400  1
  Cr  Cr1  1  0.17944700  0.50000000  0.19561600  1
  Cr  Cr2  1  0.50000000  0.50000000  0.00000000  1
  Cr  Cr3  1  0.32055300  0.00000000  0.80438400  1
  Cr  Cr4  1  0.67944700  0.00000000  0.19561600  1
  Cr  Cr5  1  0.00000000  0.00000000  0.00000000  1
  Au  Au6  1  0.50000000  0.50000000  0.50000000  1
  Au  Au7  1  0.00000000  0.00000000  0.50000000  1
  O  O8  1  0.93238650  0.74858550  0.83017300  1
  O  O9  1  0.06761350  0.25141450  0.16982700  1
  O  O10  1  0.70648100  0.50000000  0.93891400  1
  O  O11  1  0.06761350  0.74858550  0.16982700  1
  O  O12  1  0.29351900  0.50000000  0.06108600  1
  O  O13  1  0.28046200  0.50000000  0.38681800  1
  O  O14  1  0.93238650  0.25141450  0.83017300  1
  O  O15  1  0.71953800  0.50000000  0.61318200  1
  O  O16  1  0.43238650  0.24858550  0.83017300  1
  O  O17  1  0.56761350  0.75141450  0.16982700  1
  O  O18  1  0.20648100  0.00000000  0.93891400  1
  O  O19  1  0.56761350  0.24858550  0.16982700  1
  O  O20  1  0.79351900  0.00000000  0.06108600  1
  O  O21  1  0.78046200  0.00000000  0.38681800  1
  O  O22  1  0.43238650  0.75141450  0.83017300  1
  O  O23  1  0.21953800  0.00000000  0.61318200  1
