# generated using pymatgen
data_Cs3NaPb4
_symmetry_space_group_name_H-M   'P 1'
_cell_length_a   7.38883800
_cell_length_b   17.79048400
_cell_length_c   11.36189600
_cell_angle_alpha   90.00000000
_cell_angle_beta   90.00000000
_cell_angle_gamma   90.00000000
_symmetry_Int_Tables_number   1
_chemical_formula_structural   Cs3NaPb4
_chemical_formula_sum   'Cs12 Na4 Pb16'
_cell_volume   1493.53263902
_cell_formula_units_Z   4
loop_
 _symmetry_equiv_pos_site_id
 _symmetry_equiv_pos_as_xyz
  1  'x, y, z'
loop_
 _atom_site_type_symbol
 _atom_site_label
 _atom_site_symmetry_multiplicity
 _atom_site_fract_x
 _atom_site_fract_y
 _atom_site_fract_z
 _atom_site_occupancy
  Cs  Cs0  1  0.00000000  0.38797900  0.05418300  1
  Cs  Cs1  1  0.00000000  0.38797900  0.44581700  1
  Cs  Cs2  1  0.50000000  0.11202100  0.94581700  1
  Cs  Cs3  1  0.50000000  0.11202100  0.55418300  1
  Cs  Cs4  1  0.00000000  0.23271300  0.75000000  1
  Cs  Cs5  1  0.50000000  0.26728700  0.25000000  1
  Cs  Cs6  1  0.50000000  0.88797900  0.05418300  1
  Cs  Cs7  1  0.50000000  0.88797900  0.44581700  1
  Cs  Cs8  1  0.00000000  0.61202100  0.94581700  1
  Cs  Cs9  1  0.00000000  0.61202100  0.55418300  1
  Cs  Cs10  1  0.50000000  0.73271300  0.75000000  1
  Cs  Cs11  1  0.00000000  0.76728700  0.25000000  1
  Na  Na12  1  0.00000000  0.00000000  0.00000000  1
  Na  Na13  1  0.00000000  0.00000000  0.50000000  1
  Na  Na14  1  0.50000000  0.50000000  0.00000000  1
  Na  Na15  1  0.50000000  0.50000000  0.50000000  1
  Pb  Pb16  1  0.72508750  0.45218950  0.75000000  1
  Pb  Pb17  1  0.00000000  0.17228200  0.38553400  1
  Pb  Pb18  1  0.00000000  0.17228200  0.11446600  1
  Pb  Pb19  1  0.22508750  0.04781050  0.25000000  1
  Pb  Pb20  1  0.77491250  0.04781050  0.25000000  1
  Pb  Pb21  1  0.50000000  0.32771800  0.88553400  1
  Pb  Pb22  1  0.27491250  0.45218950  0.75000000  1
  Pb  Pb23  1  0.50000000  0.32771800  0.61446600  1
  Pb  Pb24  1  0.22508750  0.95218950  0.75000000  1
  Pb  Pb25  1  0.50000000  0.67228200  0.38553400  1
  Pb  Pb26  1  0.50000000  0.67228200  0.11446600  1
  Pb  Pb27  1  0.72508750  0.54781050  0.25000000  1
  Pb  Pb28  1  0.27491250  0.54781050  0.25000000  1
  Pb  Pb29  1  0.00000000  0.82771800  0.88553400  1
  Pb  Pb30  1  0.77491250  0.95218950  0.75000000  1
  Pb  Pb31  1  0.00000000  0.82771800  0.61446600  1
