# generated using pymatgen
data_Sb2P3(HO3)3
_symmetry_space_group_name_H-M   'P 1'
_cell_length_a   7.37513800
_cell_length_b   8.53117529
_cell_length_c   9.37769456
_cell_angle_alpha   66.62219786
_cell_angle_beta   79.70479125
_cell_angle_gamma   67.74589814
_symmetry_Int_Tables_number   1
_chemical_formula_structural   Sb2P3(HO3)3
_chemical_formula_sum   'Sb4 P6 H6 O18'
_cell_volume   500.97207195
_cell_formula_units_Z   2
loop_
 _symmetry_equiv_pos_site_id
 _symmetry_equiv_pos_as_xyz
  1  'x, y, z'
loop_
 _atom_site_type_symbol
 _atom_site_label
 _atom_site_symmetry_multiplicity
 _atom_site_fract_x
 _atom_site_fract_y
 _atom_site_fract_z
 _atom_site_occupancy
  Sb  Sb0  1  0.00024800  0.48824800  0.73493900  1
  Sb  Sb1  1  0.99975200  0.51175200  0.26506100  1
  Sb  Sb2  1  0.32093100  0.84472600  0.41643200  1
  Sb  Sb3  1  0.67906900  0.15527400  0.58356800  1
  P  P4  1  0.23692600  0.10934800  0.63911800  1
  P  P5  1  0.76307400  0.89065200  0.36088200  1
  P  P6  1  0.22666800  0.21680400  0.06516000  1
  P  P7  1  0.77333200  0.78319600  0.93484000  1
  P  P8  1  0.45758400  0.50039900  0.26241100  1
  P  P9  1  0.54241600  0.49960100  0.73758900  1
  H  H10  1  0.16244800  0.00944000  0.77969900  1
  H  H11  1  0.83755200  0.99056000  0.22030100  1
  H  H12  1  0.42612100  0.15424800  0.02149200  1
  H  H13  1  0.57387900  0.84575200  0.97850800  1
  H  H14  1  0.52812200  0.50346400  0.11169200  1
  H  H15  1  0.47187800  0.49653600  0.88830800  1
  O  O16  1  0.20385900  0.05745900  0.50846000  1
  O  O17  1  0.79614100  0.94254100  0.49154000  1
  O  O18  1  0.45550700  0.05538900  0.67368600  1
  O  O19  1  0.54449300  0.94461100  0.32631400  1
  O  O20  1  0.12369500  0.31379500  0.59843300  1
  O  O21  1  0.87630500  0.68620500  0.40156700  1
  O  O22  1  0.17663300  0.06348000  0.20119900  1
  O  O23  1  0.82336700  0.93652000  0.79880100  1
  O  O24  1  0.19148700  0.39022600  0.09527900  1
  O  O25  1  0.80851300  0.60977400  0.90472100  1
  O  O26  1  0.11219100  0.25861900  0.92110300  1
  O  O27  1  0.88780900  0.74138100  0.07889700  1
  O  O28  1  0.22894100  0.59266800  0.25329500  1
  O  O29  1  0.77105900  0.40733200  0.74670500  1
  O  O30  1  0.51657700  0.29870400  0.36837700  1
  O  O31  1  0.48342300  0.70129600  0.63162300  1
  O  O32  1  0.53928000  0.61508600  0.30547500  1
  O  O33  1  0.46072000  0.38491400  0.69452500  1
