# generated using pymatgen
data_Sr3GaO4F
_symmetry_space_group_name_H-M   'P 1'
_cell_length_a   6.84993200
_cell_length_b   6.84993200
_cell_length_c   11.49736000
_cell_angle_alpha   90.00000000
_cell_angle_beta   90.00000000
_cell_angle_gamma   90.00000000
_symmetry_Int_Tables_number   1
_chemical_formula_structural   Sr3GaO4F
_chemical_formula_sum   'Sr12 Ga4 O16 F4'
_cell_volume   539.47416371
_cell_formula_units_Z   4
loop_
 _symmetry_equiv_pos_site_id
 _symmetry_equiv_pos_as_xyz
  1  'x, y, z'
loop_
 _atom_site_type_symbol
 _atom_site_label
 _atom_site_symmetry_multiplicity
 _atom_site_fract_x
 _atom_site_fract_y
 _atom_site_fract_z
 _atom_site_occupancy
  Sr  Sr0  1  0.33256650  0.83256650  0.00000000  1
  Sr  Sr1  1  0.16743350  0.33256650  0.00000000  1
  Sr  Sr2  1  0.83256650  0.66743350  0.00000000  1
  Sr  Sr3  1  0.16743350  0.66743350  0.50000000  1
  Sr  Sr4  1  0.00000000  0.00000000  0.25000000  1
  Sr  Sr5  1  0.50000000  0.50000000  0.25000000  1
  Sr  Sr6  1  0.83256650  0.33256650  0.50000000  1
  Sr  Sr7  1  0.66743350  0.83256650  0.50000000  1
  Sr  Sr8  1  0.33256650  0.16743350  0.50000000  1
  Sr  Sr9  1  0.66743350  0.16743350  0.00000000  1
  Sr  Sr10  1  0.50000000  0.50000000  0.75000000  1
  Sr  Sr11  1  0.00000000  0.00000000  0.75000000  1
  Ga  Ga12  1  0.00000000  0.50000000  0.25000000  1
  Ga  Ga13  1  0.50000000  0.00000000  0.25000000  1
  Ga  Ga14  1  0.50000000  0.00000000  0.75000000  1
  Ga  Ga15  1  0.00000000  0.50000000  0.75000000  1
  O  O16  1  0.85256500  0.35256500  0.14411400  1
  O  O17  1  0.35256500  0.85256500  0.35588600  1
  O  O18  1  0.64743500  0.14743500  0.35588600  1
  O  O19  1  0.85256500  0.64743500  0.35588600  1
  O  O20  1  0.14743500  0.35256500  0.35588600  1
  O  O21  1  0.64743500  0.85256500  0.14411400  1
  O  O22  1  0.35256500  0.14743500  0.14411400  1
  O  O23  1  0.14743500  0.64743500  0.14411400  1
  O  O24  1  0.35256500  0.85256500  0.64411400  1
  O  O25  1  0.85256500  0.35256500  0.85588600  1
  O  O26  1  0.14743500  0.64743500  0.85588600  1
  O  O27  1  0.35256500  0.14743500  0.85588600  1
  O  O28  1  0.64743500  0.85256500  0.85588600  1
  O  O29  1  0.14743500  0.35256500  0.64411400  1
  O  O30  1  0.85256500  0.64743500  0.64411400  1
  O  O31  1  0.64743500  0.14743500  0.64411400  1
  F  F32  1  0.50000000  0.50000000  0.00000000  1
  F  F33  1  0.00000000  0.00000000  0.00000000  1
  F  F34  1  0.00000000  0.00000000  0.50000000  1
  F  F35  1  0.50000000  0.50000000  0.50000000  1
