# generated using pymatgen
data_NaH3C2O5
_symmetry_space_group_name_H-M   'P 1'
_cell_length_a   5.73014400
_cell_length_b   6.52806015
_cell_length_c   6.71311162
_cell_angle_alpha   104.96565935
_cell_angle_beta   85.09468327
_cell_angle_gamma   110.02028741
_symmetry_Int_Tables_number   1
_chemical_formula_structural   NaH3C2O5
_chemical_formula_sum   'Na2 H6 C4 O10'
_cell_volume   227.93687638
_cell_formula_units_Z   2
loop_
 _symmetry_equiv_pos_site_id
 _symmetry_equiv_pos_as_xyz
  1  'x, y, z'
loop_
 _atom_site_type_symbol
 _atom_site_label
 _atom_site_symmetry_multiplicity
 _atom_site_fract_x
 _atom_site_fract_y
 _atom_site_fract_z
 _atom_site_occupancy
  Na  Na0  1  0.75959700  0.74850100  0.97232200  1
  Na  Na1  1  0.24040300  0.25149900  0.02767800  1
  H  H2  1  0.23773600  0.81019300  0.77480100  1
  H  H3  1  0.76226400  0.18980700  0.22519900  1
  H  H4  1  0.25991300  0.79100900  0.00295600  1
  H  H5  1  0.74008700  0.20899100  0.99704400  1
  H  H6  1  0.99023900  0.74567100  0.39629600  1
  H  H7  1  0.00976100  0.25432900  0.60370400  1
  C  C8  1  0.64554600  0.74156400  0.46073100  1
  C  C9  1  0.35445400  0.25843600  0.53926900  1
  C  C10  1  0.40175700  0.72316200  0.36038000  1
  C  C11  1  0.59824300  0.27683800  0.63962000  1
  O  O12  1  0.65763100  0.75457200  0.64612200  1
  O  O13  1  0.34236900  0.24542800  0.35387800  1
  O  O14  1  0.82833700  0.73655100  0.32711800  1
  O  O15  1  0.17166300  0.26344900  0.67288200  1
  O  O16  1  0.38725900  0.66551700  0.16587900  1
  O  O17  1  0.61274100  0.33448300  0.83412100  1
  O  O18  1  0.23580400  0.76537000  0.48616100  1
  O  O19  1  0.76419600  0.23463000  0.51383900  1
  O  O20  1  0.18515800  0.85581700  0.91867900  1
  O  O21  1  0.81484200  0.14418300  0.08132100  1
