# generated using pymatgen
data_SnPH5NO4F
_symmetry_space_group_name_H-M   'P 1'
_cell_length_a   5.39695800
_cell_length_b   6.75747000
_cell_length_c   15.45996300
_cell_angle_alpha   90.00000000
_cell_angle_beta   90.00000000
_cell_angle_gamma   90.00000000
_symmetry_Int_Tables_number   1
_chemical_formula_structural   SnPH5NO4F
_chemical_formula_sum   'Sn4 P4 H20 N4 O16 F4'
_cell_volume   563.82147688
_cell_formula_units_Z   4
loop_
 _symmetry_equiv_pos_site_id
 _symmetry_equiv_pos_as_xyz
  1  'x, y, z'
loop_
 _atom_site_type_symbol
 _atom_site_label
 _atom_site_symmetry_multiplicity
 _atom_site_fract_x
 _atom_site_fract_y
 _atom_site_fract_z
 _atom_site_occupancy
  Sn  Sn0  1  0.25000000  0.15809400  0.80336500  1
  Sn  Sn1  1  0.25000000  0.65809400  0.69663500  1
  Sn  Sn2  1  0.75000000  0.84190600  0.19663500  1
  Sn  Sn3  1  0.75000000  0.34190600  0.30336500  1
  P  P4  1  0.75000000  0.88303500  0.83663100  1
  P  P5  1  0.75000000  0.38303500  0.66336900  1
  P  P6  1  0.25000000  0.11696500  0.16336900  1
  P  P7  1  0.25000000  0.61696500  0.33663100  1
  H  H8  1  0.75000000  0.55450300  0.82930700  1
  H  H9  1  0.75000000  0.05450300  0.67069300  1
  H  H10  1  0.25000000  0.44549700  0.17069300  1
  H  H11  1  0.25000000  0.94549700  0.32930700  1
  H  H12  1  0.25000000  0.57434700  0.96258200  1
  H  H13  1  0.25000000  0.07434700  0.53741800  1
  H  H14  1  0.75000000  0.42565300  0.03741800  1
  H  H15  1  0.75000000  0.92565300  0.46258200  1
  H  H16  1  0.25000000  0.82316500  0.95171100  1
  H  H17  1  0.25000000  0.32316500  0.54828900  1
  H  H18  1  0.75000000  0.17683500  0.04828900  1
  H  H19  1  0.75000000  0.67683500  0.45171100  1
  H  H20  1  0.40689900  0.71953300  0.03365600  1
  H  H21  1  0.09310100  0.21953300  0.46634400  1
  H  H22  1  0.90689900  0.28046700  0.96634400  1
  H  H23  1  0.59310100  0.78046700  0.53365600  1
  H  H24  1  0.59310100  0.28046700  0.96634400  1
  H  H25  1  0.90689900  0.78046700  0.53365600  1
  H  H26  1  0.09310100  0.71953300  0.03365600  1
  H  H27  1  0.40689900  0.21953300  0.46634400  1
  N  N28  1  0.25000000  0.70851200  0.99579500  1
  N  N29  1  0.25000000  0.20851200  0.50420500  1
  N  N30  1  0.75000000  0.29148800  0.00420500  1
  N  N31  1  0.75000000  0.79148800  0.49579500  1
  O  O32  1  0.75000000  0.66351300  0.87477500  1
  O  O33  1  0.75000000  0.16351300  0.62522500  1
  O  O34  1  0.25000000  0.33648700  0.12522500  1
  O  O35  1  0.25000000  0.83648700  0.37477500  1
  O  O36  1  0.51669500  0.98548100  0.87517400  1
  O  O37  1  0.98330500  0.48548100  0.62482600  1
  O  O38  1  0.01669500  0.01451900  0.12482600  1
  O  O39  1  0.48330500  0.51451900  0.37517400  1
  O  O40  1  0.48330500  0.01451900  0.12482600  1
  O  O41  1  0.01669500  0.51451900  0.37517400  1
  O  O42  1  0.98330500  0.98548100  0.87517400  1
  O  O43  1  0.51669500  0.48548100  0.62482600  1
  O  O44  1  0.75000000  0.87548500  0.73763900  1
  O  O45  1  0.75000000  0.37548500  0.76236100  1
  O  O46  1  0.25000000  0.12451500  0.26236100  1
  O  O47  1  0.25000000  0.62451500  0.23763900  1
  F  F48  1  0.25000000  0.34023500  0.91410000  1
  F  F49  1  0.25000000  0.84023500  0.58590000  1
  F  F50  1  0.75000000  0.65976500  0.08590000  1
  F  F51  1  0.75000000  0.15976500  0.41410000  1
