# generated using pymatgen
data_Na2CdO2
_symmetry_space_group_name_H-M   'P 1'
_cell_length_a   9.38808927
_cell_length_b   9.40170064
_cell_length_c   9.40939875
_cell_angle_alpha   109.66507862
_cell_angle_beta   109.35274764
_cell_angle_gamma   109.28691674
_symmetry_Int_Tables_number   1
_chemical_formula_structural   Na2CdO2
_chemical_formula_sum   'Na16 Cd8 O16'
_cell_volume   640.17980195
_cell_formula_units_Z   8
loop_
 _symmetry_equiv_pos_site_id
 _symmetry_equiv_pos_as_xyz
  1  'x, y, z'
loop_
 _atom_site_type_symbol
 _atom_site_label
 _atom_site_symmetry_multiplicity
 _atom_site_fract_x
 _atom_site_fract_y
 _atom_site_fract_z
 _atom_site_occupancy
  Na  Na0  1  0.03481499  0.26660044  0.45531897  1
  Na  Na1  1  0.23354607  0.72397284  0.73230212  1
  Na  Na2  1  0.22748879  0.48918086  0.04741814  1
  Na  Na3  1  0.01116894  0.74149841  0.03440546  1
  Na  Na4  1  0.22518182  0.76153293  0.22517981  1
  Na  Na5  1  0.04302287  0.03386942  0.22981668  1
  Na  Na6  1  0.27970941  0.04723760  0.46677341  1
  Na  Na7  1  0.72876598  0.77861888  0.25724469  1
  Na  Na8  1  0.52951244  0.98753237  0.23274171  1
  Na  Na9  1  0.49989843  0.54287295  0.73627211  1
  Na  Na10  1  0.48992752  0.45027373  0.27834770  1
  Na  Na11  1  0.45009024  0.22468584  0.00869591  1
  Na  Na12  1  0.27797580  0.22834852  0.73745516  1
  Na  Na13  1  0.73216029  0.94863814  0.53527325  1
  Na  Na14  1  0.96626069  0.96996659  0.76679622  1
  Na  Na15  1  0.77533367  0.24017452  0.77352809  1
  Cd  Cd16  1  0.26494345  0.53513825  0.50511768  1
  Cd  Cd17  1  0.54200358  0.76406627  0.99667791  1
  Cd  Cd18  1  0.45610011  0.00469639  0.76803946  1
  Cd  Cd19  1  0.00133452  0.26097171  0.96135003  1
  Cd  Cd20  1  0.76806376  0.51294156  0.95367996  1
  Cd  Cd21  1  0.73016766  0.46884486  0.48682429  1
  Cd  Cd22  1  0.75338920  0.26288493  0.27700743  1
  Cd  Cd23  1  0.97161236  0.73765728  0.54263667  1
  O  O24  1  0.04185510  0.26406629  0.71366112  1
  O  O25  1  0.22574965  0.96793253  0.74984891  1
  O  O26  1  0.98321879  0.48832396  0.00552583  1
  O  O27  1  0.28894201  0.53665288  0.25377313  1
  O  O28  1  0.24254371  0.76992598  0.47177948  1
  O  O29  1  0.24437696  0.28366557  0.96793632  1
  O  O30  1  0.47024503  0.75807459  0.79231522  1
  O  O31  1  0.50366402  0.99572733  0.98847385  1
  O  O32  1  0.54614186  0.25606395  0.20765873  1
  O  O33  1  0.74760304  0.71438309  0.02489522  1
  O  O34  1  0.73966542  0.22505993  0.52988940  1
  O  O35  1  0.72712504  0.47770663  0.74437678  1
  O  O36  1  0.50184222  0.50439987  0.49978444  1
  O  O37  1  0.78883866  0.04754675  0.23912171  1
  O  O38  1  0.95338282  0.73549881  0.29953408  1
  O  O39  1  0.00233309  0.99276657  0.50252291  1
