# generated using pymatgen
data_Na3YH12(CO5)3
_symmetry_space_group_name_H-M   'P 1'
_cell_length_a   11.68265394
_cell_length_b   11.68265394
_cell_length_c   5.85853600
_cell_angle_alpha   90.00000000
_cell_angle_beta   90.00000000
_cell_angle_gamma   120.00000000
_symmetry_Int_Tables_number   1
_chemical_formula_structural   Na3YH12(CO5)3
_chemical_formula_sum   'Na6 Y2 H24 C6 O30'
_cell_volume   692.47286355
_cell_formula_units_Z   2
loop_
 _symmetry_equiv_pos_site_id
 _symmetry_equiv_pos_as_xyz
  1  'x, y, z'
loop_
 _atom_site_type_symbol
 _atom_site_label
 _atom_site_symmetry_multiplicity
 _atom_site_fract_x
 _atom_site_fract_y
 _atom_site_fract_z
 _atom_site_occupancy
  Na  Na0  1  0.63351300  0.99600500  0.67307600  1
  Na  Na1  1  0.36249200  0.36648700  0.67307600  1
  Na  Na2  1  0.00399500  0.63750800  0.67307600  1
  Na  Na3  1  0.36648700  0.00399500  0.17307600  1
  Na  Na4  1  0.99600500  0.36249200  0.17307600  1
  Na  Na5  1  0.63750800  0.63351300  0.17307600  1
  Y  Y6  1  0.66666667  0.33333333  0.41233300  1
  Y  Y7  1  0.33333333  0.66666667  0.91233300  1
  H  H8  1  0.68025800  0.56863200  0.64989200  1
  H  H9  1  0.00126500  0.86946200  0.43965700  1
  H  H10  1  0.23563800  0.14069800  0.04261100  1
  H  H11  1  0.43136800  0.11162600  0.64989200  1
  H  H12  1  0.56863200  0.88837400  0.14989200  1
  H  H13  1  0.88837400  0.31974200  0.64989200  1
  H  H14  1  0.11162600  0.68025800  0.14989200  1
  H  H15  1  0.71809000  0.49961300  0.85406800  1
  H  H16  1  0.50038700  0.21847700  0.85406800  1
  H  H17  1  0.13180300  0.00126500  0.93965700  1
  H  H18  1  0.76436200  0.85930200  0.54261100  1
  H  H19  1  0.31974200  0.43136800  0.14989200  1
  H  H20  1  0.86819700  0.99873500  0.43965700  1
  H  H21  1  0.28191000  0.50038700  0.35406800  1
  H  H22  1  0.86946200  0.86819700  0.93965700  1
  H  H23  1  0.13053800  0.13180300  0.43965700  1
  H  H24  1  0.85930200  0.09494000  0.04261100  1
  H  H25  1  0.78152300  0.28191000  0.85406800  1
  H  H26  1  0.21847700  0.71809000  0.35406800  1
  H  H27  1  0.14069800  0.90506000  0.54261100  1
  H  H28  1  0.99873500  0.13053800  0.93965700  1
  H  H29  1  0.49961300  0.78152300  0.35406800  1
  H  H30  1  0.90506000  0.76436200  0.04261100  1
  H  H31  1  0.09494000  0.23563800  0.54261100  1
  C  C32  1  0.44380200  0.31886900  0.17904000  1
  C  C33  1  0.68113100  0.12493300  0.17904000  1
  C  C34  1  0.55619800  0.68113100  0.67904000  1
  C  C35  1  0.87506700  0.55619800  0.17904000  1
  C  C36  1  0.12493300  0.44380200  0.67904000  1
  C  C37  1  0.31886900  0.87506700  0.67904000  1
  O  O38  1  0.68791400  0.03481500  0.06346200  1
  O  O39  1  0.50318600  0.20454500  0.68626700  1
  O  O40  1  0.50248000  0.59965300  0.84735800  1
  O  O41  1  0.40034700  0.90282700  0.84735800  1
  O  O42  1  0.79545500  0.29864100  0.68626700  1
  O  O43  1  0.75862200  0.25064600  0.13146700  1
  O  O44  1  0.09717300  0.49752000  0.84735800  1
  O  O45  1  0.20454500  0.70135900  0.18626700  1
  O  O46  1  0.14460800  0.18826000  0.57156000  1
  O  O47  1  0.65309900  0.68791400  0.56346200  1
  O  O48  1  0.25064600  0.49202400  0.63146700  1
  O  O49  1  0.49681400  0.79545500  0.18626700  1
  O  O50  1  0.03481500  0.34690100  0.56346200  1
  O  O51  1  0.34690100  0.31208600  0.06346200  1
  O  O52  1  0.49202400  0.24137800  0.13146700  1
  O  O53  1  0.90282700  0.50248000  0.34735800  1
  O  O54  1  0.81174000  0.95634800  0.57156000  1
  O  O55  1  0.95634800  0.14460800  0.07156000  1
  O  O56  1  0.74935400  0.50797600  0.13146700  1
  O  O57  1  0.50797600  0.75862200  0.63146700  1
  O  O58  1  0.96518500  0.65309900  0.06346200  1
  O  O59  1  0.70135900  0.49681400  0.68626700  1
  O  O60  1  0.24137800  0.74935400  0.63146700  1
  O  O61  1  0.59965300  0.09717300  0.34735800  1
  O  O62  1  0.49752000  0.40034700  0.34735800  1
  O  O63  1  0.29864100  0.50318600  0.18626700  1
  O  O64  1  0.18826000  0.04365200  0.07156000  1
  O  O65  1  0.85539200  0.81174000  0.07156000  1
  O  O66  1  0.04365200  0.85539200  0.57156000  1
  O  O67  1  0.31208600  0.96518500  0.56346200  1
