# generated using pymatgen
data_NdPb8F19
_symmetry_space_group_name_H-M   'P 1'
_cell_length_a   7.16141800
_cell_length_b   4.19893400
_cell_length_c   32.17011667
_cell_angle_alpha   90.00000000
_cell_angle_beta   90.64630491
_cell_angle_gamma   90.00000000
_symmetry_Int_Tables_number   1
_chemical_formula_structural   NdPb8F19
_chemical_formula_sum   'Nd2 Pb16 F38'
_cell_volume   967.30420785
_cell_formula_units_Z   2
loop_
 _symmetry_equiv_pos_site_id
 _symmetry_equiv_pos_as_xyz
  1  'x, y, z'
loop_
 _atom_site_type_symbol
 _atom_site_label
 _atom_site_symmetry_multiplicity
 _atom_site_fract_x
 _atom_site_fract_y
 _atom_site_fract_z
 _atom_site_occupancy
  Nd  Nd0  1  0.34272600  0.00000000  0.86962800  1
  Nd  Nd1  1  0.84272600  0.50000000  0.86962800  1
  Pb  Pb2  1  0.01905700  0.00000000  0.98685900  1
  Pb  Pb3  1  0.63593500  0.00000000  0.10801500  1
  Pb  Pb4  1  0.31328400  0.00000000  0.21807000  1
  Pb  Pb5  1  0.98611900  0.00000000  0.33109000  1
  Pb  Pb6  1  0.66081900  0.00000000  0.44288000  1
  Pb  Pb7  1  0.33381400  0.00000000  0.55310700  1
  Pb  Pb8  1  0.01035000  0.00000000  0.66240000  1
  Pb  Pb9  1  0.68765700  0.00000000  0.76989900  1
  Pb  Pb10  1  0.51905700  0.50000000  0.98685900  1
  Pb  Pb11  1  0.13593500  0.50000000  0.10801500  1
  Pb  Pb12  1  0.81328400  0.50000000  0.21807000  1
  Pb  Pb13  1  0.48611900  0.50000000  0.33109000  1
  Pb  Pb14  1  0.16081900  0.50000000  0.44288000  1
  Pb  Pb15  1  0.83381400  0.50000000  0.55310700  1
  Pb  Pb16  1  0.51035000  0.50000000  0.66240000  1
  Pb  Pb17  1  0.18765700  0.50000000  0.76989900  1
  F  F18  1  0.31266400  0.00000000  0.13944600  1
  F  F19  1  0.97768900  0.00000000  0.08264500  1
  F  F20  1  0.65251500  0.00000000  0.18777500  1
  F  F21  1  0.64758300  0.00000000  0.36074600  1
  F  F22  1  0.98527400  0.00000000  0.24700600  1
  F  F23  1  0.31449300  0.00000000  0.30314500  1
  F  F24  1  0.32870300  0.00000000  0.47218000  1
  F  F25  1  0.99373500  0.00000000  0.41481400  1
  F  F26  1  0.00100800  0.00000000  0.58126400  1
  F  F27  1  0.67900200  0.00000000  0.69197500  1
  F  F28  1  0.66655500  0.00000000  0.52551400  1
  F  F29  1  0.34367100  0.00000000  0.63591200  1
  F  F30  1  0.36094600  0.00000000  0.79706000  1
  F  F31  1  0.02300100  0.00000000  0.74091300  1
  F  F32  1  0.02674900  0.00000000  0.90782800  1
  F  F33  1  0.03455700  0.00000000  0.83164100  1
  F  F34  1  0.68858700  0.00000000  0.86328600  1
  F  F35  1  0.69764500  0.00000000  0.95667000  1
  F  F36  1  0.36704300  0.00000000  0.01267600  1
  F  F37  1  0.81266400  0.50000000  0.13944600  1
  F  F38  1  0.47768900  0.50000000  0.08264500  1
  F  F39  1  0.15251500  0.50000000  0.18777500  1
  F  F40  1  0.14758300  0.50000000  0.36074600  1
  F  F41  1  0.48527400  0.50000000  0.24700600  1
  F  F42  1  0.81449300  0.50000000  0.30314500  1
  F  F43  1  0.82870300  0.50000000  0.47218000  1
  F  F44  1  0.49373500  0.50000000  0.41481400  1
  F  F45  1  0.50100800  0.50000000  0.58126400  1
  F  F46  1  0.17900200  0.50000000  0.69197500  1
  F  F47  1  0.16655500  0.50000000  0.52551400  1
  F  F48  1  0.84367100  0.50000000  0.63591200  1
  F  F49  1  0.86094600  0.50000000  0.79706000  1
  F  F50  1  0.52300100  0.50000000  0.74091300  1
  F  F51  1  0.52674900  0.50000000  0.90782800  1
  F  F52  1  0.53455700  0.50000000  0.83164100  1
  F  F53  1  0.18858700  0.50000000  0.86328600  1
  F  F54  1  0.19764500  0.50000000  0.95667000  1
  F  F55  1  0.86704300  0.50000000  0.01267600  1
