# generated using pymatgen
data_In7Te10
_symmetry_space_group_name_H-M   'P 1'
_cell_length_a   15.26370322
_cell_length_b   15.26370322
_cell_length_c   19.33338277
_cell_angle_alpha   90.00000000
_cell_angle_beta   90.00000000
_cell_angle_gamma   120.00000000
_symmetry_Int_Tables_number   1
_chemical_formula_structural   In7Te10
_chemical_formula_sum   'In42 Te60'
_cell_volume   3900.84152901
_cell_formula_units_Z   6
loop_
 _symmetry_equiv_pos_site_id
 _symmetry_equiv_pos_as_xyz
  1  'x, y, z'
loop_
 _atom_site_type_symbol
 _atom_site_label
 _atom_site_symmetry_multiplicity
 _atom_site_fract_x
 _atom_site_fract_y
 _atom_site_fract_z
 _atom_site_occupancy
  In  In0  1  0.66641333  0.75436167  0.08462867  1
  In  In1  1  0.24879933  0.77739467  0.89676567  1
  In  In2  1  0.13807133  0.55593867  0.43656767  1
  In  In3  1  0.08794833  0.33358667  0.08462867  1
  In  In4  1  0.57871833  0.57897167  0.24870467  1
  In  In5  1  0.41786733  0.86192867  0.43656767  1
  In  In6  1  0.52859533  0.75120067  0.89676567  1
  In  In7  1  0.33333333  0.66666667  0.09335167  1
  In  In8  1  0.33333333  0.66666667  0.23998167  1
  In  In9  1  0.00025333  0.42128167  0.24870467  1
  In  In10  1  0.22260533  0.47140467  0.89676567  1
  In  In11  1  0.44406133  0.58213267  0.43656767  1
  In  In12  1  0.42102833  0.99974667  0.24870467  1
  In  In13  1  0.24563833  0.91205167  0.08462867  1
  In  In14  1  0.33308000  0.08769500  0.41796200  1
  In  In15  1  0.91546600  0.11072800  0.23009900  1
  In  In16  1  0.80473800  0.88927200  0.76990100  1
  In  In17  1  0.75461500  0.66692000  0.41796200  1
  In  In18  1  0.24538500  0.91230500  0.58203800  1
  In  In19  1  0.08453400  0.19526200  0.76990100  1
  In  In20  1  0.19526200  0.08453400  0.23009900  1
  In  In21  1  0.00000000  0.00000000  0.42668500  1
  In  In22  1  1.00000000  0.00000000  0.57331500  1
  In  In23  1  0.66692000  0.75461500  0.58203800  1
  In  In24  1  0.88927200  0.80473800  0.23009900  1
  In  In25  1  0.11072800  0.91546600  0.76990100  1
  In  In26  1  0.08769500  0.33308000  0.58203800  1
  In  In27  1  0.91230500  0.24538500  0.41796200  1
  In  In28  1  0.99974667  0.42102833  0.75129533  1
  In  In29  1  0.58213267  0.44406133  0.56343233  1
  In  In30  1  0.47140467  0.22260533  0.10323433  1
  In  In31  1  0.42128167  0.00025333  0.75129533  1
  In  In32  1  0.91205167  0.24563833  0.91537133  1
  In  In33  1  0.75120067  0.52859533  0.10323433  1
  In  In34  1  0.86192867  0.41786733  0.56343233  1
  In  In35  1  0.66666667  0.33333333  0.76001833  1
  In  In36  1  0.66666667  0.33333333  0.90664833  1
  In  In37  1  0.33358667  0.08794833  0.91537133  1
  In  In38  1  0.55593867  0.13807133  0.56343233  1
  In  In39  1  0.77739467  0.24879933  0.10323433  1
  In  In40  1  0.75436167  0.66641333  0.91537133  1
  In  In41  1  0.57897167  0.57871833  0.75129533  1
  Te  Te42  1  0.96946733  0.43309067  0.10232267  1
  Te  Te43  1  0.09975733  0.30280067  0.23101067  1
  Te  Te44  1  0.46362333  0.03053267  0.10232267  1
  Te  Te45  1  0.50288067  0.16954733  0.33333333  1
  Te  Te46  1  0.52690800  0.81514400  0.03676100  1
  Te  Te47  1  0.48181067  0.86024133  0.29657233  1
  Te  Te48  1  0.16378600  0.00000000  0.00000000  1
  Te  Te49  1  0.73494633  0.06827967  0.16666667  1
  Te  Te50  1  0.33333333  0.66666667  0.83113333  1
  Te  Te51  1  0.00000000  0.16378600  0.00000000  1
  Te  Te52  1  0.18485600  0.71176400  0.03676100  1
  Te  Te53  1  0.20304333  0.90024267  0.23101067  1
  Te  Te54  1  0.13975867  0.62156933  0.29657233  1
  Te  Te55  1  0.33333333  0.66666667  0.50220000  1
  Te  Te56  1  0.33333333  0.26505367  0.16666667  1
  Te  Te57  1  0.56690933  0.53637667  0.10232267  1
  Te  Te58  1  0.37843067  0.51818933  0.29657233  1
  Te  Te59  1  0.69719933  0.79695667  0.23101067  1
  Te  Te60  1  0.93172033  0.66666667  0.16666667  1
  Te  Te61  1  0.28823600  0.47309200  0.03676100  1
  Te  Te62  1  0.63613400  0.76642400  0.43565600  1
  Te  Te63  1  0.76642400  0.63613400  0.56434400  1
  Te  Te64  1  0.13029000  0.36386600  0.43565600  1
  Te  Te65  1  0.16954733  0.50288067  0.66666667  1
  Te  Te66  1  0.19357467  0.14847733  0.37009433  1
  Te  Te67  1  0.14847733  0.19357467  0.62990567  1
  Te  Te68  1  0.83045267  0.33333333  0.33333333  1
  Te  Te69  1  0.40161300  0.40161300  0.50000000  1
  Te  Te70  1  0.00000000  0.00000000  0.16446667  1
  Te  Te71  1  0.66666667  0.49711933  0.33333333  1
  Te  Te72  1  0.85152267  0.04509733  0.37009433  1
  Te  Te73  1  0.86971000  0.23357600  0.56434400  1
  Te  Te74  1  0.80642533  0.95490267  0.62990567  1
  Te  Te75  1  1.00000000  0.00000000  0.83553333  1
  Te  Te76  1  0.00000000  0.59838700  0.50000000  1
  Te  Te77  1  0.23357600  0.86971000  0.43565600  1
  Te  Te78  1  0.04509733  0.85152267  0.62990567  1
  Te  Te79  1  0.36386600  0.13029000  0.56434400  1
  Te  Te80  1  0.59838700  0.00000000  0.50000000  1
  Te  Te81  1  0.95490267  0.80642533  0.37009433  1
  Te  Te82  1  0.30280067  0.09975733  0.76898933  1
  Te  Te83  1  0.43309067  0.96946733  0.89767733  1
  Te  Te84  1  0.79695667  0.69719933  0.76898933  1
  Te  Te85  1  0.83621400  0.83621400  0.00000000  1
  Te  Te86  1  0.86024133  0.48181067  0.70342767  1
  Te  Te87  1  0.81514400  0.52690800  0.96323900  1
  Te  Te88  1  0.49711933  0.66666667  0.66666667  1
  Te  Te89  1  0.06827967  0.73494633  0.83333333  1
  Te  Te90  1  0.66666667  0.33333333  0.49780000  1
  Te  Te91  1  0.33333333  0.83045267  0.66666667  1
  Te  Te92  1  0.51818933  0.37843067  0.70342767  1
  Te  Te93  1  0.53637667  0.56690933  0.89767733  1
  Te  Te94  1  0.47309200  0.28823600  0.96323900  1
  Te  Te95  1  0.66666667  0.33333333  0.16886667  1
  Te  Te96  1  0.66666667  0.93172033  0.83333333  1
  Te  Te97  1  0.90024267  0.20304333  0.76898933  1
  Te  Te98  1  0.71176400  0.18485600  0.96323900  1
  Te  Te99  1  0.03053267  0.46362333  0.89767733  1
  Te  Te100  1  0.26505367  0.33333333  0.83333333  1
  Te  Te101  1  0.62156933  0.13975867  0.70342767  1
