# generated using pymatgen
data_Na3YCl6
_symmetry_space_group_name_H-M   'P 1'
_cell_length_a   7.13951584
_cell_length_b   7.13951584
_cell_length_c   18.88263657
_cell_angle_alpha   90.00000000
_cell_angle_beta   90.00000000
_cell_angle_gamma   120.00000000
_symmetry_Int_Tables_number   1
_chemical_formula_structural   Na3YCl6
_chemical_formula_sum   'Na9 Y3 Cl18'
_cell_volume   833.54833644
_cell_formula_units_Z   3
loop_
 _symmetry_equiv_pos_site_id
 _symmetry_equiv_pos_as_xyz
  1  'x, y, z'
loop_
 _atom_site_type_symbol
 _atom_site_label
 _atom_site_symmetry_multiplicity
 _atom_site_fract_x
 _atom_site_fract_y
 _atom_site_fract_z
 _atom_site_occupancy
  Na  Na0  1  0.66666667  0.33333333  0.13361733  1
  Na  Na1  1  0.33333333  0.66666667  0.16666667  1
  Na  Na2  1  0.00000000  0.00000000  0.19971600  1
  Na  Na3  1  0.33333333  0.66666667  0.46695067  1
  Na  Na4  1  1.00000000  0.00000000  0.50000000  1
  Na  Na5  1  0.66666667  0.33333333  0.53304933  1
  Na  Na6  1  0.00000000  0.00000000  0.80028400  1
  Na  Na7  1  0.66666667  0.33333333  0.83333333  1
  Na  Na8  1  0.33333333  0.66666667  0.86638267  1
  Y  Y9  1  0.00000000  0.00000000  0.00000000  1
  Y  Y10  1  0.66666667  0.33333333  0.33333333  1
  Y  Y11  1  0.33333333  0.66666667  0.66666667  1
  Cl  Cl12  1  0.38409533  0.35600567  0.24722767  1
  Cl  Cl13  1  0.97191033  0.61590467  0.24722767  1
  Cl  Cl14  1  0.64399433  0.02808967  0.24722767  1
  Cl  Cl15  1  0.02267233  0.30524367  0.08610567  1
  Cl  Cl16  1  0.69475633  0.71742867  0.08610567  1
  Cl  Cl17  1  0.28257133  0.97732767  0.08610567  1
  Cl  Cl18  1  0.05076200  0.68933900  0.58056100  1
  Cl  Cl19  1  0.63857700  0.94923800  0.58056100  1
  Cl  Cl20  1  0.31066100  0.36142300  0.58056100  1
  Cl  Cl21  1  0.68933900  0.63857700  0.41943900  1
  Cl  Cl22  1  0.36142300  0.05076200  0.41943900  1
  Cl  Cl23  1  0.94923800  0.31066100  0.41943900  1
  Cl  Cl24  1  0.71742867  0.02267233  0.91389433  1
  Cl  Cl25  1  0.30524367  0.28257133  0.91389433  1
  Cl  Cl26  1  0.97732767  0.69475633  0.91389433  1
  Cl  Cl27  1  0.35600567  0.97191033  0.75277233  1
  Cl  Cl28  1  0.02808967  0.38409533  0.75277233  1
  Cl  Cl29  1  0.61590467  0.64399433  0.75277233  1
