# generated using pymatgen
data_Ti3Fe5O12
_symmetry_space_group_name_H-M   'P 1'
_cell_length_a   5.57616100
_cell_length_b   7.55342216
_cell_length_c   10.33850561
_cell_angle_alpha   89.86931350
_cell_angle_beta   89.91322366
_cell_angle_gamma   84.40858082
_symmetry_Int_Tables_number   1
_chemical_formula_structural   Ti3Fe5O12
_chemical_formula_sum   'Ti6 Fe10 O24'
_cell_volume   433.37517610
_cell_formula_units_Z   2
loop_
 _symmetry_equiv_pos_site_id
 _symmetry_equiv_pos_as_xyz
  1  'x, y, z'
loop_
 _atom_site_type_symbol
 _atom_site_label
 _atom_site_symmetry_multiplicity
 _atom_site_fract_x
 _atom_site_fract_y
 _atom_site_fract_z
 _atom_site_occupancy
  Ti  Ti0  1  0.71218300  0.35648500  0.00062200  1
  Ti  Ti1  1  0.29707200  0.14150500  0.50357100  1
  Ti  Ti2  1  0.70363100  0.85413800  0.00509500  1
  Ti  Ti3  1  0.19978900  0.35887700  0.74693700  1
  Ti  Ti4  1  0.70579700  0.85110800  0.49928700  1
  Ti  Ti5  1  0.21774500  0.34498700  0.25178400  1
  Fe  Fe6  1  0.28992000  0.14488300  0.99850600  1
  Fe  Fe7  1  0.78985900  0.64680100  0.74895500  1
  Fe  Fe8  1  0.20994300  0.85067800  0.75058200  1
  Fe  Fe9  1  0.28678200  0.64587200  0.00244000  1
  Fe  Fe10  1  0.71523100  0.36050400  0.50194100  1
  Fe  Fe11  1  0.77859300  0.14056000  0.75334300  1
  Fe  Fe12  1  0.79474200  0.65147400  0.25021800  1
  Fe  Fe13  1  0.21214200  0.85465800  0.24738300  1
  Fe  Fe14  1  0.28485600  0.64387800  0.49539300  1
  Fe  Fe15  1  0.79396400  0.14482700  0.25148400  1
  O  O16  1  0.66658600  0.58378700  0.92445500  1
  O  O17  1  0.99018600  0.25736700  0.91285700  1
  O  O18  1  0.15686100  0.59093700  0.81493600  1
  O  O19  1  0.16496500  0.09582000  0.66988600  1
  O  O20  1  0.35447600  0.90488300  0.91858600  1
  O  O21  1  0.50207900  0.75001500  0.65473600  1
  O  O22  1  0.46930800  0.26532600  0.85186800  1
  O  O23  1  0.64840500  0.08715500  0.56516500  1
  O  O24  1  0.64939700  0.60964200  0.41958500  1
  O  O25  1  0.85142000  0.89113400  0.83586100  1
  O  O26  1  0.85633600  0.39899900  0.68249500  1
  O  O27  1  0.03207700  0.24580100  0.40423500  1
  O  O28  1  0.98119300  0.76074600  0.59884900  1
  O  O29  1  0.14979100  0.58223800  0.31076000  1
  O  O30  1  0.15732800  0.10787300  0.17182000  1
  O  O31  1  0.34070100  0.39098600  0.58933200  1
  O  O32  1  0.34926200  0.91713600  0.43163000  1
  O  O33  1  0.51816300  0.75473000  0.14713600  1
  O  O34  1  0.48830900  0.26230500  0.34695500  1
  O  O35  1  0.65498100  0.09257200  0.06173800  1
  O  O36  1  0.84416100  0.89590600  0.33874000  1
  O  O37  1  0.84099500  0.40710700  0.16260400  1
  O  O38  1  0.97876400  0.76439100  0.09179600  1
  O  O39  1  0.36200700  0.39190800  0.08643600  1
