# generated using pymatgen
data_LiCa3RuO6
_symmetry_space_group_name_H-M   'P 1'
_cell_length_a   9.31816392
_cell_length_b   9.31816392
_cell_length_c   10.83625784
_cell_angle_alpha   90.00000000
_cell_angle_beta   90.00000000
_cell_angle_gamma   120.00000000
_symmetry_Int_Tables_number   1
_chemical_formula_structural   LiCa3RuO6
_chemical_formula_sum   'Li6 Ca18 Ru6 O36'
_cell_volume   814.83683743
_cell_formula_units_Z   6
loop_
 _symmetry_equiv_pos_site_id
 _symmetry_equiv_pos_as_xyz
  1  'x, y, z'
loop_
 _atom_site_type_symbol
 _atom_site_label
 _atom_site_symmetry_multiplicity
 _atom_site_fract_x
 _atom_site_fract_y
 _atom_site_fract_z
 _atom_site_occupancy
  Li  Li0  1  0.00000000  0.00000000  0.25000000  1
  Li  Li1  1  0.00000000  0.00000000  0.75000000  1
  Li  Li2  1  0.66666667  0.33333333  0.58333333  1
  Li  Li3  1  0.66666667  0.33333333  0.08333333  1
  Li  Li4  1  0.33333333  0.66666667  0.91666667  1
  Li  Li5  1  0.33333333  0.66666667  0.41666667  1
  Ca  Ca6  1  0.02207367  0.68874033  0.58333333  1
  Ca  Ca7  1  0.66666667  0.97792633  0.58333333  1
  Ca  Ca8  1  0.68874033  0.66666667  0.41666667  1
  Ca  Ca9  1  0.33333333  0.02207367  0.41666667  1
  Ca  Ca10  1  0.97792633  0.31125967  0.41666667  1
  Ca  Ca11  1  0.31125967  0.33333333  0.58333333  1
  Ca  Ca12  1  0.68874033  0.02207367  0.91666667  1
  Ca  Ca13  1  0.33333333  0.31125967  0.91666667  1
  Ca  Ca14  1  0.35540700  0.00000000  0.75000000  1
  Ca  Ca15  1  0.00000000  0.35540700  0.75000000  1
  Ca  Ca16  1  0.64459300  0.64459300  0.75000000  1
  Ca  Ca17  1  0.97792633  0.66666667  0.91666667  1
  Ca  Ca18  1  0.35540700  0.35540700  0.25000000  1
  Ca  Ca19  1  0.00000000  0.64459300  0.25000000  1
  Ca  Ca20  1  0.02207367  0.33333333  0.08333333  1
  Ca  Ca21  1  0.66666667  0.68874033  0.08333333  1
  Ca  Ca22  1  0.31125967  0.97792633  0.08333333  1
  Ca  Ca23  1  0.64459300  0.00000000  0.25000000  1
  Ru  Ru24  1  0.00000000  0.00000000  0.00000000  1
  Ru  Ru25  1  0.00000000  0.00000000  0.50000000  1
  Ru  Ru26  1  0.66666667  0.33333333  0.33333333  1
  Ru  Ru27  1  0.66666667  0.33333333  0.83333333  1
  Ru  Ru28  1  0.33333333  0.66666667  0.66666667  1
  Ru  Ru29  1  0.33333333  0.66666667  0.16666667  1
  O  O30  1  0.84385733  0.81468967  0.60623567  1
  O  O31  1  0.48947600  0.63749900  0.56043100  1
  O  O32  1  0.36250100  0.85197700  0.56043100  1
  O  O33  1  0.14802300  0.51052400  0.56043100  1
  O  O34  1  0.18531033  0.02916767  0.60623567  1
  O  O35  1  0.97083233  0.15614267  0.60623567  1
  O  O36  1  0.81468967  0.97083233  0.39376433  1
  O  O37  1  0.02916767  0.84385733  0.39376433  1
  O  O38  1  0.85197700  0.48947600  0.43956900  1
  O  O39  1  0.63749900  0.14802300  0.43956900  1
  O  O40  1  0.51052400  0.36250100  0.43956900  1
  O  O41  1  0.15614267  0.18531033  0.39376433  1
  O  O42  1  0.51052400  0.14802300  0.93956900  1
  O  O43  1  0.15614267  0.97083233  0.89376433  1
  O  O44  1  0.02916767  0.18531033  0.89376433  1
  O  O45  1  0.81468967  0.84385733  0.89376433  1
  O  O46  1  0.85197700  0.36250100  0.93956900  1
  O  O47  1  0.63749900  0.48947600  0.93956900  1
  O  O48  1  0.48135633  0.30416567  0.72709767  1
  O  O49  1  0.69583433  0.17719067  0.72709767  1
  O  O50  1  0.51864367  0.82280933  0.77290233  1
  O  O51  1  0.30416567  0.48135633  0.77290233  1
  O  O52  1  0.17719067  0.69583433  0.77290233  1
  O  O53  1  0.82280933  0.51864367  0.72709767  1
  O  O54  1  0.17719067  0.48135633  0.27290233  1
  O  O55  1  0.82280933  0.30416567  0.22709767  1
  O  O56  1  0.69583433  0.51864367  0.22709767  1
  O  O57  1  0.48135633  0.17719067  0.22709767  1
  O  O58  1  0.51864367  0.69583433  0.27290233  1
  O  O59  1  0.30416567  0.82280933  0.27290233  1
  O  O60  1  0.14802300  0.63749900  0.06043100  1
  O  O61  1  0.36250100  0.51052400  0.06043100  1
  O  O62  1  0.18531033  0.15614267  0.10623567  1
  O  O63  1  0.97083233  0.81468967  0.10623567  1
  O  O64  1  0.84385733  0.02916767  0.10623567  1
  O  O65  1  0.48947600  0.85197700  0.06043100  1
