# generated using pymatgen
data_Cu3BiS3
_symmetry_space_group_name_H-M   'P 1'
_cell_length_a   6.76564000
_cell_length_b   7.74395800
_cell_length_c   10.44051200
_cell_angle_alpha   90.00000000
_cell_angle_beta   90.00000000
_cell_angle_gamma   90.00000000
_symmetry_Int_Tables_number   1
_chemical_formula_structural   Cu3BiS3
_chemical_formula_sum   'Cu12 Bi4 S12'
_cell_volume   547.00799124
_cell_formula_units_Z   4
loop_
 _symmetry_equiv_pos_site_id
 _symmetry_equiv_pos_as_xyz
  1  'x, y, z'
loop_
 _atom_site_type_symbol
 _atom_site_label
 _atom_site_symmetry_multiplicity
 _atom_site_fract_x
 _atom_site_fract_y
 _atom_site_fract_z
 _atom_site_occupancy
  Cu  Cu0  1  0.86008800  0.64867700  0.59760900  1
  Cu  Cu1  1  0.36008800  0.85132300  0.40239100  1
  Cu  Cu2  1  0.13991200  0.14867700  0.90239100  1
  Cu  Cu3  1  0.63991200  0.35132300  0.09760900  1
  Cu  Cu4  1  0.92386000  0.81186800  0.89658800  1
  Cu  Cu5  1  0.42386000  0.68813200  0.10341200  1
  Cu  Cu6  1  0.07614000  0.31186800  0.60341200  1
  Cu  Cu7  1  0.57614000  0.18813200  0.39658800  1
  Cu  Cu8  1  0.02633500  0.94159500  0.53575700  1
  Cu  Cu9  1  0.52633500  0.55840500  0.46424300  1
  Cu  Cu10  1  0.97366500  0.44159500  0.96424300  1
  Cu  Cu11  1  0.47366500  0.05840500  0.03575700  1
  Bi  Bi12  1  0.37022700  0.69450000  0.75602600  1
  Bi  Bi13  1  0.87022700  0.80550000  0.24397400  1
  Bi  Bi14  1  0.62977300  0.19450000  0.74397400  1
  Bi  Bi15  1  0.12977300  0.30550000  0.25602600  1
  S  S16  1  0.10798200  0.94633200  0.74773000  1
  S  S17  1  0.60798200  0.55366800  0.25227000  1
  S  S18  1  0.89201800  0.44633200  0.75227000  1
  S  S19  1  0.39201800  0.05366800  0.24773000  1
  S  S20  1  0.58585300  0.81947500  0.56914700  1
  S  S21  1  0.08585300  0.68052500  0.43085300  1
  S  S22  1  0.41414700  0.31947500  0.93085300  1
  S  S23  1  0.91414700  0.18052500  0.06914700  1
  S  S24  1  0.59460300  0.82146300  0.93787200  1
  S  S25  1  0.09460300  0.67853700  0.06212800  1
  S  S26  1  0.40539700  0.32146300  0.56212800  1
  S  S27  1  0.90539700  0.17853700  0.43787200  1
