# generated using pymatgen
data_RbAg4I5
_symmetry_space_group_name_H-M   'P 1'
_cell_length_a   11.41788200
_cell_length_b   11.70372378
_cell_length_c   11.79739439
_cell_angle_alpha   90.26540396
_cell_angle_beta   90.10003726
_cell_angle_gamma   90.49670049
_symmetry_Int_Tables_number   1
_chemical_formula_structural   RbAg4I5
_chemical_formula_sum   'Rb4 Ag16 I20'
_cell_volume   1576.42763845
_cell_formula_units_Z   4
loop_
 _symmetry_equiv_pos_site_id
 _symmetry_equiv_pos_as_xyz
  1  'x, y, z'
loop_
 _atom_site_type_symbol
 _atom_site_label
 _atom_site_symmetry_multiplicity
 _atom_site_fract_x
 _atom_site_fract_y
 _atom_site_fract_z
 _atom_site_occupancy
  Rb  Rb0  1  0.97870600  0.00658500  0.01116400  1
  Rb  Rb1  1  0.73812000  0.49588100  0.24532300  1
  Rb  Rb2  1  0.51804200  0.75276600  0.74185400  1
  Rb  Rb3  1  0.26696100  0.24380600  0.49903300  1
  Ag  Ag4  1  0.88180300  0.27327100  0.59285100  1
  Ag  Ag5  1  0.82990800  0.89063000  0.57199600  1
  Ag  Ag6  1  0.76687100  0.86433300  0.32701400  1
  Ag  Ag7  1  0.67188200  0.13596800  0.21655800  1
  Ag  Ag8  1  0.66780100  0.09501300  0.60902000  1
  Ag  Ag9  1  0.61280100  0.32576900  0.90678300  1
  Ag  Ag10  1  0.40955000  0.91733200  0.33083400  1
  Ag  Ag11  1  0.35502000  0.58407300  0.11834200  1
  Ag  Ag12  1  0.34010000  0.21351300  0.12637200  1
  Ag  Ag13  1  0.23777600  0.28604000  0.89793700  1
  Ag  Ag14  1  0.20497500  0.80814000  0.20386200  1
  Ag  Ag15  1  0.19407000  0.57554000  0.92456300  1
  Ag  Ag16  1  0.10371200  0.75779000  0.78527500  1
  Ag  Ag17  1  0.04072700  0.40601900  0.80262400  1
  Ag  Ag18  1  0.08755300  0.67283100  0.39038800  1
  Ag  Ag19  1  0.06092900  0.58199600  0.61860100  1
  I  I20  1  0.00315000  0.43553800  0.43924700  1
  I  I21  1  0.95446000  0.74529800  0.19965800  1
  I  I22  1  0.91636500  0.60125100  0.83509400  1
  I  I23  1  0.84219500  0.09291800  0.41318100  1
  I  I24  1  0.80208000  0.25611100  0.04996400  1
  I  I25  1  0.75627400  0.95412500  0.79126700  1
  I  I26  1  0.70398000  0.69706300  0.49022900  1
  I  I27  1  0.65875500  0.33409100  0.66579800  1
  I  I28  1  0.58940900  0.91223400  0.16688100  1
  I  I29  1  0.55380600  0.55231200  0.98898800  1
  I  I30  1  0.49759000  0.29397900  0.29298200  1
  I  I31  1  0.44487400  0.99528000  0.55325900  1
  I  I32  1  0.43229900  0.15050600  0.91298300  1
  I  I33  1  0.34038000  0.66201400  0.34259700  1
  I  I34  1  0.28838100  0.50220200  0.70858500  1
  I  I35  1  0.26149800  0.81310700  0.95727500  1
  I  I36  1  0.19884800  0.04921800  0.24816800  1
  I  I37  1  0.16214000  0.41184800  0.09419800  1
  I  I38  1  0.08398100  0.84332600  0.56848100  1
  I  I39  1  0.05972900  0.18068100  0.74516800  1
