# generated using pymatgen
data_SiO2
_symmetry_space_group_name_H-M   'P 1'
_cell_length_a   9.76883400
_cell_length_b   12.32280800
_cell_length_c   23.00047000
_cell_angle_alpha   90.00000000
_cell_angle_beta   90.00000000
_cell_angle_gamma   90.00000000
_symmetry_Int_Tables_number   1
_chemical_formula_structural   SiO2
_chemical_formula_sum   'Si48 O96'
_cell_volume   2768.78429096
_cell_formula_units_Z   48
loop_
 _symmetry_equiv_pos_site_id
 _symmetry_equiv_pos_as_xyz
  1  'x, y, z'
loop_
 _atom_site_type_symbol
 _atom_site_label
 _atom_site_symmetry_multiplicity
 _atom_site_fract_x
 _atom_site_fract_y
 _atom_site_fract_z
 _atom_site_occupancy
  Si  Si0  1  0.33420800  0.87631800  0.86292400  1
  Si  Si1  1  0.83420800  0.62368200  0.63707600  1
  Si  Si2  1  0.66579200  0.37631800  0.13707600  1
  Si  Si3  1  0.16579200  0.12368200  0.36292400  1
  Si  Si4  1  0.66579200  0.12368200  0.13707600  1
  Si  Si5  1  0.16579200  0.37631800  0.36292400  1
  Si  Si6  1  0.33420800  0.62368200  0.86292400  1
  Si  Si7  1  0.83420800  0.87631800  0.63707600  1
  Si  Si8  1  0.65217600  0.87699500  0.52793100  1
  Si  Si9  1  0.15217600  0.62300500  0.97206900  1
  Si  Si10  1  0.34782400  0.37699500  0.47206900  1
  Si  Si11  1  0.84782400  0.12300500  0.02793100  1
  Si  Si12  1  0.34782400  0.12300500  0.47206900  1
  Si  Si13  1  0.84782400  0.37699500  0.02793100  1
  Si  Si14  1  0.65217600  0.62300500  0.52793100  1
  Si  Si15  1  0.15217600  0.87699500  0.97206900  1
  Si  Si16  1  0.88338100  0.52772900  0.92227800  1
  Si  Si17  1  0.38338100  0.97227100  0.57772200  1
  Si  Si18  1  0.11661900  0.02772900  0.07772200  1
  Si  Si19  1  0.61661900  0.47227100  0.42227800  1
  Si  Si20  1  0.11661900  0.47227100  0.07772200  1
  Si  Si21  1  0.61661900  0.02772900  0.42227800  1
  Si  Si22  1  0.88338100  0.97227100  0.92227800  1
  Si  Si23  1  0.38338100  0.52772900  0.57772200  1
  Si  Si24  1  0.14576800  0.87389900  0.65473400  1
  Si  Si25  1  0.64576800  0.62610100  0.84526600  1
  Si  Si26  1  0.85423200  0.37389900  0.34526600  1
  Si  Si27  1  0.35423200  0.12610100  0.15473400  1
  Si  Si28  1  0.85423200  0.12610100  0.34526600  1
  Si  Si29  1  0.35423200  0.37389900  0.15473400  1
  Si  Si30  1  0.14576800  0.62610100  0.65473400  1
  Si  Si31  1  0.64576800  0.87389900  0.84526600  1
  Si  Si32  1  0.97432100  0.12546400  0.81839600  1
  Si  Si33  1  0.47432100  0.37453600  0.68160400  1
  Si  Si34  1  0.02567900  0.62546400  0.18160400  1
  Si  Si35  1  0.52567900  0.87453600  0.31839600  1
  Si  Si36  1  0.02567900  0.87453600  0.18160400  1
  Si  Si37  1  0.52567900  0.62546400  0.31839600  1
  Si  Si38  1  0.97432100  0.37453600  0.81839600  1
  Si  Si39  1  0.47432100  0.12546400  0.68160400  1
  Si  Si40  1  0.23261000  0.47091000  0.75808800  1
  Si  Si41  1  0.73261000  0.02909000  0.74191200  1
  Si  Si42  1  0.76739000  0.97091000  0.24191200  1
  Si  Si43  1  0.26739000  0.52909000  0.25808800  1
  Si  Si44  1  0.76739000  0.52909000  0.24191200  1
  Si  Si45  1  0.26739000  0.97091000  0.25808800  1
  Si  Si46  1  0.23261000  0.02909000  0.75808800  1
  Si  Si47  1  0.73261000  0.47091000  0.74191200  1
  O  O48  1  0.29459200  0.75000000  0.84964800  1
  O  O49  1  0.79459200  0.75000000  0.65035200  1
  O  O50  1  0.70540800  0.25000000  0.15035200  1
  O  O51  1  0.20540800  0.25000000  0.34964800  1
  O  O52  1  0.24923200  0.91913000  0.91908500  1
  O  O53  1  0.74923200  0.58087000  0.58091500  1
  O  O54  1  0.75076800  0.41913000  0.08091500  1
  O  O55  1  0.25076800  0.08087000  0.41908500  1
  O  O56  1  0.75076800  0.08087000  0.08091500  1
  O  O57  1  0.25076800  0.41913000  0.41908500  1
  O  O58  1  0.24923200  0.58087000  0.91908500  1
  O  O59  1  0.74923200  0.91913000  0.58091500  1
  O  O60  1  0.49728400  0.88635300  0.87679800  1
  O  O61  1  0.99728400  0.61364700  0.62320200  1
  O  O62  1  0.50271600  0.38635300  0.12320200  1
  O  O63  1  0.00271600  0.11364700  0.37679800  1
  O  O64  1  0.50271600  0.11364700  0.12320200  1
  O  O65  1  0.00271600  0.38635300  0.37679800  1
  O  O66  1  0.49728400  0.61364700  0.87679800  1
  O  O67  1  0.99728400  0.88635300  0.62320200  1
  O  O68  1  0.29688100  0.94886800  0.80681100  1
  O  O69  1  0.79688100  0.55113200  0.69318900  1
  O  O70  1  0.70311900  0.44886800  0.19318900  1
  O  O71  1  0.20311900  0.05113200  0.30681100  1
  O  O72  1  0.70311900  0.05113200  0.19318900  1
  O  O73  1  0.20311900  0.44886800  0.30681100  1
  O  O74  1  0.29688100  0.55113200  0.80681100  1
  O  O75  1  0.79688100  0.94886800  0.69318900  1
  O  O76  1  0.68316800  0.75000000  0.51443700  1
  O  O77  1  0.18316800  0.75000000  0.98556300  1
  O  O78  1  0.31683200  0.25000000  0.48556300  1
  O  O79  1  0.81683200  0.25000000  0.01443700  1
  O  O80  1  0.68623900  0.94777600  0.47019700  1
  O  O81  1  0.18623900  0.55222400  0.02980300  1
  O  O82  1  0.31376100  0.44777600  0.52980300  1
  O  O83  1  0.81376100  0.05222400  0.97019700  1
  O  O84  1  0.31376100  0.05222400  0.52980300  1
  O  O85  1  0.81376100  0.44777600  0.97019700  1
  O  O86  1  0.68623900  0.55222400  0.47019700  1
  O  O87  1  0.18623900  0.94777600  0.02980300  1
  O  O88  1  0.49167300  0.89157900  0.54583700  1
  O  O89  1  0.99167300  0.60842100  0.95416300  1
  O  O90  1  0.50832700  0.39157900  0.45416300  1
  O  O91  1  0.00832700  0.10842100  0.04583700  1
  O  O92  1  0.50832700  0.10842100  0.45416300  1
  O  O93  1  0.00832700  0.39157900  0.04583700  1
  O  O94  1  0.49167300  0.60842100  0.54583700  1
  O  O95  1  0.99167300  0.89157900  0.95416300  1
  O  O96  1  0.96326100  0.45620400  0.87353100  1
  O  O97  1  0.46326100  0.04379600  0.62646900  1
  O  O98  1  0.03673900  0.95620400  0.12646900  1
  O  O99  1  0.53673900  0.54379600  0.37353100  1
  O  O100  1  0.03673900  0.54379600  0.12646900  1
  O  O101  1  0.53673900  0.95620400  0.37353100  1
  O  O102  1  0.96326100  0.04379600  0.87353100  1
  O  O103  1  0.46326100  0.45620400  0.62646900  1
  O  O104  1  0.76519100  0.60069200  0.89219400  1
  O  O105  1  0.26519100  0.89930800  0.60780600  1
  O  O106  1  0.23480900  0.10069200  0.10780600  1
  O  O107  1  0.73480900  0.39930800  0.39219400  1
  O  O108  1  0.23480900  0.39930800  0.10780600  1
  O  O109  1  0.73480900  0.10069200  0.39219400  1
  O  O110  1  0.76519100  0.89930800  0.89219400  1
  O  O111  1  0.26519100  0.60069200  0.60780600  1
  O  O112  1  0.16357800  0.75000000  0.67873900  1
  O  O113  1  0.66357800  0.75000000  0.82126100  1
  O  O114  1  0.83642200  0.25000000  0.32126100  1
  O  O115  1  0.33642200  0.25000000  0.17873900  1
  O  O116  1  0.15418700  0.54266200  0.70896700  1
  O  O117  1  0.65418700  0.95733800  0.79103300  1
  O  O118  1  0.84581300  0.04266200  0.29103300  1
  O  O119  1  0.34581300  0.45733800  0.20896700  1
  O  O120  1  0.84581300  0.45733800  0.29103300  1
  O  O121  1  0.34581300  0.04266200  0.20896700  1
  O  O122  1  0.15418700  0.95733800  0.70896700  1
  O  O123  1  0.65418700  0.54266200  0.79103300  1
  O  O124  1  0.95859800  0.25000000  0.84101800  1
  O  O125  1  0.45859800  0.25000000  0.65898200  1
  O  O126  1  0.04140200  0.75000000  0.15898200  1
  O  O127  1  0.54140200  0.75000000  0.34101800  1
  O  O128  1  0.35399400  0.40064600  0.72840700  1
  O  O129  1  0.85399400  0.09935400  0.77159300  1
  O  O130  1  0.64600600  0.90064600  0.27159300  1
  O  O131  1  0.14600600  0.59935400  0.22840700  1
  O  O132  1  0.64600600  0.59935400  0.27159300  1
  O  O133  1  0.14600600  0.90064600  0.22840700  1
  O  O134  1  0.35399400  0.09935400  0.72840700  1
  O  O135  1  0.85399400  0.40064600  0.77159300  1
  O  O136  1  0.12357700  0.38870800  0.78797900  1
  O  O137  1  0.62357700  0.11129200  0.71202100  1
  O  O138  1  0.87642300  0.88870800  0.21202100  1
  O  O139  1  0.37642300  0.61129200  0.28797900  1
  O  O140  1  0.87642300  0.61129200  0.21202100  1
  O  O141  1  0.37642300  0.88870800  0.28797900  1
  O  O142  1  0.12357700  0.11129200  0.78797900  1
  O  O143  1  0.62357700  0.38870800  0.71202100  1
