# generated using pymatgen
data_La2Th3O9
_symmetry_space_group_name_H-M   'P 1'
_cell_length_a   3.98860400
_cell_length_b   3.98860400
_cell_length_c   28.48567400
_cell_angle_alpha   90.00000000
_cell_angle_beta   90.00000000
_cell_angle_gamma   90.00000000
_symmetry_Int_Tables_number   1
_chemical_formula_structural   La2Th3O9
_chemical_formula_sum   'La4 Th6 O18'
_cell_volume   453.17750147
_cell_formula_units_Z   2
loop_
 _symmetry_equiv_pos_site_id
 _symmetry_equiv_pos_as_xyz
  1  'x, y, z'
loop_
 _atom_site_type_symbol
 _atom_site_label
 _atom_site_symmetry_multiplicity
 _atom_site_fract_x
 _atom_site_fract_y
 _atom_site_fract_z
 _atom_site_occupancy
  La  La0  1  0.50000000  0.00000000  0.44325800  1
  La  La1  1  0.50000000  0.00000000  0.05674200  1
  La  La2  1  0.00000000  0.50000000  0.94325800  1
  La  La3  1  0.00000000  0.50000000  0.55674200  1
  Th  Th4  1  0.00000000  0.50000000  0.15153500  1
  Th  Th5  1  0.50000000  0.00000000  0.25000000  1
  Th  Th6  1  0.00000000  0.50000000  0.34846500  1
  Th  Th7  1  0.50000000  0.00000000  0.65153500  1
  Th  Th8  1  0.00000000  0.50000000  0.75000000  1
  Th  Th9  1  0.50000000  0.00000000  0.84846500  1
  O  O10  1  0.00000000  0.00000000  0.10630500  1
  O  O11  1  0.50000000  0.50000000  0.19865900  1
  O  O12  1  0.00000000  0.00000000  0.30134100  1
  O  O13  1  0.50000000  0.50000000  0.39369500  1
  O  O14  1  0.00000000  0.00000000  0.40228200  1
  O  O15  1  0.00000000  0.00000000  0.00000000  1
  O  O16  1  0.50000000  0.50000000  0.09771800  1
  O  O17  1  0.00000000  0.00000000  0.20277100  1
  O  O18  1  0.50000000  0.50000000  0.29722900  1
  O  O19  1  0.50000000  0.50000000  0.60630500  1
  O  O20  1  0.00000000  0.00000000  0.69865900  1
  O  O21  1  0.50000000  0.50000000  0.80134100  1
  O  O22  1  0.00000000  0.00000000  0.89369500  1
  O  O23  1  0.50000000  0.50000000  0.90228200  1
  O  O24  1  0.50000000  0.50000000  0.50000000  1
  O  O25  1  0.00000000  0.00000000  0.59771800  1
  O  O26  1  0.50000000  0.50000000  0.70277100  1
  O  O27  1  0.00000000  0.00000000  0.79722900  1
