# generated using pymatgen
data_TeHO3
_symmetry_space_group_name_H-M   'P 1'
_cell_length_a   4.83496000
_cell_length_b   8.32789200
_cell_length_c   11.98458500
_cell_angle_alpha   90.00000000
_cell_angle_beta   90.00000000
_cell_angle_gamma   90.00000000
_symmetry_Int_Tables_number   1
_chemical_formula_structural   TeHO3
_chemical_formula_sum   'Te8 H8 O24'
_cell_volume   482.55961110
_cell_formula_units_Z   8
loop_
 _symmetry_equiv_pos_site_id
 _symmetry_equiv_pos_as_xyz
  1  'x, y, z'
loop_
 _atom_site_type_symbol
 _atom_site_label
 _atom_site_symmetry_multiplicity
 _atom_site_fract_x
 _atom_site_fract_y
 _atom_site_fract_z
 _atom_site_occupancy
  Te  Te0  1  0.00067300  0.46408600  0.38802900  1
  Te  Te1  1  0.50067300  0.53591400  0.61197100  1
  Te  Te2  1  0.50067300  0.96408600  0.11197100  1
  Te  Te3  1  0.00067300  0.03591400  0.88802900  1
  Te  Te4  1  0.85536500  0.35783100  0.06136800  1
  Te  Te5  1  0.35536500  0.64216900  0.93863200  1
  Te  Te6  1  0.35536500  0.85783100  0.43863200  1
  Te  Te7  1  0.85536500  0.14216900  0.56136800  1
  H  H8  1  0.59405000  0.56155700  0.27027600  1
  H  H9  1  0.09405000  0.43844300  0.72972400  1
  H  H10  1  0.09405000  0.06155700  0.22972400  1
  H  H11  1  0.59405000  0.93844300  0.77027600  1
  H  H12  1  0.39397200  0.31738600  0.29187300  1
  H  H13  1  0.89397200  0.68261400  0.70812700  1
  H  H14  1  0.89397200  0.81738600  0.20812700  1
  H  H15  1  0.39397200  0.18261400  0.79187300  1
  O  O16  1  0.74146300  0.48189300  0.26114900  1
  O  O17  1  0.24146300  0.51810700  0.73885100  1
  O  O18  1  0.24146300  0.98189300  0.23885100  1
  O  O19  1  0.74146300  0.01810700  0.76114900  1
  O  O20  1  0.49941700  0.44981200  0.04268300  1
  O  O21  1  0.99941700  0.55018800  0.95731700  1
  O  O22  1  0.99941700  0.94981200  0.45731700  1
  O  O23  1  0.49941700  0.05018800  0.54268300  1
  O  O24  1  0.69940900  0.34649600  0.65157800  1
  O  O25  1  0.19940900  0.65350400  0.34842200  1
  O  O26  1  0.19940900  0.84649600  0.84842200  1
  O  O27  1  0.69940900  0.15350400  0.15157800  1
  O  O28  1  0.24075500  0.40666000  0.51728000  1
  O  O29  1  0.74075500  0.59334000  0.48272000  1
  O  O30  1  0.74075500  0.90666000  0.98272000  1
  O  O31  1  0.24075500  0.09334000  0.01728000  1
  O  O32  1  0.79546400  0.26774500  0.42450300  1
  O  O33  1  0.29546400  0.73225500  0.57549700  1
  O  O34  1  0.29546400  0.76774500  0.07549700  1
  O  O35  1  0.79546400  0.23225500  0.92450300  1
  O  O36  1  0.19570500  0.33369300  0.27766500  1
  O  O37  1  0.69570500  0.66630700  0.72233500  1
  O  O38  1  0.69570500  0.83369300  0.22233500  1
  O  O39  1  0.19570500  0.16630700  0.77766500  1
