# generated using pymatgen
data_SiO2
_symmetry_space_group_name_H-M   'P 1'
_cell_length_a   30.44413000
_cell_length_b   8.53529200
_cell_length_c   12.60084951
_cell_angle_alpha   90.00000000
_cell_angle_beta   105.79738011
_cell_angle_gamma   90.00000000
_symmetry_Int_Tables_number   1
_chemical_formula_structural   SiO2
_chemical_formula_sum   'Si56 O112'
_cell_volume   3150.65513512
_cell_formula_units_Z   56
loop_
 _symmetry_equiv_pos_site_id
 _symmetry_equiv_pos_as_xyz
  1  'x, y, z'
loop_
 _atom_site_type_symbol
 _atom_site_label
 _atom_site_symmetry_multiplicity
 _atom_site_fract_x
 _atom_site_fract_y
 _atom_site_fract_z
 _atom_site_occupancy
  Si  Si0  1  0.20939100  0.18523400  0.76261100  1
  Si  Si1  1  0.29604850  0.81437450  0.47381300  1
  Si  Si2  1  0.19144200  0.81752400  0.12573500  1
  Si  Si3  1  0.44854500  0.31353400  0.07217400  1
  Si  Si4  1  0.20395150  0.31437450  0.52618700  1
  Si  Si5  1  0.29060900  0.31476600  0.23738900  1
  Si  Si6  1  0.14111100  0.31497000  0.89223200  1
  Si  Si7  1  0.04679150  0.68699250  0.15942200  1
  Si  Si8  1  0.04679150  0.31300750  0.15942200  1
  Si  Si9  1  0.30855800  0.31752400  0.87426500  1
  Si  Si10  1  0.44854500  0.68646600  0.07217400  1
  Si  Si11  1  0.29060900  0.68523400  0.23738900  1
  Si  Si12  1  0.20939100  0.81476600  0.76261100  1
  Si  Si13  1  0.13779350  0.18468550  0.31097100  1
  Si  Si14  1  0.30855800  0.68247600  0.87426500  1
  Si  Si15  1  0.19144200  0.18247600  0.12573500  1
  Si  Si16  1  0.05145500  0.81353400  0.92782600  1
  Si  Si17  1  0.45320850  0.18699250  0.84057800  1
  Si  Si18  1  0.29604850  0.18562550  0.47381300  1
  Si  Si19  1  0.14111100  0.68503000  0.89223200  1
  Si  Si20  1  0.45320850  0.81300750  0.84057800  1
  Si  Si21  1  0.36220650  0.68468550  0.68902900  1
  Si  Si22  1  0.36220650  0.31531450  0.68902900  1
  Si  Si23  1  0.13779350  0.81531450  0.31097100  1
  Si  Si24  1  0.35888900  0.81497000  0.10776800  1
  Si  Si25  1  0.20395150  0.68562550  0.52618700  1
  Si  Si26  1  0.35888900  0.18503000  0.10776800  1
  Si  Si27  1  0.05145500  0.18646600  0.92782600  1
  Si  Si28  1  0.70939100  0.68523400  0.76261100  1
  Si  Si29  1  0.79604850  0.31437450  0.47381300  1
  Si  Si30  1  0.69144200  0.31752400  0.12573500  1
  Si  Si31  1  0.94854500  0.81353400  0.07217400  1
  Si  Si32  1  0.70395150  0.81437450  0.52618700  1
  Si  Si33  1  0.79060900  0.81476600  0.23738900  1
  Si  Si34  1  0.64111100  0.81497000  0.89223200  1
  Si  Si35  1  0.54679150  0.18699250  0.15942200  1
  Si  Si36  1  0.54679150  0.81300750  0.15942200  1
  Si  Si37  1  0.80855800  0.81752400  0.87426500  1
  Si  Si38  1  0.94854500  0.18646600  0.07217400  1
  Si  Si39  1  0.79060900  0.18523400  0.23738900  1
  Si  Si40  1  0.70939100  0.31476600  0.76261100  1
  Si  Si41  1  0.63779350  0.68468550  0.31097100  1
  Si  Si42  1  0.80855800  0.18247600  0.87426500  1
  Si  Si43  1  0.69144200  0.68247600  0.12573500  1
  Si  Si44  1  0.55145500  0.31353400  0.92782600  1
  Si  Si45  1  0.95320850  0.68699250  0.84057800  1
  Si  Si46  1  0.79604850  0.68562550  0.47381300  1
  Si  Si47  1  0.64111100  0.18503000  0.89223200  1
  Si  Si48  1  0.95320850  0.31300750  0.84057800  1
  Si  Si49  1  0.86220650  0.18468550  0.68902900  1
  Si  Si50  1  0.86220650  0.81531450  0.68902900  1
  Si  Si51  1  0.63779350  0.31531450  0.31097100  1
  Si  Si52  1  0.85888900  0.31497000  0.10776800  1
  Si  Si53  1  0.70395150  0.18562550  0.52618700  1
  Si  Si54  1  0.85888900  0.68503000  0.10776800  1
  Si  Si55  1  0.55145500  0.68646600  0.92782600  1
  O  O56  1  0.43994150  0.78121250  0.95584600  1
  O  O57  1  0.00235450  0.76551550  0.84476700  1
  O  O58  1  0.17067750  0.29459950  0.02024700  1
  O  O59  1  0.22024300  0.00000000  0.78378900  1
  O  O60  1  0.36614400  0.00000000  0.13538400  1
  O  O61  1  0.49764550  0.26551550  0.15523300  1
  O  O62  1  0.32932250  0.79459950  0.97975300  1
  O  O63  1  0.41522350  0.73592650  0.73785000  1
  O  O64  1  0.33426850  0.71942350  0.77975800  1
  O  O65  1  0.43994150  0.21878750  0.95584600  1
  O  O66  1  0.16003850  0.71303150  0.42085100  1
  O  O67  1  0.24566750  0.78491950  0.17375800  1
  O  O68  1  0.33304300  0.73476200  0.19031200  1
  O  O69  1  0.30419750  0.72117550  0.36874500  1
  O  O70  1  0.20958800  0.50000000  0.55447300  1
  O  O71  1  0.09152600  0.23041400  0.87069800  1
  O  O72  1  0.14069700  0.00000000  0.34346400  1
  O  O73  1  0.35930300  0.50000000  0.65653600  1
  O  O74  1  0.32932250  0.20540050  0.97975300  1
  O  O75  1  0.08477650  0.23592650  0.26215000  1
  O  O76  1  0.44775900  0.50000000  0.04614000  1
  O  O77  1  0.08477650  0.76407350  0.26215000  1
  O  O78  1  0.16695700  0.76523800  0.80968800  1
  O  O79  1  0.25433250  0.71508050  0.82624200  1
  O  O80  1  0.19580250  0.22117550  0.63125500  1
  O  O81  1  0.00235450  0.23448450  0.84476700  1
  O  O82  1  0.18368000  0.00000000  0.08659000  1
  O  O83  1  0.06005850  0.28121250  0.04415400  1
  O  O84  1  0.05224100  0.00000000  0.95386000  1
  O  O85  1  0.29041200  0.00000000  0.44552700  1
  O  O86  1  0.30419750  0.27882450  0.36874500  1
  O  O87  1  0.06005850  0.71878750  0.04415400  1
  O  O88  1  0.27975700  0.50000000  0.21621100  1
  O  O89  1  0.24566750  0.21508050  0.17375800  1
  O  O90  1  0.25000000  0.25000000  0.50000000  1
  O  O91  1  0.33304300  0.26523800  0.19031200  1
  O  O92  1  0.13385600  0.50000000  0.86461600  1
  O  O93  1  0.19580250  0.77882450  0.63125500  1
  O  O94  1  0.09152600  0.76958600  0.87069800  1
  O  O95  1  0.40847400  0.26958600  0.12930200  1
  O  O96  1  0.04449200  0.50000000  0.17825500  1
  O  O97  1  0.31632000  0.50000000  0.91341000  1
  O  O98  1  0.17067750  0.70540050  0.02024700  1
  O  O99  1  0.33996150  0.21303150  0.57914900  1
  O  O100  1  0.16573150  0.21942350  0.22024200  1
  O  O101  1  0.41522350  0.26407350  0.73785000  1
  O  O102  1  0.33996150  0.78696850  0.57914900  1
  O  O103  1  0.25433250  0.28491950  0.82624200  1
  O  O104  1  0.45550800  0.00000000  0.82174500  1
  O  O105  1  0.16003850  0.28696850  0.42085100  1
  O  O106  1  0.33426850  0.28057650  0.77975800  1
  O  O107  1  0.16695700  0.23476200  0.80968800  1
  O  O108  1  0.49764550  0.73448450  0.15523300  1
  O  O109  1  0.40847400  0.73041400  0.12930200  1
  O  O110  1  0.25000000  0.75000000  0.50000000  1
  O  O111  1  0.16573150  0.78057650  0.22024200  1
  O  O112  1  0.93994150  0.28121250  0.95584600  1
  O  O113  1  0.50235450  0.26551550  0.84476700  1
  O  O114  1  0.67067750  0.79459950  0.02024700  1
  O  O115  1  0.72024300  0.50000000  0.78378900  1
  O  O116  1  0.86614400  0.50000000  0.13538400  1
  O  O117  1  0.99764550  0.76551550  0.15523300  1
  O  O118  1  0.82932250  0.29459950  0.97975300  1
  O  O119  1  0.91522350  0.23592650  0.73785000  1
  O  O120  1  0.83426850  0.21942350  0.77975800  1
  O  O121  1  0.93994150  0.71878750  0.95584600  1
  O  O122  1  0.66003850  0.21303150  0.42085100  1
  O  O123  1  0.74566750  0.28491950  0.17375800  1
  O  O124  1  0.83304300  0.23476200  0.19031200  1
  O  O125  1  0.80419750  0.22117550  0.36874500  1
  O  O126  1  0.70958800  0.00000000  0.55447300  1
  O  O127  1  0.59152600  0.73041400  0.87069800  1
  O  O128  1  0.64069700  0.50000000  0.34346400  1
  O  O129  1  0.85930300  0.00000000  0.65653600  1
  O  O130  1  0.82932250  0.70540050  0.97975300  1
  O  O131  1  0.58477650  0.73592650  0.26215000  1
  O  O132  1  0.94775900  0.00000000  0.04614000  1
  O  O133  1  0.58477650  0.26407350  0.26215000  1
  O  O134  1  0.66695700  0.26523800  0.80968800  1
  O  O135  1  0.75433250  0.21508050  0.82624200  1
  O  O136  1  0.69580250  0.72117550  0.63125500  1
  O  O137  1  0.50235450  0.73448450  0.84476700  1
  O  O138  1  0.68368000  0.50000000  0.08659000  1
  O  O139  1  0.56005850  0.78121250  0.04415400  1
  O  O140  1  0.55224100  0.50000000  0.95386000  1
  O  O141  1  0.79041200  0.50000000  0.44552700  1
  O  O142  1  0.80419750  0.77882450  0.36874500  1
  O  O143  1  0.56005850  0.21878750  0.04415400  1
  O  O144  1  0.77975700  0.00000000  0.21621100  1
  O  O145  1  0.74566750  0.71508050  0.17375800  1
  O  O146  1  0.75000000  0.75000000  0.50000000  1
  O  O147  1  0.83304300  0.76523800  0.19031200  1
  O  O148  1  0.63385600  0.00000000  0.86461600  1
  O  O149  1  0.69580250  0.27882450  0.63125500  1
  O  O150  1  0.59152600  0.26958600  0.87069800  1
  O  O151  1  0.90847400  0.76958600  0.12930200  1
  O  O152  1  0.54449200  0.00000000  0.17825500  1
  O  O153  1  0.81632000  0.00000000  0.91341000  1
  O  O154  1  0.67067750  0.20540050  0.02024700  1
  O  O155  1  0.83996150  0.71303150  0.57914900  1
  O  O156  1  0.66573150  0.71942350  0.22024200  1
  O  O157  1  0.91522350  0.76407350  0.73785000  1
  O  O158  1  0.83996150  0.28696850  0.57914900  1
  O  O159  1  0.75433250  0.78491950  0.82624200  1
  O  O160  1  0.95550800  0.50000000  0.82174500  1
  O  O161  1  0.66003850  0.78696850  0.42085100  1
  O  O162  1  0.83426850  0.78057650  0.77975800  1
  O  O163  1  0.66695700  0.73476200  0.80968800  1
  O  O164  1  0.99764550  0.23448450  0.15523300  1
  O  O165  1  0.90847400  0.23041400  0.12930200  1
  O  O166  1  0.75000000  0.25000000  0.50000000  1
  O  O167  1  0.66573150  0.28057650  0.22024200  1
