# generated using pymatgen
data_U2Tl2Mo3O16
_symmetry_space_group_name_H-M   'P 1'
_cell_length_a   8.41481600
_cell_length_b   9.87165600
_cell_length_c   20.40551500
_cell_angle_alpha   90.00000000
_cell_angle_beta   90.00000000
_cell_angle_gamma   90.00000000
_symmetry_Int_Tables_number   1
_chemical_formula_structural   U2Tl2Mo3O16
_chemical_formula_sum   'U8 Tl8 Mo12 O64'
_cell_volume   1695.04876560
_cell_formula_units_Z   4
loop_
 _symmetry_equiv_pos_site_id
 _symmetry_equiv_pos_as_xyz
  1  'x, y, z'
loop_
 _atom_site_type_symbol
 _atom_site_label
 _atom_site_symmetry_multiplicity
 _atom_site_fract_x
 _atom_site_fract_y
 _atom_site_fract_z
 _atom_site_occupancy
  U  U0  1  0.32588400  0.67513900  0.52371800  1
  U  U1  1  0.82588400  0.17513900  0.97628200  1
  U  U2  1  0.71117100  0.59451900  0.78307700  1
  U  U3  1  0.78882900  0.59451900  0.28307700  1
  U  U4  1  0.67411600  0.17513900  0.47628200  1
  U  U5  1  0.28882900  0.09451900  0.21692300  1
  U  U6  1  0.17411600  0.67513900  0.02371800  1
  U  U7  1  0.21117100  0.09451900  0.71692300  1
  Tl  Tl8  1  0.01875300  0.89202000  0.39402800  1
  Tl  Tl9  1  0.18909400  0.44005600  0.85316600  1
  Tl  Tl10  1  0.68909400  0.94005600  0.64683400  1
  Tl  Tl11  1  0.48124700  0.89202000  0.89402800  1
  Tl  Tl12  1  0.81090600  0.94005600  0.14683400  1
  Tl  Tl13  1  0.51875300  0.39202000  0.10597200  1
  Tl  Tl14  1  0.98124700  0.39202000  0.60597200  1
  Tl  Tl15  1  0.31090600  0.44005600  0.35316600  1
  Mo  Mo16  1  0.26087800  0.06187800  0.03032600  1
  Mo  Mo17  1  0.51159900  0.37475500  0.63447300  1
  Mo  Mo18  1  0.76087800  0.56187800  0.46967400  1
  Mo  Mo19  1  0.42934700  0.73319100  0.19012300  1
  Mo  Mo20  1  0.01159900  0.87475500  0.86552700  1
  Mo  Mo21  1  0.98840100  0.37475500  0.13447300  1
  Mo  Mo22  1  0.23912200  0.06187800  0.53032600  1
  Mo  Mo23  1  0.92934700  0.23319100  0.30987700  1
  Mo  Mo24  1  0.48840100  0.87475500  0.36552700  1
  Mo  Mo25  1  0.57065300  0.23319100  0.80987700  1
  Mo  Mo26  1  0.73912200  0.56187800  0.96967400  1
  Mo  Mo27  1  0.07065300  0.73319100  0.69012300  1
  O  O28  1  0.54687600  0.57702700  0.46665000  1
  O  O29  1  0.37038100  0.98162900  0.31445600  1
  O  O30  1  0.67178600  0.16888800  0.88220500  1
  O  O31  1  0.02107300  0.76899400  0.06702200  1
  O  O32  1  0.62260800  0.77777200  0.31575200  1
  O  O33  1  0.32069700  0.68546400  0.25939900  1
  O  O34  1  0.82973800  0.65012200  0.53785700  1
  O  O35  1  0.62961900  0.48162900  0.68554400  1
  O  O36  1  0.37739200  0.27777200  0.68424800  1
  O  O37  1  0.34473400  0.13509300  0.10542300  1
  O  O38  1  0.37688100  0.15363400  0.80680200  1
  O  O39  1  0.64343900  0.27121200  0.58631300  1
  O  O40  1  0.36864900  0.97405300  0.69606000  1
  O  O41  1  0.87688100  0.65363400  0.69319800  1
  O  O42  1  0.03820900  0.91613300  0.68703400  1
  O  O43  1  0.39250000  0.47387700  0.57955900  1
  O  O44  1  0.86864900  0.47405300  0.80394000  1
  O  O45  1  0.95312400  0.57702700  0.96665000  1
  O  O46  1  0.82453400  0.07474600  0.51890900  1
  O  O47  1  0.68339800  0.38434900  0.98130300  1
  O  O48  1  0.47892700  0.76899400  0.56702200  1
  O  O49  1  0.06294000  0.22299000  0.73517000  1
  O  O50  1  0.45312400  0.07702700  0.53335000  1
  O  O51  1  0.82821400  0.16888800  0.38220500  1
  O  O52  1  0.18339800  0.88434900  0.51869700  1
  O  O53  1  0.67546600  0.07474600  0.01890900  1
  O  O54  1  0.17546600  0.57474600  0.48109100  1
  O  O55  1  0.82069700  0.18546400  0.24060100  1
  O  O56  1  0.13135100  0.97405300  0.19606000  1
  O  O57  1  0.31660200  0.88434900  0.01869700  1
  O  O58  1  0.97892700  0.26899400  0.93297800  1
  O  O59  1  0.32973800  0.15012200  0.96214300  1
  O  O60  1  0.67930300  0.18546400  0.74060100  1
  O  O61  1  0.35656100  0.77121200  0.41368700  1
  O  O62  1  0.17026200  0.15012200  0.46214300  1
  O  O63  1  0.17178600  0.66888800  0.61779500  1
  O  O64  1  0.32821400  0.66888800  0.11779500  1
  O  O65  1  0.62311900  0.65363400  0.19319800  1
  O  O66  1  0.12260800  0.27777200  0.18424800  1
  O  O67  1  0.15526600  0.13509300  0.60542300  1
  O  O68  1  0.89250000  0.97387700  0.92044100  1
  O  O69  1  0.96179100  0.41613300  0.31296600  1
  O  O70  1  0.43706000  0.22299000  0.23517000  1
  O  O71  1  0.93706000  0.72299000  0.26483000  1
  O  O72  1  0.32453400  0.57474600  0.98109100  1
  O  O73  1  0.04687600  0.07702700  0.03335000  1
  O  O74  1  0.52107300  0.26899400  0.43297800  1
  O  O75  1  0.46179100  0.91613300  0.18703400  1
  O  O76  1  0.84473400  0.63509300  0.39457700  1
  O  O77  1  0.12311900  0.15363400  0.30680200  1
  O  O78  1  0.12961900  0.98162900  0.81445600  1
  O  O79  1  0.81660200  0.38434900  0.48130300  1
  O  O80  1  0.60750000  0.97387700  0.42044100  1
  O  O81  1  0.87739200  0.77777200  0.81575200  1
  O  O82  1  0.65526600  0.63509300  0.89457700  1
  O  O83  1  0.85656100  0.27121200  0.08631300  1
  O  O84  1  0.14343900  0.77121200  0.91368700  1
  O  O85  1  0.56294000  0.72299000  0.76483000  1
  O  O86  1  0.87038100  0.48162900  0.18554400  1
  O  O87  1  0.17930300  0.68546400  0.75939900  1
  O  O88  1  0.63135100  0.47405300  0.30394000  1
  O  O89  1  0.67026200  0.65012200  0.03785700  1
  O  O90  1  0.10750000  0.47387700  0.07955900  1
  O  O91  1  0.53820900  0.41613300  0.81296600  1
