# generated using pymatgen
data_Nd2PbS4
_symmetry_space_group_name_H-M   'P 1'
_cell_length_a   8.68609400
_cell_length_b   8.68609400
_cell_length_c   8.66716200
_cell_angle_alpha   90.00000000
_cell_angle_beta   90.00000000
_cell_angle_gamma   90.00000000
_symmetry_Int_Tables_number   1
_chemical_formula_structural   Nd2PbS4
_chemical_formula_sum   'Nd8 Pb4 S16'
_cell_volume   653.92202316
_cell_formula_units_Z   4
loop_
 _symmetry_equiv_pos_site_id
 _symmetry_equiv_pos_as_xyz
  1  'x, y, z'
loop_
 _atom_site_type_symbol
 _atom_site_label
 _atom_site_symmetry_multiplicity
 _atom_site_fract_x
 _atom_site_fract_y
 _atom_site_fract_z
 _atom_site_occupancy
  Nd  Nd0  1  0.75000000  0.63128800  0.12500000  1
  Nd  Nd1  1  0.86871200  0.25000000  0.37500000  1
  Nd  Nd2  1  0.75000000  0.86871200  0.62500000  1
  Nd  Nd3  1  0.63128800  0.25000000  0.87500000  1
  Nd  Nd4  1  0.25000000  0.13128800  0.62500000  1
  Nd  Nd5  1  0.36871200  0.75000000  0.87500000  1
  Nd  Nd6  1  0.25000000  0.36871200  0.12500000  1
  Nd  Nd7  1  0.13128800  0.75000000  0.37500000  1
  Pb  Pb8  1  0.50000000  0.00000000  0.25000000  1
  Pb  Pb9  1  0.50000000  0.50000000  0.50000000  1
  Pb  Pb10  1  0.00000000  0.50000000  0.75000000  1
  Pb  Pb11  1  0.00000000  0.00000000  0.00000000  1
  S  S12  1  0.67162800  0.92394800  0.94118100  1
  S  S13  1  0.92394800  0.17162800  0.69118100  1
  S  S14  1  0.57605200  0.17162800  0.55881900  1
  S  S15  1  0.57605200  0.32837200  0.19118100  1
  S  S16  1  0.92394800  0.32837200  0.05881900  1
  S  S17  1  0.82837200  0.57605200  0.44118100  1
  S  S18  1  0.32837200  0.42394800  0.80881900  1
  S  S19  1  0.17162800  0.07605200  0.30881900  1
  S  S20  1  0.17162800  0.42394800  0.44118100  1
  S  S21  1  0.42394800  0.67162800  0.19118100  1
  S  S22  1  0.07605200  0.67162800  0.05881900  1
  S  S23  1  0.07605200  0.82837200  0.69118100  1
  S  S24  1  0.42394800  0.82837200  0.55881900  1
  S  S25  1  0.32837200  0.07605200  0.94118100  1
  S  S26  1  0.82837200  0.92394800  0.30881900  1
  S  S27  1  0.67162800  0.57605200  0.80881900  1
