# generated using pymatgen
data_CdI2
_symmetry_space_group_name_H-M   'P 1'
_cell_length_a   4.36056622
_cell_length_b   4.36056622
_cell_length_c   109.02190906
_cell_angle_alpha   90.00000000
_cell_angle_beta   90.00000000
_cell_angle_gamma   120.00000000
_symmetry_Int_Tables_number   1
_chemical_formula_structural   CdI2
_chemical_formula_sum   'Cd15 I30'
_cell_volume   1795.27170993
_cell_formula_units_Z   15
loop_
 _symmetry_equiv_pos_site_id
 _symmetry_equiv_pos_as_xyz
  1  'x, y, z'
loop_
 _atom_site_type_symbol
 _atom_site_label
 _atom_site_symmetry_multiplicity
 _atom_site_fract_x
 _atom_site_fract_y
 _atom_site_fract_z
 _atom_site_occupancy
  Cd  Cd0  1  0.00000000  0.00000000  0.31666100  1
  Cd  Cd1  1  0.00000000  0.00000000  0.11664600  1
  Cd  Cd2  1  0.66666667  0.33333333  0.05001833  1
  Cd  Cd3  1  0.66666667  0.33333333  0.18334733  1
  Cd  Cd4  1  0.00000000  0.00000000  0.24999900  1
  Cd  Cd5  1  0.66666667  0.33333333  0.64999433  1
  Cd  Cd6  1  0.66666667  0.33333333  0.44997933  1
  Cd  Cd7  1  0.33333333  0.66666667  0.38335167  1
  Cd  Cd8  1  0.33333333  0.66666667  0.51668067  1
  Cd  Cd9  1  0.66666667  0.33333333  0.58333233  1
  Cd  Cd10  1  0.33333333  0.66666667  0.98332767  1
  Cd  Cd11  1  0.33333333  0.66666667  0.78331267  1
  Cd  Cd12  1  0.00000000  0.00000000  0.71668500  1
  Cd  Cd13  1  0.00000000  0.00000000  0.85001400  1
  Cd  Cd14  1  0.33333333  0.66666667  0.91666567  1
  I  I15  1  0.33333333  0.66666667  0.30090567  1
  I  I16  1  0.33333333  0.66666667  0.23424267  1
  I  I17  1  0.00000000  0.00000000  0.19909900  1
  I  I18  1  0.66666667  0.33333333  0.13241333  1
  I  I19  1  0.33333333  0.66666667  0.03424567  1
  I  I20  1  0.33333333  0.66666667  0.10089267  1
  I  I21  1  0.66666667  0.33333333  0.33242433  1
  I  I22  1  0.33333333  0.66666667  0.16757967  1
  I  I23  1  0.00000000  0.00000000  0.06577000  1
  I  I24  1  0.66666667  0.33333333  0.26575633  1
  I  I25  1  0.00000000  0.00000000  0.63423900  1
  I  I26  1  0.00000000  0.00000000  0.56757600  1
  I  I27  1  0.66666667  0.33333333  0.53243233  1
  I  I28  1  0.33333333  0.66666667  0.46574667  1
  I  I29  1  0.00000000  0.00000000  0.36757900  1
  I  I30  1  0.00000000  0.00000000  0.43422600  1
  I  I31  1  0.33333333  0.66666667  0.66575767  1
  I  I32  1  0.00000000  0.00000000  0.50091300  1
  I  I33  1  0.66666667  0.33333333  0.39910333  1
  I  I34  1  0.33333333  0.66666667  0.59908967  1
  I  I35  1  0.66666667  0.33333333  0.96757233  1
  I  I36  1  0.66666667  0.33333333  0.90090933  1
  I  I37  1  0.33333333  0.66666667  0.86576567  1
  I  I38  1  0.00000000  0.00000000  0.79908000  1
  I  I39  1  0.66666667  0.33333333  0.70091233  1
  I  I40  1  0.66666667  0.33333333  0.76755933  1
  I  I41  1  0.00000000  0.00000000  0.99909100  1
  I  I42  1  0.66666667  0.33333333  0.83424633  1
  I  I43  1  0.33333333  0.66666667  0.73243667  1
  I  I44  1  0.00000000  0.00000000  0.93242300  1
