# generated using pymatgen
data_K6BiH3(Cl2F)4
_symmetry_space_group_name_H-M   'P 1'
_cell_length_a   9.22716425
_cell_length_b   9.22716425
_cell_length_c   14.72524300
_cell_angle_alpha   90.00000000
_cell_angle_beta   90.00000000
_cell_angle_gamma   120.00000000
_symmetry_Int_Tables_number   1
_chemical_formula_structural   K6BiH3(Cl2F)4
_chemical_formula_sum   'K12 Bi2 H6 Cl16 F8'
_cell_volume   1085.74941656
_cell_formula_units_Z   2
loop_
 _symmetry_equiv_pos_site_id
 _symmetry_equiv_pos_as_xyz
  1  'x, y, z'
loop_
 _atom_site_type_symbol
 _atom_site_label
 _atom_site_symmetry_multiplicity
 _atom_site_fract_x
 _atom_site_fract_y
 _atom_site_fract_z
 _atom_site_occupancy
  K  K0  1  0.99512600  0.49756300  0.49228600  1
  K  K1  1  0.50243700  0.49756300  0.49228600  1
  K  K2  1  0.50243700  0.00487400  0.49228600  1
  K  K3  1  0.00487400  0.50243700  0.99228600  1
  K  K4  1  0.49756300  0.50243700  0.99228600  1
  K  K5  1  0.49756300  0.99512600  0.99228600  1
  K  K6  1  0.64249500  0.82124750  0.24638600  1
  K  K7  1  0.17875250  0.82124750  0.24638600  1
  K  K8  1  0.17875250  0.35750500  0.24638600  1
  K  K9  1  0.35750500  0.17875250  0.74638600  1
  K  K10  1  0.82124750  0.17875250  0.74638600  1
  K  K11  1  0.82124750  0.64249500  0.74638600  1
  Bi  Bi12  1  0.00000000  0.00000000  0.99851000  1
  Bi  Bi13  1  0.00000000  0.00000000  0.49851000  1
  H  H14  1  0.15940500  0.57970250  0.74498000  1
  H  H15  1  0.42029750  0.57970250  0.74498000  1
  H  H16  1  0.42029750  0.84059500  0.74498000  1
  H  H17  1  0.84059500  0.42029750  0.24498000  1
  H  H18  1  0.57970250  0.42029750  0.24498000  1
  H  H19  1  0.57970250  0.15940500  0.24498000  1
  Cl  Cl20  1  0.71875600  0.85937800  0.89120500  1
  Cl  Cl21  1  0.14062200  0.85937800  0.89120500  1
  Cl  Cl22  1  0.14062200  0.28124400  0.89120500  1
  Cl  Cl23  1  0.28124400  0.14062200  0.39120500  1
  Cl  Cl24  1  0.85937800  0.14062200  0.39120500  1
  Cl  Cl25  1  0.85937800  0.71875600  0.39120500  1
  Cl  Cl26  1  0.72120600  0.86060300  0.60544900  1
  Cl  Cl27  1  0.13939700  0.86060300  0.60544900  1
  Cl  Cl28  1  0.13939700  0.27879400  0.60544900  1
  Cl  Cl29  1  0.27879400  0.13939700  0.10544900  1
  Cl  Cl30  1  0.86060300  0.13939700  0.10544900  1
  Cl  Cl31  1  0.86060300  0.72120600  0.10544900  1
  Cl  Cl32  1  0.33333333  0.66666667  0.10230900  1
  Cl  Cl33  1  0.66666667  0.33333333  0.60230900  1
  Cl  Cl34  1  0.33333333  0.66666667  0.38980600  1
  Cl  Cl35  1  0.66666667  0.33333333  0.88980600  1
  F  F36  1  0.33333333  0.66666667  0.75600200  1
  F  F37  1  0.66666667  0.33333333  0.25600200  1
  F  F38  1  0.03359000  0.51679500  0.73781900  1
  F  F39  1  0.48320500  0.51679500  0.73781900  1
  F  F40  1  0.48320500  0.96641000  0.73781900  1
  F  F41  1  0.96641000  0.48320500  0.23781900  1
  F  F42  1  0.51679500  0.48320500  0.23781900  1
  F  F43  1  0.51679500  0.03359000  0.23781900  1
