# generated using pymatgen
data_Fe4Si2Sn7O16
_symmetry_space_group_name_H-M   'P 1'
_cell_length_a   6.94097331
_cell_length_b   6.94097331
_cell_length_c   9.40632302
_cell_angle_alpha   90.00000000
_cell_angle_beta   90.00000000
_cell_angle_gamma   120.00000000
_symmetry_Int_Tables_number   1
_chemical_formula_structural   Fe4Si2Sn7O16
_chemical_formula_sum   'Fe4 Si2 Sn7 O16'
_cell_volume   392.45626808
_cell_formula_units_Z   1
loop_
 _symmetry_equiv_pos_site_id
 _symmetry_equiv_pos_as_xyz
  1  'x, y, z'
loop_
 _atom_site_type_symbol
 _atom_site_label
 _atom_site_symmetry_multiplicity
 _atom_site_fract_x
 _atom_site_fract_y
 _atom_site_fract_z
 _atom_site_occupancy
  Fe  Fe0  1  0.50000000  0.50000000  0.50000000  1
  Fe  Fe1  1  0.50000000  0.00000000  0.50000000  1
  Fe  Fe2  1  0.00000000  0.50000000  0.50000000  1
  Fe  Fe3  1  0.00000000  0.00000000  0.00000000  1
  Si  Si4  1  0.66666667  0.33333333  0.23714675  1
  Si  Si5  1  0.33333333  0.66666667  0.76285325  1
  Sn  Sn6  1  0.00000000  0.00000000  0.50000000  1
  Sn  Sn7  1  0.83437425  0.16562575  0.83472625  1
  Sn  Sn8  1  0.33125150  0.16562575  0.83472625  1
  Sn  Sn9  1  0.83437425  0.66874850  0.83472625  1
  Sn  Sn10  1  0.16562575  0.33125150  0.16527375  1
  Sn  Sn11  1  0.66874850  0.83437425  0.16527375  1
  Sn  Sn12  1  0.16562575  0.83437425  0.16527375  1
  O  O13  1  0.66666667  0.33333333  0.86989275  1
  O  O14  1  0.33333333  0.66666667  0.13010725  1
  O  O15  1  0.33333333  0.66666667  0.58514975  1
  O  O16  1  0.66666667  0.33333333  0.41485025  1
  O  O17  1  0.53723400  0.46276600  0.18508175  1
  O  O18  1  0.92553200  0.46276600  0.18508175  1
  O  O19  1  0.46276600  0.53723400  0.81491825  1
  O  O20  1  0.53723400  0.07446800  0.18508175  1
  O  O21  1  0.46276600  0.92553200  0.81491825  1
  O  O22  1  0.07446800  0.53723400  0.81491825  1
  O  O23  1  0.69078550  0.84539275  0.38728575  1
  O  O24  1  0.84539275  0.15460725  0.61271425  1
  O  O25  1  0.15460725  0.84539275  0.38728575  1
  O  O26  1  0.15460725  0.30921450  0.38728575  1
  O  O27  1  0.30921450  0.15460725  0.61271425  1
  O  O28  1  0.84539275  0.69078550  0.61271425  1
