# generated using pymatgen
data_Sr6Bi2O11
_symmetry_space_group_name_H-M   'P 1'
_cell_length_a   8.74451500
_cell_length_b   8.74451500
_cell_length_c   9.12996800
_cell_angle_alpha   90.00000000
_cell_angle_beta   90.00000000
_cell_angle_gamma   90.00000000
_symmetry_Int_Tables_number   1
_chemical_formula_structural   Sr6Bi2O11
_chemical_formula_sum   'Sr12 Bi4 O22'
_cell_volume   698.13708687
_cell_formula_units_Z   2
loop_
 _symmetry_equiv_pos_site_id
 _symmetry_equiv_pos_as_xyz
  1  'x, y, z'
loop_
 _atom_site_type_symbol
 _atom_site_label
 _atom_site_symmetry_multiplicity
 _atom_site_fract_x
 _atom_site_fract_y
 _atom_site_fract_z
 _atom_site_occupancy
  Sr  Sr0  1  0.27740100  0.77740100  0.79247900  1
  Sr  Sr1  1  0.27740100  0.22259900  0.79247900  1
  Sr  Sr2  1  0.22259900  0.27740100  0.20752100  1
  Sr  Sr3  1  0.22259900  0.72259900  0.20752100  1
  Sr  Sr4  1  0.50000000  0.50000000  0.50000000  1
  Sr  Sr5  1  0.72259900  0.22259900  0.79247900  1
  Sr  Sr6  1  0.50000000  0.00000000  0.06901900  1
  Sr  Sr7  1  0.72259900  0.77740100  0.79247900  1
  Sr  Sr8  1  0.77740100  0.72259900  0.20752100  1
  Sr  Sr9  1  0.77740100  0.27740100  0.20752100  1
  Sr  Sr10  1  0.00000000  0.00000000  0.50000000  1
  Sr  Sr11  1  0.00000000  0.50000000  0.93098100  1
  Bi  Bi12  1  0.00000000  0.00000000  0.00000000  1
  Bi  Bi13  1  0.50000000  0.00000000  0.54056400  1
  Bi  Bi14  1  0.50000000  0.50000000  0.00000000  1
  Bi  Bi15  1  0.00000000  0.50000000  0.45943600  1
  O  O16  1  0.25356400  0.50000000  0.01613900  1
  O  O17  1  0.50000000  0.74643600  0.98386100  1
  O  O18  1  0.27022300  0.00000000  0.61411200  1
  O  O19  1  0.22977700  0.50000000  0.38588800  1
  O  O20  1  0.50000000  0.22977700  0.61411200  1
  O  O21  1  0.00000000  0.75356400  0.01613900  1
  O  O22  1  0.75356400  0.00000000  0.98386100  1
  O  O23  1  0.50000000  0.50000000  0.22898100  1
  O  O24  1  0.50000000  0.50000000  0.77101900  1
  O  O25  1  0.24643600  0.00000000  0.98386100  1
  O  O26  1  0.00000000  0.24643600  0.01613900  1
  O  O27  1  0.50000000  0.77022300  0.61411200  1
  O  O28  1  0.77022300  0.50000000  0.38588800  1
  O  O29  1  0.50000000  0.00000000  0.31730100  1
  O  O30  1  0.00000000  0.50000000  0.68269900  1
  O  O31  1  0.72977700  0.00000000  0.61411200  1
  O  O32  1  0.00000000  0.72977700  0.38588800  1
  O  O33  1  0.50000000  0.25356400  0.98386100  1
  O  O34  1  0.00000000  0.00000000  0.22898100  1
  O  O35  1  0.00000000  0.00000000  0.77101900  1
  O  O36  1  0.74643600  0.50000000  0.01613900  1
  O  O37  1  0.00000000  0.27022300  0.38588800  1
