# generated using pymatgen
data_Ba2NdNbO6
_symmetry_space_group_name_H-M   'P 1'
_cell_length_a   10.59050400
_cell_length_b   6.12826800
_cell_length_c   6.17854721
_cell_angle_alpha   90.00000000
_cell_angle_beta   125.23354985
_cell_angle_gamma   90.00000000
_symmetry_Int_Tables_number   1
_chemical_formula_structural   Ba2NdNbO6
_chemical_formula_sum   'Ba4 Nd2 Nb2 O12'
_cell_volume   327.53696317
_cell_formula_units_Z   2
loop_
 _symmetry_equiv_pos_site_id
 _symmetry_equiv_pos_as_xyz
  1  'x, y, z'
loop_
 _atom_site_type_symbol
 _atom_site_label
 _atom_site_symmetry_multiplicity
 _atom_site_fract_x
 _atom_site_fract_y
 _atom_site_fract_z
 _atom_site_occupancy
  Ba  Ba0  1  0.24842400  0.00000000  0.74262700  1
  Ba  Ba1  1  0.25157600  0.50000000  0.25737300  1
  Ba  Ba2  1  0.74842400  0.50000000  0.74262700  1
  Ba  Ba3  1  0.75157600  0.00000000  0.25737300  1
  Nd  Nd4  1  0.00000000  0.00000000  0.00000000  1
  Nd  Nd5  1  0.50000000  0.50000000  0.00000000  1
  Nb  Nb6  1  0.50000000  0.00000000  0.50000000  1
  Nb  Nb7  1  0.00000000  0.50000000  0.50000000  1
  O  O8  1  0.03494950  0.73359350  0.30545900  1
  O  O9  1  0.96505050  0.73359350  0.69454100  1
  O  O10  1  0.46505050  0.76640650  0.69454100  1
  O  O11  1  0.53494950  0.76640650  0.30545900  1
  O  O12  1  0.73037700  0.00000000  0.79481400  1
  O  O13  1  0.76962300  0.50000000  0.20518600  1
  O  O14  1  0.53494950  0.23359350  0.30545900  1
  O  O15  1  0.46505050  0.23359350  0.69454100  1
  O  O16  1  0.96505050  0.26640650  0.69454100  1
  O  O17  1  0.03494950  0.26640650  0.30545900  1
  O  O18  1  0.23037700  0.50000000  0.79481400  1
  O  O19  1  0.26962300  0.00000000  0.20518600  1
