# generated using pymatgen
data_CaH12(IO7)2
_symmetry_space_group_name_H-M   'P 1'
_cell_length_a   20.09315600
_cell_length_b   5.77431600
_cell_length_c   11.69710388
_cell_angle_alpha   90.00000000
_cell_angle_beta   121.10526300
_cell_angle_gamma   90.00000000
_symmetry_Int_Tables_number   1
_chemical_formula_structural   CaH12(IO7)2
_chemical_formula_sum   'Ca4 H48 I8 O56'
_cell_volume   1162.01633232
_cell_formula_units_Z   4
loop_
 _symmetry_equiv_pos_site_id
 _symmetry_equiv_pos_as_xyz
  1  'x, y, z'
loop_
 _atom_site_type_symbol
 _atom_site_label
 _atom_site_symmetry_multiplicity
 _atom_site_fract_x
 _atom_site_fract_y
 _atom_site_fract_z
 _atom_site_occupancy
  Ca  Ca0  1  0.00000000  0.58736900  0.75000000  1
  Ca  Ca1  1  0.00000000  0.41263100  0.25000000  1
  Ca  Ca2  1  0.50000000  0.08736900  0.75000000  1
  Ca  Ca3  1  0.50000000  0.91263100  0.25000000  1
  H  H4  1  0.75761500  0.60929800  0.18245400  1
  H  H5  1  0.74238500  0.10929800  0.31754600  1
  H  H6  1  0.24238500  0.39070200  0.81754600  1
  H  H7  1  0.25761500  0.89070200  0.68245400  1
  H  H8  1  0.16847500  0.34429400  0.98222900  1
  H  H9  1  0.83152500  0.34429400  0.51777100  1
  H  H10  1  0.83152500  0.65570600  0.01777100  1
  H  H11  1  0.16847500  0.65570600  0.48222900  1
  H  H12  1  0.04571000  0.73935500  0.55107900  1
  H  H13  1  0.45429000  0.23935500  0.94892100  1
  H  H14  1  0.95429000  0.26064500  0.44892100  1
  H  H15  1  0.54571000  0.76064500  0.05107900  1
  H  H16  1  0.12147900  0.78332600  0.69463800  1
  H  H17  1  0.37852100  0.28332600  0.80536200  1
  H  H18  1  0.87852100  0.21667400  0.30536200  1
  H  H19  1  0.62147900  0.71667400  0.19463800  1
  H  H20  1  0.42411900  0.77739400  0.85088300  1
  H  H21  1  0.07588100  0.27739400  0.64911700  1
  H  H22  1  0.57588100  0.22260600  0.14911700  1
  H  H23  1  0.92411900  0.72260600  0.35088300  1
  H  H24  1  0.98669150  0.11022550  0.85552300  1
  H  H25  1  0.01330850  0.11022550  0.64447700  1
  H  H26  1  0.01330850  0.88977450  0.14447700  1
  H  H27  1  0.98669150  0.88977450  0.35552300  1
  H  H28  1  0.25761500  0.10929800  0.18245400  1
  H  H29  1  0.24238500  0.60929800  0.31754600  1
  H  H30  1  0.74238500  0.89070200  0.81754600  1
  H  H31  1  0.75761500  0.39070200  0.68245400  1
  H  H32  1  0.66847500  0.84429400  0.98222900  1
  H  H33  1  0.33152500  0.84429400  0.51777100  1
  H  H34  1  0.33152500  0.15570600  0.01777100  1
  H  H35  1  0.66847500  0.15570600  0.48222900  1
  H  H36  1  0.54571000  0.23935500  0.55107900  1
  H  H37  1  0.95429000  0.73935500  0.94892100  1
  H  H38  1  0.45429000  0.76064500  0.44892100  1
  H  H39  1  0.04571000  0.26064500  0.05107900  1
  H  H40  1  0.62147900  0.28332600  0.69463800  1
  H  H41  1  0.87852100  0.78332600  0.80536200  1
  H  H42  1  0.37852100  0.71667400  0.30536200  1
  H  H43  1  0.12147900  0.21667400  0.19463800  1
  H  H44  1  0.92411900  0.27739400  0.85088300  1
  H  H45  1  0.57588100  0.77739400  0.64911700  1
  H  H46  1  0.07588100  0.72260600  0.14911700  1
  H  H47  1  0.42411900  0.22260600  0.35088300  1
  H  H48  1  0.48669150  0.61022550  0.85552300  1
  H  H49  1  0.51330850  0.61022550  0.64447700  1
  H  H50  1  0.51330850  0.38977450  0.14447700  1
  H  H51  1  0.48669150  0.38977450  0.35552300  1
  I  I52  1  0.67915700  0.27780700  0.02366600  1
  I  I53  1  0.82084300  0.77780700  0.47633400  1
  I  I54  1  0.32084300  0.72219300  0.97633400  1
  I  I55  1  0.17915700  0.22219300  0.52366600  1
  I  I56  1  0.17915700  0.77780700  0.02366600  1
  I  I57  1  0.32084300  0.27780700  0.47633400  1
  I  I58  1  0.82084300  0.22219300  0.97633400  1
  I  I59  1  0.67915700  0.72219300  0.52366600  1
  O  O60  1  0.08396350  0.88895250  0.90501800  1
  O  O61  1  0.91603650  0.88895250  0.59498200  1
  O  O62  1  0.91603650  0.11104750  0.09498200  1
  O  O63  1  0.08396350  0.11104750  0.40501800  1
  O  O64  1  0.67060650  0.19009150  0.16553900  1
  O  O65  1  0.82939350  0.69009150  0.33446100  1
  O  O66  1  0.32939350  0.80990850  0.83446100  1
  O  O67  1  0.17060650  0.30990850  0.66553900  1
  O  O68  1  0.71285200  0.59384000  0.08684700  1
  O  O69  1  0.78714800  0.09384000  0.41315300  1
  O  O70  1  0.28714800  0.40616000  0.91315300  1
  O  O71  1  0.21285200  0.90616000  0.58684700  1
  O  O72  1  0.13963350  0.48155050  0.92763400  1
  O  O73  1  0.86036650  0.48155050  0.57236600  1
  O  O74  1  0.86036650  0.51844950  0.07236600  1
  O  O75  1  0.13963350  0.51844950  0.42763400  1
  O  O76  1  0.21292450  0.84025650  0.88671100  1
  O  O77  1  0.28707550  0.34025650  0.61328900  1
  O  O78  1  0.78707550  0.15974350  0.11328900  1
  O  O79  1  0.71292450  0.65974350  0.38671100  1
  O  O80  1  0.06492650  0.77062650  0.64637100  1
  O  O81  1  0.93507350  0.77062650  0.85362900  1
  O  O82  1  0.93507350  0.22937350  0.35362900  1
  O  O83  1  0.06492650  0.22937350  0.14637100  1
  O  O84  1  0.97789500  0.27399100  0.86725300  1
  O  O85  1  0.02210500  0.27399100  0.63274700  1
  O  O86  1  0.02210500  0.72600900  0.13274700  1
  O  O87  1  0.97789500  0.72600900  0.36725300  1
  O  O88  1  0.58396350  0.38895250  0.90501800  1
  O  O89  1  0.41603650  0.38895250  0.59498200  1
  O  O90  1  0.41603650  0.61104750  0.09498200  1
  O  O91  1  0.58396350  0.61104750  0.40501800  1
  O  O92  1  0.17060650  0.69009150  0.16553900  1
  O  O93  1  0.32939350  0.19009150  0.33446100  1
  O  O94  1  0.82939350  0.30990850  0.83446100  1
  O  O95  1  0.67060650  0.80990850  0.66553900  1
  O  O96  1  0.21285200  0.09384000  0.08684700  1
  O  O97  1  0.28714800  0.59384000  0.41315300  1
  O  O98  1  0.78714800  0.90616000  0.91315300  1
  O  O99  1  0.71285200  0.40616000  0.58684700  1
  O  O100  1  0.63963350  0.98155050  0.92763400  1
  O  O101  1  0.36036650  0.98155050  0.57236600  1
  O  O102  1  0.36036650  0.01844950  0.07236600  1
  O  O103  1  0.63963350  0.01844950  0.42763400  1
  O  O104  1  0.71292450  0.34025650  0.88671100  1
  O  O105  1  0.78707550  0.84025650  0.61328900  1
  O  O106  1  0.28707550  0.65974350  0.11328900  1
  O  O107  1  0.21292450  0.15974350  0.38671100  1
  O  O108  1  0.56492650  0.27062650  0.64637100  1
  O  O109  1  0.43507350  0.27062650  0.85362900  1
  O  O110  1  0.43507350  0.72937350  0.35362900  1
  O  O111  1  0.56492650  0.72937350  0.14637100  1
  O  O112  1  0.47789500  0.77399100  0.86725300  1
  O  O113  1  0.52210500  0.77399100  0.63274700  1
  O  O114  1  0.52210500  0.22600900  0.13274700  1
  O  O115  1  0.47789500  0.22600900  0.36725300  1
