# generated using pymatgen
data_Sc3TaO7
_symmetry_space_group_name_H-M   'P 1'
_cell_length_a   7.15965200
_cell_length_b   13.74511600
_cell_length_c   5.10293100
_cell_angle_alpha   90.00000000
_cell_angle_beta   90.00000000
_cell_angle_gamma   90.00000000
_symmetry_Int_Tables_number   1
_chemical_formula_structural   Sc3TaO7
_chemical_formula_sum   'Sc12 Ta4 O28'
_cell_volume   502.18070146
_cell_formula_units_Z   4
loop_
 _symmetry_equiv_pos_site_id
 _symmetry_equiv_pos_as_xyz
  1  'x, y, z'
loop_
 _atom_site_type_symbol
 _atom_site_label
 _atom_site_symmetry_multiplicity
 _atom_site_fract_x
 _atom_site_fract_y
 _atom_site_fract_z
 _atom_site_occupancy
  Sc  Sc0  1  0.50000000  0.62574500  0.52763000  1
  Sc  Sc1  1  0.75000000  0.75000000  0.00000000  1
  Sc  Sc2  1  0.00000000  0.62574500  0.47237000  1
  Sc  Sc3  1  0.00000000  0.87425500  0.47237000  1
  Sc  Sc4  1  0.25000000  0.75000000  0.00000000  1
  Sc  Sc5  1  0.50000000  0.87425500  0.52763000  1
  Sc  Sc6  1  0.00000000  0.12574500  0.52763000  1
  Sc  Sc7  1  0.25000000  0.25000000  0.00000000  1
  Sc  Sc8  1  0.50000000  0.12574500  0.47237000  1
  Sc  Sc9  1  0.50000000  0.37425500  0.47237000  1
  Sc  Sc10  1  0.75000000  0.25000000  0.00000000  1
  Sc  Sc11  1  0.00000000  0.37425500  0.52763000  1
  Ta  Ta12  1  0.75000000  0.50000000  0.00000000  1
  Ta  Ta13  1  0.25000000  0.50000000  0.00000000  1
  Ta  Ta14  1  0.25000000  0.00000000  0.00000000  1
  Ta  Ta15  1  0.75000000  0.00000000  0.00000000  1
  O  O16  1  0.00000000  0.97846200  0.21974700  1
  O  O17  1  0.79630700  0.62734500  0.75786000  1
  O  O18  1  0.00000000  0.52153800  0.21974700  1
  O  O19  1  0.50000000  0.97846200  0.78025300  1
  O  O20  1  0.00000000  0.75000000  0.23597300  1
  O  O21  1  0.20369300  0.62734500  0.75786000  1
  O  O22  1  0.29630700  0.62734500  0.24214000  1
  O  O23  1  0.20369300  0.87265500  0.75786000  1
  O  O24  1  0.50000000  0.52153800  0.78025300  1
  O  O25  1  0.50000000  0.75000000  0.76402700  1
  O  O26  1  0.70369300  0.62734500  0.24214000  1
  O  O27  1  0.79630700  0.87265500  0.75786000  1
  O  O28  1  0.70369300  0.87265500  0.24214000  1
  O  O29  1  0.29630700  0.87265500  0.24214000  1
  O  O30  1  0.50000000  0.47846200  0.21974700  1
  O  O31  1  0.29630700  0.12734500  0.75786000  1
  O  O32  1  0.50000000  0.02153800  0.21974700  1
  O  O33  1  0.00000000  0.47846200  0.78025300  1
  O  O34  1  0.50000000  0.25000000  0.23597300  1
  O  O35  1  0.70369300  0.12734500  0.75786000  1
  O  O36  1  0.79630700  0.12734500  0.24214000  1
  O  O37  1  0.70369300  0.37265500  0.75786000  1
  O  O38  1  0.00000000  0.02153800  0.78025300  1
  O  O39  1  0.00000000  0.25000000  0.76402700  1
  O  O40  1  0.20369300  0.12734500  0.24214000  1
  O  O41  1  0.29630700  0.37265500  0.75786000  1
  O  O42  1  0.20369300  0.37265500  0.24214000  1
  O  O43  1  0.79630700  0.37265500  0.24214000  1
