# generated using pymatgen
data_K4Ba2N7O16
_symmetry_space_group_name_H-M   'P 1'
_cell_length_a   13.27739200
_cell_length_b   12.32589400
_cell_length_c   13.26655707
_cell_angle_alpha   90.00000000
_cell_angle_beta   119.71401847
_cell_angle_gamma   90.00000000
_symmetry_Int_Tables_number   1
_chemical_formula_structural   K4Ba2N7O16
_chemical_formula_sum   'K16 Ba8 N28 O64'
_cell_volume   1885.66435491
_cell_formula_units_Z   4
loop_
 _symmetry_equiv_pos_site_id
 _symmetry_equiv_pos_as_xyz
  1  'x, y, z'
loop_
 _atom_site_type_symbol
 _atom_site_label
 _atom_site_symmetry_multiplicity
 _atom_site_fract_x
 _atom_site_fract_y
 _atom_site_fract_z
 _atom_site_occupancy
  K  K0  1  0.15851050  0.75045550  0.83317000  1
  K  K1  1  0.65851050  0.74954450  0.83317000  1
  K  K2  1  0.34148950  0.74954450  0.16683000  1
  K  K3  1  0.84148950  0.75045550  0.16683000  1
  K  K4  1  0.82325250  0.24918650  0.66430700  1
  K  K5  1  0.82325250  0.75081350  0.66430700  1
  K  K6  1  0.67674750  0.25081350  0.33569300  1
  K  K7  1  0.67674750  0.74918650  0.33569300  1
  K  K8  1  0.65851050  0.25045550  0.83317000  1
  K  K9  1  0.15851050  0.24954450  0.83317000  1
  K  K10  1  0.84148950  0.24954450  0.16683000  1
  K  K11  1  0.34148950  0.25045550  0.16683000  1
  K  K12  1  0.32325250  0.74918650  0.66430700  1
  K  K13  1  0.32325250  0.25081350  0.66430700  1
  K  K14  1  0.17674750  0.75081350  0.33569300  1
  K  K15  1  0.17674750  0.24918650  0.33569300  1
  Ba  Ba16  1  0.00000000  0.00000000  0.00000000  1
  Ba  Ba17  1  0.00000000  0.00000000  0.50000000  1
  Ba  Ba18  1  0.00000000  0.50000000  0.00000000  1
  Ba  Ba19  1  0.50000000  0.00000000  0.50000000  1
  Ba  Ba20  1  0.50000000  0.50000000  0.00000000  1
  Ba  Ba21  1  0.50000000  0.50000000  0.50000000  1
  Ba  Ba22  1  0.50000000  0.00000000  0.00000000  1
  Ba  Ba23  1  0.00000000  0.50000000  0.50000000  1
  N  N24  1  0.98946700  0.00000000  0.73135400  1
  N  N25  1  0.51053300  0.50000000  0.26864600  1
  N  N26  1  0.25677800  0.50000000  0.76734600  1
  N  N27  1  0.24322200  0.00000000  0.23265400  1
  N  N28  1  0.50907100  0.00000000  0.26880600  1
  N  N29  1  0.99092900  0.50000000  0.73119400  1
  N  N30  1  0.73951400  0.00000000  0.23256400  1
  N  N31  1  0.76048600  0.50000000  0.76743600  1
  N  N32  1  0.00000000  0.26883200  0.00000000  1
  N  N33  1  0.00000000  0.73116800  0.00000000  1
  N  N34  1  0.77003700  0.00000000  0.00451600  1
  N  N35  1  0.72996300  0.50000000  0.99548400  1
  N  N36  1  0.76805700  0.00000000  0.49666700  1
  N  N37  1  0.73194300  0.50000000  0.50333300  1
  N  N38  1  0.48946700  0.50000000  0.73135400  1
  N  N39  1  0.01053300  0.00000000  0.26864600  1
  N  N40  1  0.75677800  0.00000000  0.76734600  1
  N  N41  1  0.74322200  0.50000000  0.23265400  1
  N  N42  1  0.00907100  0.50000000  0.26880600  1
  N  N43  1  0.49092900  0.00000000  0.73119400  1
  N  N44  1  0.23951400  0.50000000  0.23256400  1
  N  N45  1  0.26048600  0.00000000  0.76743600  1
  N  N46  1  0.50000000  0.76883200  0.00000000  1
  N  N47  1  0.50000000  0.23116800  0.00000000  1
  N  N48  1  0.27003700  0.50000000  0.00451600  1
  N  N49  1  0.22996300  0.00000000  0.99548400  1
  N  N50  1  0.26805700  0.50000000  0.49666700  1
  N  N51  1  0.23194300  0.00000000  0.50333300  1
  O  O52  1  0.49084500  0.58677800  0.78386500  1
  O  O53  1  0.99084500  0.91322200  0.78386500  1
  O  O54  1  0.00915500  0.91322200  0.21613500  1
  O  O55  1  0.50915500  0.58677800  0.21613500  1
  O  O56  1  0.20439050  0.58672950  0.71634200  1
  O  O57  1  0.70439050  0.91327050  0.71634200  1
  O  O58  1  0.29560950  0.91327050  0.28365800  1
  O  O59  1  0.79560950  0.58672950  0.28365800  1
  O  O60  1  0.51140500  0.08682000  0.21825700  1
  O  O61  1  0.51140500  0.91318000  0.21825700  1
  O  O62  1  0.98859500  0.41318000  0.78174300  1
  O  O63  1  0.98859500  0.58682000  0.78174300  1
  O  O64  1  0.79163550  0.08672850  0.28382700  1
  O  O65  1  0.79163550  0.91327150  0.28382700  1
  O  O66  1  0.70836450  0.41327150  0.71617300  1
  O  O67  1  0.70836450  0.58672850  0.71617300  1
  O  O68  1  0.90709050  0.21437650  0.94485900  1
  O  O69  1  0.90709050  0.78562350  0.94485900  1
  O  O70  1  0.59290950  0.28562350  0.05514100  1
  O  O71  1  0.59290950  0.71437650  0.05514100  1
  O  O72  1  0.47584100  0.72387700  0.53455200  1
  O  O73  1  0.97584100  0.77612300  0.53455200  1
  O  O74  1  0.02415900  0.77612300  0.46544800  1
  O  O75  1  0.52415900  0.72387700  0.46544800  1
  O  O76  1  0.71839900  0.91326400  0.00437000  1
  O  O77  1  0.71839900  0.08673600  0.00437000  1
  O  O78  1  0.78160100  0.58673600  0.99563000  1
  O  O79  1  0.78160100  0.41326400  0.99563000  1
  O  O80  1  0.71604700  0.08670100  0.49599400  1
  O  O81  1  0.71604700  0.91329900  0.49599400  1
  O  O82  1  0.78395300  0.41329900  0.50400600  1
  O  O83  1  0.78395300  0.58670100  0.50400600  1
  O  O84  1  0.99084500  0.08677800  0.78386500  1
  O  O85  1  0.49084500  0.41322200  0.78386500  1
  O  O86  1  0.50915500  0.41322200  0.21613500  1
  O  O87  1  0.00915500  0.08677800  0.21613500  1
  O  O88  1  0.70439050  0.08672950  0.71634200  1
  O  O89  1  0.20439050  0.41327050  0.71634200  1
  O  O90  1  0.79560950  0.41327050  0.28365800  1
  O  O91  1  0.29560950  0.08672950  0.28365800  1
  O  O92  1  0.01140500  0.58682000  0.21825700  1
  O  O93  1  0.01140500  0.41318000  0.21825700  1
  O  O94  1  0.48859500  0.91318000  0.78174300  1
  O  O95  1  0.48859500  0.08682000  0.78174300  1
  O  O96  1  0.29163550  0.58672850  0.28382700  1
  O  O97  1  0.29163550  0.41327150  0.28382700  1
  O  O98  1  0.20836450  0.91327150  0.71617300  1
  O  O99  1  0.20836450  0.08672850  0.71617300  1
  O  O100  1  0.40709050  0.71437650  0.94485900  1
  O  O101  1  0.40709050  0.28562350  0.94485900  1
  O  O102  1  0.09290950  0.78562350  0.05514100  1
  O  O103  1  0.09290950  0.21437650  0.05514100  1
  O  O104  1  0.97584100  0.22387700  0.53455200  1
  O  O105  1  0.47584100  0.27612300  0.53455200  1
  O  O106  1  0.52415900  0.27612300  0.46544800  1
  O  O107  1  0.02415900  0.22387700  0.46544800  1
  O  O108  1  0.21839900  0.41326400  0.00437000  1
  O  O109  1  0.21839900  0.58673600  0.00437000  1
  O  O110  1  0.28160100  0.08673600  0.99563000  1
  O  O111  1  0.28160100  0.91326400  0.99563000  1
  O  O112  1  0.21604700  0.58670100  0.49599400  1
  O  O113  1  0.21604700  0.41329900  0.49599400  1
  O  O114  1  0.28395300  0.91329900  0.50400600  1
  O  O115  1  0.28395300  0.08670100  0.50400600  1
