# generated using pymatgen
data_ReTe3Br5
_symmetry_space_group_name_H-M   'P 1'
_cell_length_a   11.63370900
_cell_length_b   8.89390700
_cell_length_c   12.74504537
_cell_angle_alpha   90.00000000
_cell_angle_beta   106.01155830
_cell_angle_gamma   90.00000000
_symmetry_Int_Tables_number   1
_chemical_formula_structural   ReTe3Br5
_chemical_formula_sum   'Re4 Te12 Br20'
_cell_volume   1267.56042592
_cell_formula_units_Z   4
loop_
 _symmetry_equiv_pos_site_id
 _symmetry_equiv_pos_as_xyz
  1  'x, y, z'
loop_
 _atom_site_type_symbol
 _atom_site_label
 _atom_site_symmetry_multiplicity
 _atom_site_fract_x
 _atom_site_fract_y
 _atom_site_fract_z
 _atom_site_occupancy
  Re  Re0  1  0.77729300  0.13900500  0.21248100  1
  Re  Re1  1  0.63495900  0.92026000  0.28159600  1
  Re  Re2  1  0.36504100  0.42026000  0.71840400  1
  Re  Re3  1  0.22270700  0.63900500  0.78751900  1
  Te  Te4  1  0.92870300  0.18422400  0.08163400  1
  Te  Te5  1  0.36155400  0.71648900  0.65445000  1
  Te  Te6  1  0.43320200  0.54460300  0.91484100  1
  Te  Te7  1  0.61241700  0.73968000  0.45006300  1
  Te  Te8  1  0.83320100  0.03431400  0.42141700  1
  Te  Te9  1  0.63844600  0.21648900  0.34555000  1
  Te  Te10  1  0.80833000  0.84883600  0.19049000  1
  Te  Te11  1  0.16679900  0.53431400  0.57858300  1
  Te  Te12  1  0.19167000  0.34883600  0.80951000  1
  Te  Te13  1  0.07129700  0.68422400  0.91836600  1
  Te  Te14  1  0.38758300  0.23968000  0.54993700  1
  Te  Te15  1  0.56679800  0.04460300  0.08515900  1
  Br  Br16  1  0.11259900  0.01159700  0.14306800  1
  Br  Br17  1  0.57992800  0.43042900  0.68136700  1
  Br  Br18  1  0.72441300  0.37750800  0.08327900  1
  Br  Br19  1  0.20522200  0.06197100  0.49287200  1
  Br  Br20  1  0.33342300  0.40614100  0.37398000  1
  Br  Br21  1  0.66657700  0.90614100  0.62602000  1
  Br  Br22  1  0.79477800  0.56197100  0.50712800  1
  Br  Br23  1  0.96266300  0.31742600  0.29843000  1
  Br  Br24  1  0.83677600  0.04489200  0.89817200  1
  Br  Br25  1  0.00542200  0.76585700  0.35116700  1
  Br  Br26  1  0.16322400  0.54489200  0.10182800  1
  Br  Br27  1  0.27558700  0.87750800  0.91672100  1
  Br  Br28  1  0.88740100  0.51159700  0.85693200  1
  Br  Br29  1  0.55376400  0.64502200  0.22173800  1
  Br  Br30  1  0.03733700  0.81742600  0.70157000  1
  Br  Br31  1  0.40659300  0.25155700  0.10502600  1
  Br  Br32  1  0.99457800  0.26585700  0.64883300  1
  Br  Br33  1  0.59340700  0.75155700  0.89497400  1
  Br  Br34  1  0.44623600  0.14502200  0.77826200  1
  Br  Br35  1  0.42007200  0.93042900  0.31863300  1
