# generated using pymatgen
data_H8PtO6
_symmetry_space_group_name_H-M   'P 1'
_cell_length_a   8.41347400
_cell_length_b   7.40255200
_cell_length_c   7.31233325
_cell_angle_alpha   90.00000000
_cell_angle_beta   94.49368038
_cell_angle_gamma   90.00000000
_symmetry_Int_Tables_number   1
_chemical_formula_structural   H8PtO6
_chemical_formula_sum   'H32 Pt4 O24'
_cell_volume   454.02076258
_cell_formula_units_Z   4
loop_
 _symmetry_equiv_pos_site_id
 _symmetry_equiv_pos_as_xyz
  1  'x, y, z'
loop_
 _atom_site_type_symbol
 _atom_site_label
 _atom_site_symmetry_multiplicity
 _atom_site_fract_x
 _atom_site_fract_y
 _atom_site_fract_z
 _atom_site_occupancy
  H  H0  1  0.25133650  0.87738650  0.84760400  1
  H  H1  1  0.68895050  0.16446850  0.83934700  1
  H  H2  1  0.74390650  0.87617950  0.64754000  1
  H  H3  1  0.42625200  0.31679700  0.74666700  1
  H  H4  1  0.74390650  0.12382050  0.14754000  1
  H  H5  1  0.42625200  0.68320300  0.24666700  1
  H  H6  1  0.68895050  0.83553150  0.33934700  1
  H  H7  1  0.25133650  0.12261350  0.34760400  1
  H  H8  1  0.31906700  0.92585500  0.09232200  1
  H  H9  1  0.55009000  0.98774000  0.50923600  1
  H  H10  1  0.55009000  0.01226000  0.00923600  1
  H  H11  1  0.31906700  0.07414500  0.59232200  1
  H  H12  1  0.51225300  0.54160800  0.98327400  1
  H  H13  1  0.49114500  0.65757400  0.71257600  1
  H  H14  1  0.49114500  0.34242600  0.21257600  1
  H  H15  1  0.51225300  0.45839200  0.48327400  1
  H  H16  1  0.75133650  0.37738650  0.84760400  1
  H  H17  1  0.18895050  0.66446850  0.83934700  1
  H  H18  1  0.24390650  0.37617950  0.64754000  1
  H  H19  1  0.92625200  0.81679700  0.74666700  1
  H  H20  1  0.24390650  0.62382050  0.14754000  1
  H  H21  1  0.92625200  0.18320300  0.24666700  1
  H  H22  1  0.18895050  0.33553150  0.33934700  1
  H  H23  1  0.75133650  0.62261350  0.34760400  1
  H  H24  1  0.81906700  0.42585500  0.09232200  1
  H  H25  1  0.05009000  0.48774000  0.50923600  1
  H  H26  1  0.05009000  0.51226000  0.00923600  1
  H  H27  1  0.81906700  0.57414500  0.59232200  1
  H  H28  1  0.01225300  0.04160800  0.98327400  1
  H  H29  1  0.99114500  0.15757400  0.71257600  1
  H  H30  1  0.99114500  0.84242600  0.21257600  1
  H  H31  1  0.01225300  0.95839200  0.48327400  1
  Pt  Pt32  1  0.74898200  0.24688000  0.50432200  1
  Pt  Pt33  1  0.74898200  0.75312000  0.00432200  1
  Pt  Pt34  1  0.24898200  0.74688000  0.50432200  1
  Pt  Pt35  1  0.24898200  0.25312000  0.00432200  1
  O  O36  1  0.68433750  0.28044050  0.76465100  1
  O  O37  1  0.31230450  0.28123450  0.74070100  1
  O  O38  1  0.31230450  0.71876550  0.24070100  1
  O  O39  1  0.68433750  0.71955950  0.26465100  1
  O  O40  1  0.33564900  0.99819300  0.98199200  1
  O  O41  1  0.66975850  0.98537950  0.51109100  1
  O  O42  1  0.66975850  0.01462050  0.01109100  1
  O  O43  1  0.33564900  0.00180700  0.48199200  1
  O  O44  1  0.52566500  0.66457300  0.92636100  1
  O  O45  1  0.47193450  0.65559050  0.57325000  1
  O  O46  1  0.47193450  0.34440950  0.07325000  1
  O  O47  1  0.52566500  0.33542700  0.42636100  1
  O  O48  1  0.18433750  0.78044050  0.76465100  1
  O  O49  1  0.81230450  0.78123450  0.74070100  1
  O  O50  1  0.81230450  0.21876550  0.24070100  1
  O  O51  1  0.18433750  0.21955950  0.26465100  1
  O  O52  1  0.83564900  0.49819300  0.98199200  1
  O  O53  1  0.16975850  0.48537950  0.51109100  1
  O  O54  1  0.16975850  0.51462050  0.01109100  1
  O  O55  1  0.83564900  0.50180700  0.48199200  1
  O  O56  1  0.02566500  0.16457300  0.92636100  1
  O  O57  1  0.97193450  0.15559050  0.57325000  1
  O  O58  1  0.97193450  0.84440950  0.07325000  1
  O  O59  1  0.02566500  0.83542700  0.42636100  1
