# generated using pymatgen
data_RbW3Br7
_symmetry_space_group_name_H-M   'P 1'
_cell_length_a   20.96290800
_cell_length_b   15.91103200
_cell_length_c   10.03608291
_cell_angle_alpha   90.00000000
_cell_angle_beta   115.84044769
_cell_angle_gamma   90.00000000
_symmetry_Int_Tables_number   1
_chemical_formula_structural   RbW3Br7
_chemical_formula_sum   'Rb8 W24 Br56'
_cell_volume   3012.74295041
_cell_formula_units_Z   8
loop_
 _symmetry_equiv_pos_site_id
 _symmetry_equiv_pos_as_xyz
  1  'x, y, z'
loop_
 _atom_site_type_symbol
 _atom_site_label
 _atom_site_symmetry_multiplicity
 _atom_site_fract_x
 _atom_site_fract_y
 _atom_site_fract_z
 _atom_site_occupancy
  Rb  Rb0  1  0.50000000  0.06890100  0.75000000  1
  Rb  Rb1  1  0.50000000  0.93109900  0.25000000  1
  Rb  Rb2  1  0.00000000  0.00000000  0.00000000  1
  Rb  Rb3  1  0.00000000  0.00000000  0.50000000  1
  Rb  Rb4  1  0.00000000  0.56890100  0.75000000  1
  Rb  Rb5  1  0.00000000  0.43109900  0.25000000  1
  Rb  Rb6  1  0.50000000  0.50000000  0.00000000  1
  Rb  Rb7  1  0.50000000  0.50000000  0.50000000  1
  W  W8  1  0.19670000  0.15072400  0.94728700  1
  W  W9  1  0.80330000  0.15072400  0.55271300  1
  W  W10  1  0.80330000  0.84927600  0.05271300  1
  W  W11  1  0.19670000  0.84927600  0.44728700  1
  W  W12  1  0.28936150  0.22285650  0.86902900  1
  W  W13  1  0.71063850  0.22285650  0.63097100  1
  W  W14  1  0.71063850  0.77714350  0.13097100  1
  W  W15  1  0.28936150  0.77714350  0.36902900  1
  W  W16  1  0.67581950  0.80740750  0.84744800  1
  W  W17  1  0.32418050  0.80740750  0.65255200  1
  W  W18  1  0.32418050  0.19259250  0.15255200  1
  W  W19  1  0.67581950  0.19259250  0.34744800  1
  W  W20  1  0.69670000  0.65072400  0.94728700  1
  W  W21  1  0.30330000  0.65072400  0.55271300  1
  W  W22  1  0.30330000  0.34927600  0.05271300  1
  W  W23  1  0.69670000  0.34927600  0.44728700  1
  W  W24  1  0.78936150  0.72285650  0.86902900  1
  W  W25  1  0.21063850  0.72285650  0.63097100  1
  W  W26  1  0.21063850  0.27714350  0.13097100  1
  W  W27  1  0.78936150  0.27714350  0.36902900  1
  W  W28  1  0.17581950  0.30740750  0.84744800  1
  W  W29  1  0.82418050  0.30740750  0.65255200  1
  W  W30  1  0.82418050  0.69259250  0.15255200  1
  W  W31  1  0.17581950  0.69259250  0.34744800  1
  Br  Br32  1  0.58326300  0.73400600  0.92790400  1
  Br  Br33  1  0.41673700  0.73400600  0.57209600  1
  Br  Br34  1  0.41673700  0.26599400  0.07209600  1
  Br  Br35  1  0.58326300  0.26599400  0.42790400  1
  Br  Br36  1  0.76856800  0.87904800  0.76990200  1
  Br  Br37  1  0.23143200  0.87904800  0.73009800  1
  Br  Br38  1  0.23143200  0.12095200  0.23009800  1
  Br  Br39  1  0.76856800  0.12095200  0.26990200  1
  Br  Br40  1  0.31010200  0.06630800  0.97015000  1
  Br  Br41  1  0.68989800  0.06630800  0.52985000  1
  Br  Br42  1  0.68989800  0.93369200  0.02985000  1
  Br  Br43  1  0.31010200  0.93369200  0.47015000  1
  Br  Br44  1  0.66147100  0.68149500  0.66305100  1
  Br  Br45  1  0.33852900  0.68149500  0.83694900  1
  Br  Br46  1  0.33852900  0.31850500  0.33694900  1
  Br  Br47  1  0.66147100  0.31850500  0.16305100  1
  Br  Br48  1  0.12288150  0.00779450  0.86887500  1
  Br  Br49  1  0.87711850  0.00779450  0.63112500  1
  Br  Br50  1  0.87711850  0.99220550  0.13112500  1
  Br  Br51  1  0.12288150  0.99220550  0.36887500  1
  Br  Br52  1  0.34419500  0.18532800  0.68742000  1
  Br  Br53  1  0.65580500  0.18532800  0.81258000  1
  Br  Br54  1  0.65580500  0.81467200  0.31258000  1
  Br  Br55  1  0.34419500  0.81467200  0.18742000  1
  Br  Br56  1  0.57132900  0.89007900  0.63551100  1
  Br  Br57  1  0.42867100  0.89007900  0.86448900  1
  Br  Br58  1  0.42867100  0.10992100  0.36448900  1
  Br  Br59  1  0.57132900  0.10992100  0.13551100  1
  Br  Br60  1  0.08326300  0.23400600  0.92790400  1
  Br  Br61  1  0.91673700  0.23400600  0.57209600  1
  Br  Br62  1  0.91673700  0.76599400  0.07209600  1
  Br  Br63  1  0.08326300  0.76599400  0.42790400  1
  Br  Br64  1  0.26856800  0.37904800  0.76990200  1
  Br  Br65  1  0.73143200  0.37904800  0.73009800  1
  Br  Br66  1  0.73143200  0.62095200  0.23009800  1
  Br  Br67  1  0.26856800  0.62095200  0.26990200  1
  Br  Br68  1  0.81010200  0.56630800  0.97015000  1
  Br  Br69  1  0.18989800  0.56630800  0.52985000  1
  Br  Br70  1  0.18989800  0.43369200  0.02985000  1
  Br  Br71  1  0.81010200  0.43369200  0.47015000  1
  Br  Br72  1  0.16147100  0.18149500  0.66305100  1
  Br  Br73  1  0.83852900  0.18149500  0.83694900  1
  Br  Br74  1  0.83852900  0.81850500  0.33694900  1
  Br  Br75  1  0.16147100  0.81850500  0.16305100  1
  Br  Br76  1  0.62288150  0.50779450  0.86887500  1
  Br  Br77  1  0.37711850  0.50779450  0.63112500  1
  Br  Br78  1  0.37711850  0.49220550  0.13112500  1
  Br  Br79  1  0.62288150  0.49220550  0.36887500  1
  Br  Br80  1  0.84419500  0.68532800  0.68742000  1
  Br  Br81  1  0.15580500  0.68532800  0.81258000  1
  Br  Br82  1  0.15580500  0.31467200  0.31258000  1
  Br  Br83  1  0.84419500  0.31467200  0.18742000  1
  Br  Br84  1  0.07132900  0.39007900  0.63551100  1
  Br  Br85  1  0.92867100  0.39007900  0.86448900  1
  Br  Br86  1  0.92867100  0.60992100  0.36448900  1
  Br  Br87  1  0.07132900  0.60992100  0.13551100  1
