# generated using pymatgen
data_Cs2SrN12
_symmetry_space_group_name_H-M   'P 1'
_cell_length_a   12.78790600
_cell_length_b   14.73968800
_cell_length_c   12.01576400
_cell_angle_alpha   90.00000000
_cell_angle_beta   90.00000000
_cell_angle_gamma   90.00000000
_symmetry_Int_Tables_number   1
_chemical_formula_structural   Cs2SrN12
_chemical_formula_sum   'Cs16 Sr8 N96'
_cell_volume   2264.84828769
_cell_formula_units_Z   8
loop_
 _symmetry_equiv_pos_site_id
 _symmetry_equiv_pos_as_xyz
  1  'x, y, z'
loop_
 _atom_site_type_symbol
 _atom_site_label
 _atom_site_symmetry_multiplicity
 _atom_site_fract_x
 _atom_site_fract_y
 _atom_site_fract_z
 _atom_site_occupancy
  Cs  Cs0  1  0.75525350  0.12095150  0.75000000  1
  Cs  Cs1  1  0.50000000  0.11850200  0.41725300  1
  Cs  Cs2  1  0.24474650  0.87904850  0.25000000  1
  Cs  Cs3  1  0.50000000  0.88149800  0.58274700  1
  Cs  Cs4  1  0.75525350  0.87904850  0.25000000  1
  Cs  Cs5  1  0.50000000  0.11850200  0.08274700  1
  Cs  Cs6  1  0.50000000  0.88149800  0.91725300  1
  Cs  Cs7  1  0.24474650  0.12095150  0.75000000  1
  Cs  Cs8  1  0.25525350  0.62095150  0.75000000  1
  Cs  Cs9  1  0.00000000  0.61850200  0.41725300  1
  Cs  Cs10  1  0.74474650  0.37904850  0.25000000  1
  Cs  Cs11  1  0.00000000  0.38149800  0.58274700  1
  Cs  Cs12  1  0.25525350  0.37904850  0.25000000  1
  Cs  Cs13  1  0.00000000  0.61850200  0.08274700  1
  Cs  Cs14  1  0.00000000  0.38149800  0.91725300  1
  Cs  Cs15  1  0.74474650  0.62095150  0.75000000  1
  Sr  Sr16  1  0.50000000  0.63341600  0.07829400  1
  Sr  Sr17  1  0.50000000  0.36658400  0.92170600  1
  Sr  Sr18  1  0.50000000  0.36658400  0.57829400  1
  Sr  Sr19  1  0.50000000  0.63341600  0.42170600  1
  Sr  Sr20  1  0.00000000  0.13341600  0.07829400  1
  Sr  Sr21  1  0.00000000  0.86658400  0.92170600  1
  Sr  Sr22  1  0.00000000  0.86658400  0.57829400  1
  Sr  Sr23  1  0.00000000  0.13341600  0.42170600  1
  N  N24  1  0.86942800  0.08930100  0.25000000  1
  N  N25  1  0.78267100  0.88040100  0.75000000  1
  N  N26  1  0.50000000  0.22776800  0.75000000  1
  N  N27  1  0.21732900  0.88040100  0.75000000  1
  N  N28  1  0.21732900  0.11959900  0.25000000  1
  N  N29  1  0.69670300  0.14840000  0.25000000  1
  N  N30  1  0.25000000  0.25000000  0.50000000  1
  N  N31  1  0.13057200  0.08930100  0.25000000  1
  N  N32  1  0.86942800  0.91069900  0.75000000  1
  N  N33  1  0.33509850  0.26017250  0.53711600  1
  N  N34  1  0.69135800  0.00000000  0.00000000  1
  N  N35  1  0.12312700  0.00000000  0.00000000  1
  N  N36  1  0.30329700  0.14840000  0.25000000  1
  N  N37  1  0.21637500  0.00000000  0.50000000  1
  N  N38  1  0.50000000  0.66486800  0.84886700  1
  N  N39  1  0.50000000  0.85280800  0.25000000  1
  N  N40  1  0.87687300  0.00000000  0.50000000  1
  N  N41  1  0.69670300  0.85160000  0.75000000  1
  N  N42  1  0.50000000  0.66351000  0.75000000  1
  N  N43  1  0.66490150  0.26017250  0.96288400  1
  N  N44  1  0.50000000  0.93369200  0.25000000  1
  N  N45  1  0.50000000  0.33513200  0.34886700  1
  N  N46  1  0.30864200  0.00000000  0.50000000  1
  N  N47  1  0.33509850  0.73982750  0.46288400  1
  N  N48  1  0.69135800  0.00000000  0.50000000  1
  N  N49  1  0.66490150  0.73982750  0.46288400  1
  N  N50  1  0.66490150  0.73982750  0.03711600  1
  N  N51  1  0.33509850  0.73982750  0.03711600  1
  N  N52  1  0.12312700  0.00000000  0.50000000  1
  N  N53  1  0.30329700  0.85160000  0.75000000  1
  N  N54  1  0.21637500  0.00000000  0.00000000  1
  N  N55  1  0.33509850  0.26017250  0.96288400  1
  N  N56  1  0.78362500  0.00000000  0.50000000  1
  N  N57  1  0.78267100  0.11959900  0.25000000  1
  N  N58  1  0.50000000  0.77223200  0.25000000  1
  N  N59  1  0.50000000  0.33513200  0.15113300  1
  N  N60  1  0.30864200  0.00000000  0.00000000  1
  N  N61  1  0.50000000  0.06630800  0.75000000  1
  N  N62  1  0.25000000  0.25000000  0.00000000  1
  N  N63  1  0.50000000  0.14719200  0.75000000  1
  N  N64  1  0.78362500  0.00000000  0.00000000  1
  N  N65  1  0.50000000  0.33649000  0.25000000  1
  N  N66  1  0.87687300  0.00000000  0.00000000  1
  N  N67  1  0.13057200  0.91069900  0.75000000  1
  N  N68  1  0.66490150  0.26017250  0.53711600  1
  N  N69  1  0.25000000  0.75000000  0.00000000  1
  N  N70  1  0.25000000  0.75000000  0.50000000  1
  N  N71  1  0.50000000  0.66486800  0.65113300  1
  N  N72  1  0.36942800  0.58930100  0.25000000  1
  N  N73  1  0.28267100  0.38040100  0.75000000  1
  N  N74  1  0.00000000  0.72776800  0.75000000  1
  N  N75  1  0.71732900  0.38040100  0.75000000  1
  N  N76  1  0.71732900  0.61959900  0.25000000  1
  N  N77  1  0.19670300  0.64840000  0.25000000  1
  N  N78  1  0.75000000  0.75000000  0.50000000  1
  N  N79  1  0.63057200  0.58930100  0.25000000  1
  N  N80  1  0.36942800  0.41069900  0.75000000  1
  N  N81  1  0.83509850  0.76017250  0.53711600  1
  N  N82  1  0.19135800  0.50000000  0.00000000  1
  N  N83  1  0.62312700  0.50000000  0.00000000  1
  N  N84  1  0.80329700  0.64840000  0.25000000  1
  N  N85  1  0.71637500  0.50000000  0.50000000  1
  N  N86  1  0.00000000  0.16486800  0.84886700  1
  N  N87  1  0.00000000  0.35280800  0.25000000  1
  N  N88  1  0.37687300  0.50000000  0.50000000  1
  N  N89  1  0.19670300  0.35160000  0.75000000  1
  N  N90  1  0.00000000  0.16351000  0.75000000  1
  N  N91  1  0.16490150  0.76017250  0.96288400  1
  N  N92  1  0.00000000  0.43369200  0.25000000  1
  N  N93  1  0.00000000  0.83513200  0.34886700  1
  N  N94  1  0.80864200  0.50000000  0.50000000  1
  N  N95  1  0.83509850  0.23982750  0.46288400  1
  N  N96  1  0.19135800  0.50000000  0.50000000  1
  N  N97  1  0.16490150  0.23982750  0.46288400  1
  N  N98  1  0.16490150  0.23982750  0.03711600  1
  N  N99  1  0.83509850  0.23982750  0.03711600  1
  N  N100  1  0.62312700  0.50000000  0.50000000  1
  N  N101  1  0.80329700  0.35160000  0.75000000  1
  N  N102  1  0.71637500  0.50000000  0.00000000  1
  N  N103  1  0.83509850  0.76017250  0.96288400  1
  N  N104  1  0.28362500  0.50000000  0.50000000  1
  N  N105  1  0.28267100  0.61959900  0.25000000  1
  N  N106  1  0.00000000  0.27223200  0.25000000  1
  N  N107  1  0.00000000  0.83513200  0.15113300  1
  N  N108  1  0.80864200  0.50000000  0.00000000  1
  N  N109  1  0.00000000  0.56630800  0.75000000  1
  N  N110  1  0.75000000  0.75000000  0.00000000  1
  N  N111  1  0.00000000  0.64719200  0.75000000  1
  N  N112  1  0.28362500  0.50000000  0.00000000  1
  N  N113  1  0.00000000  0.83649000  0.25000000  1
  N  N114  1  0.37687300  0.50000000  0.00000000  1
  N  N115  1  0.63057200  0.41069900  0.75000000  1
  N  N116  1  0.16490150  0.76017250  0.53711600  1
  N  N117  1  0.75000000  0.25000000  0.00000000  1
  N  N118  1  0.75000000  0.25000000  0.50000000  1
  N  N119  1  0.00000000  0.16486800  0.65113300  1
