# generated using pymatgen
data_Al6B5(O5F)3
_symmetry_space_group_name_H-M   'P 1'
_cell_length_a   8.64915185
_cell_length_b   8.64915185
_cell_length_c   8.26594200
_cell_angle_alpha   90.00000000
_cell_angle_beta   90.00000000
_cell_angle_gamma   120.00000000
_symmetry_Int_Tables_number   1
_chemical_formula_structural   Al6B5(O5F)3
_chemical_formula_sum   'Al12 B10 O30 F6'
_cell_volume   535.51301324
_cell_formula_units_Z   2
loop_
 _symmetry_equiv_pos_site_id
 _symmetry_equiv_pos_as_xyz
  1  'x, y, z'
loop_
 _atom_site_type_symbol
 _atom_site_label
 _atom_site_symmetry_multiplicity
 _atom_site_fract_x
 _atom_site_fract_y
 _atom_site_fract_z
 _atom_site_occupancy
  Al  Al0  1  0.35161700  0.33715800  0.92519900  1
  Al  Al1  1  0.01445900  0.35161700  0.42519900  1
  Al  Al2  1  0.33715800  0.98554100  0.42519900  1
  Al  Al3  1  0.66284200  0.01445900  0.92519900  1
  Al  Al4  1  0.98554100  0.64838300  0.92519900  1
  Al  Al5  1  0.64838300  0.66284200  0.42519900  1
  Al  Al6  1  0.64838300  0.66284200  0.07480100  1
  Al  Al7  1  0.98554100  0.64838300  0.57480100  1
  Al  Al8  1  0.66284200  0.01445900  0.57480100  1
  Al  Al9  1  0.33715800  0.98554100  0.07480100  1
  Al  Al10  1  0.01445900  0.35161700  0.07480100  1
  Al  Al11  1  0.35161700  0.33715800  0.57480100  1
  B  B12  1  0.33333333  0.66666667  0.94772300  1
  B  B13  1  0.66666667  0.33333333  0.05227700  1
  B  B14  1  0.33333333  0.66666667  0.55227700  1
  B  B15  1  0.66666667  0.33333333  0.44772300  1
  B  B16  1  0.23279600  0.23044600  0.25000000  1
  B  B17  1  0.00235000  0.23279600  0.75000000  1
  B  B18  1  0.23044600  0.99765000  0.75000000  1
  B  B19  1  0.76955400  0.00235000  0.25000000  1
  B  B20  1  0.99765000  0.76720400  0.25000000  1
  B  B21  1  0.76720400  0.76955400  0.75000000  1
  O  O22  1  0.84943000  0.43811200  0.05259800  1
  O  O23  1  0.43811200  0.58868200  0.55259800  1
  O  O24  1  0.58868200  0.15057000  0.05259800  1
  O  O25  1  0.41131800  0.84943000  0.55259800  1
  O  O26  1  0.15057000  0.56188800  0.55259800  1
  O  O27  1  0.56188800  0.41131800  0.05259800  1
  O  O28  1  0.69743100  0.88285500  0.75000000  1
  O  O29  1  0.81457600  0.69743100  0.25000000  1
  O  O30  1  0.88285500  0.18542400  0.25000000  1
  O  O31  1  0.30256900  0.11714500  0.25000000  1
  O  O32  1  0.11714500  0.81457600  0.75000000  1
  O  O33  1  0.18542400  0.30256900  0.75000000  1
  O  O34  1  0.43811200  0.58868200  0.94740200  1
  O  O35  1  0.84943000  0.43811200  0.44740200  1
  O  O36  1  0.58868200  0.15057000  0.44740200  1
  O  O37  1  0.41131800  0.84943000  0.94740200  1
  O  O38  1  0.15057000  0.56188800  0.94740200  1
  O  O39  1  0.56188800  0.41131800  0.44740200  1
  O  O40  1  0.28391500  0.08799300  0.60214200  1
  O  O41  1  0.19592200  0.28391500  0.10214200  1
  O  O42  1  0.08799300  0.80407800  0.10214200  1
  O  O43  1  0.91200700  0.19592200  0.60214200  1
  O  O44  1  0.80407800  0.71608500  0.60214200  1
  O  O45  1  0.71608500  0.91200700  0.10214200  1
  O  O46  1  0.71608500  0.91200700  0.39785800  1
  O  O47  1  0.80407800  0.71608500  0.89785800  1
  O  O48  1  0.91200700  0.19592200  0.89785800  1
  O  O49  1  0.08799300  0.80407800  0.39785800  1
  O  O50  1  0.19592200  0.28391500  0.39785800  1
  O  O51  1  0.28391500  0.08799300  0.89785800  1
  F  F52  1  0.50168700  0.61236300  0.25000000  1
  F  F53  1  0.88932400  0.50168700  0.75000000  1
  F  F54  1  0.61236300  0.11067600  0.75000000  1
  F  F55  1  0.38763700  0.88932400  0.25000000  1
  F  F56  1  0.11067600  0.49831300  0.25000000  1
  F  F57  1  0.49831300  0.38763700  0.75000000  1
