# generated using pymatgen
data_Mg4P6SN12
_symmetry_space_group_name_H-M   'P 1'
_cell_length_a   8.34398800
_cell_length_b   8.34398800
_cell_length_c   8.34398800
_cell_angle_alpha   90.00000000
_cell_angle_beta   90.00000000
_cell_angle_gamma   90.00000000
_symmetry_Int_Tables_number   1
_chemical_formula_structural   Mg4P6SN12
_chemical_formula_sum   'Mg8 P12 S2 N24'
_cell_volume   580.92626518
_cell_formula_units_Z   2
loop_
 _symmetry_equiv_pos_site_id
 _symmetry_equiv_pos_as_xyz
  1  'x, y, z'
loop_
 _atom_site_type_symbol
 _atom_site_label
 _atom_site_symmetry_multiplicity
 _atom_site_fract_x
 _atom_site_fract_y
 _atom_site_fract_z
 _atom_site_occupancy
  Mg  Mg0  1  0.17119650  0.17119650  0.17119650  1
  Mg  Mg1  1  0.32880350  0.67119650  0.32880350  1
  Mg  Mg2  1  0.67119650  0.32880350  0.32880350  1
  Mg  Mg3  1  0.32880350  0.32880350  0.67119650  1
  Mg  Mg4  1  0.67119650  0.67119650  0.67119650  1
  Mg  Mg5  1  0.82880350  0.17119650  0.82880350  1
  Mg  Mg6  1  0.17119650  0.82880350  0.82880350  1
  Mg  Mg7  1  0.82880350  0.82880350  0.17119650  1
  P  P8  1  0.25000000  0.50000000  0.00000000  1
  P  P9  1  0.25000000  0.00000000  0.50000000  1
  P  P10  1  0.00000000  0.50000000  0.25000000  1
  P  P11  1  0.50000000  0.25000000  0.00000000  1
  P  P12  1  0.00000000  0.25000000  0.50000000  1
  P  P13  1  0.50000000  0.00000000  0.25000000  1
  P  P14  1  0.75000000  0.00000000  0.50000000  1
  P  P15  1  0.75000000  0.50000000  0.00000000  1
  P  P16  1  0.50000000  0.00000000  0.75000000  1
  P  P17  1  0.00000000  0.75000000  0.50000000  1
  P  P18  1  0.50000000  0.75000000  0.00000000  1
  P  P19  1  0.00000000  0.50000000  0.75000000  1
  S  S20  1  0.00000000  0.00000000  0.00000000  1
  S  S21  1  0.50000000  0.50000000  0.50000000  1
  N  N22  1  0.58229300  0.85696300  0.14303700  1
  N  N23  1  0.35696300  0.91770700  0.35696300  1
  N  N24  1  0.41770700  0.14303700  0.14303700  1
  N  N25  1  0.14303700  0.14303700  0.41770700  1
  N  N26  1  0.14303700  0.41770700  0.14303700  1
  N  N27  1  0.85696300  0.58229300  0.14303700  1
  N  N28  1  0.14303700  0.58229300  0.85696300  1
  N  N29  1  0.85696300  0.14303700  0.58229300  1
  N  N30  1  0.35696300  0.35696300  0.91770700  1
  N  N31  1  0.91770700  0.35696300  0.35696300  1
  N  N32  1  0.58229300  0.14303700  0.85696300  1
  N  N33  1  0.14303700  0.85696300  0.58229300  1
  N  N34  1  0.08229300  0.35696300  0.64303700  1
  N  N35  1  0.85696300  0.41770700  0.85696300  1
  N  N36  1  0.91770700  0.64303700  0.64303700  1
  N  N37  1  0.64303700  0.64303700  0.91770700  1
  N  N38  1  0.64303700  0.91770700  0.64303700  1
  N  N39  1  0.35696300  0.08229300  0.64303700  1
  N  N40  1  0.64303700  0.08229300  0.35696300  1
  N  N41  1  0.35696300  0.64303700  0.08229300  1
  N  N42  1  0.85696300  0.85696300  0.41770700  1
  N  N43  1  0.41770700  0.85696300  0.85696300  1
  N  N44  1  0.08229300  0.64303700  0.35696300  1
  N  N45  1  0.64303700  0.35696300  0.08229300  1
