# generated using pymatgen
data_Sb2Pb2O7
_symmetry_space_group_name_H-M   'P 1'
_cell_length_a   7.60015200
_cell_length_b   7.97752000
_cell_length_c   10.60322000
_cell_angle_alpha   90.00000000
_cell_angle_beta   90.00000000
_cell_angle_gamma   90.00000000
_symmetry_Int_Tables_number   1
_chemical_formula_structural   Sb2Pb2O7
_chemical_formula_sum   'Sb8 Pb8 O28'
_cell_volume   642.87709435
_cell_formula_units_Z   4
loop_
 _symmetry_equiv_pos_site_id
 _symmetry_equiv_pos_as_xyz
  1  'x, y, z'
loop_
 _atom_site_type_symbol
 _atom_site_label
 _atom_site_symmetry_multiplicity
 _atom_site_fract_x
 _atom_site_fract_y
 _atom_site_fract_z
 _atom_site_occupancy
  Sb  Sb0  1  0.51075500  0.74744650  0.75000000  1
  Sb  Sb1  1  0.51075500  0.25255350  0.25000000  1
  Sb  Sb2  1  0.75896500  0.50000000  0.50000000  1
  Sb  Sb3  1  0.75896500  0.50000000  0.00000000  1
  Sb  Sb4  1  0.01075500  0.24744650  0.25000000  1
  Sb  Sb5  1  0.01075500  0.75255350  0.75000000  1
  Sb  Sb6  1  0.25896500  0.00000000  0.00000000  1
  Sb  Sb7  1  0.25896500  0.00000000  0.50000000  1
  Pb  Pb8  1  0.99653400  0.29231350  0.75000000  1
  Pb  Pb9  1  0.99653400  0.70768650  0.25000000  1
  Pb  Pb10  1  0.27238800  0.50000000  0.50000000  1
  Pb  Pb11  1  0.27238800  0.50000000  0.00000000  1
  Pb  Pb12  1  0.49653400  0.79231350  0.25000000  1
  Pb  Pb13  1  0.49653400  0.20768650  0.75000000  1
  Pb  Pb14  1  0.77238800  0.00000000  0.00000000  1
  Pb  Pb15  1  0.77238800  0.00000000  0.50000000  1
  O  O16  1  0.95996000  0.42948950  0.37853700  1
  O  O17  1  0.95996000  0.57051050  0.62146300  1
  O  O18  1  0.95996000  0.42948950  0.12146300  1
  O  O19  1  0.95996000  0.57051050  0.87853700  1
  O  O20  1  0.76511750  0.28557600  0.58963650  1
  O  O21  1  0.76511750  0.71442400  0.41036350  1
  O  O22  1  0.26511750  0.78557600  0.41036350  1
  O  O23  1  0.26511750  0.21442400  0.58963650  1
  O  O24  1  0.55731300  0.42467350  0.38395600  1
  O  O25  1  0.55731300  0.57532650  0.61604400  1
  O  O26  1  0.55731300  0.42467350  0.11604400  1
  O  O27  1  0.55731300  0.57532650  0.88395600  1
  O  O28  1  0.25988400  0.34346350  0.25000000  1
  O  O29  1  0.25988400  0.65653650  0.75000000  1
  O  O30  1  0.45996000  0.92948950  0.87853700  1
  O  O31  1  0.45996000  0.07051050  0.12146300  1
  O  O32  1  0.45996000  0.92948950  0.62146300  1
  O  O33  1  0.45996000  0.07051050  0.37853700  1
  O  O34  1  0.26511750  0.78557600  0.08963650  1
  O  O35  1  0.26511750  0.21442400  0.91036350  1
  O  O36  1  0.76511750  0.28557600  0.91036350  1
  O  O37  1  0.76511750  0.71442400  0.08963650  1
  O  O38  1  0.05731300  0.92467350  0.88395600  1
  O  O39  1  0.05731300  0.07532650  0.11604400  1
  O  O40  1  0.05731300  0.92467350  0.61604400  1
  O  O41  1  0.05731300  0.07532650  0.38395600  1
  O  O42  1  0.75988400  0.84346350  0.75000000  1
  O  O43  1  0.75988400  0.15653650  0.25000000  1
