# generated using pymatgen
data_Ca2AlH8S2Cl(O6F)2
_symmetry_space_group_name_H-M   'P 1'
_cell_length_a   6.96267800
_cell_length_b   6.96267800
_cell_length_c   13.22074200
_cell_angle_alpha   90.00000000
_cell_angle_beta   90.00000000
_cell_angle_gamma   90.00000000
_symmetry_Int_Tables_number   1
_chemical_formula_structural   Ca2AlH8S2Cl(O6F)2
_chemical_formula_sum   'Ca4 Al2 H16 S4 Cl2 O24 F4'
_cell_volume   640.92683013
_cell_formula_units_Z   2
loop_
 _symmetry_equiv_pos_site_id
 _symmetry_equiv_pos_as_xyz
  1  'x, y, z'
loop_
 _atom_site_type_symbol
 _atom_site_label
 _atom_site_symmetry_multiplicity
 _atom_site_fract_x
 _atom_site_fract_y
 _atom_site_fract_z
 _atom_site_occupancy
  Ca  Ca0  1  0.00000000  0.00000000  0.30236800  1
  Ca  Ca1  1  0.50000000  0.50000000  0.19763200  1
  Ca  Ca2  1  0.50000000  0.50000000  0.80236800  1
  Ca  Ca3  1  0.00000000  0.00000000  0.69763200  1
  Al  Al4  1  0.00000000  0.00000000  0.00000000  1
  Al  Al5  1  0.50000000  0.50000000  0.50000000  1
  H  H6  1  0.16228250  0.59715550  0.43862450  1
  H  H7  1  0.83771750  0.40284450  0.43862450  1
  H  H8  1  0.59715550  0.83771750  0.43862450  1
  H  H9  1  0.40284450  0.16228250  0.43862450  1
  H  H10  1  0.33771750  0.90284450  0.06137550  1
  H  H11  1  0.66228250  0.09715550  0.06137550  1
  H  H12  1  0.90284450  0.66228250  0.06137550  1
  H  H13  1  0.09715550  0.33771750  0.06137550  1
  H  H14  1  0.66228250  0.09715550  0.93862450  1
  H  H15  1  0.33771750  0.90284450  0.93862450  1
  H  H16  1  0.09715550  0.33771750  0.93862450  1
  H  H17  1  0.90284450  0.66228250  0.93862450  1
  H  H18  1  0.83771750  0.40284450  0.56137550  1
  H  H19  1  0.16228250  0.59715550  0.56137550  1
  H  H20  1  0.40284450  0.16228250  0.56137550  1
  H  H21  1  0.59715550  0.83771750  0.56137550  1
  S  S22  1  0.00000000  0.50000000  0.25000000  1
  S  S23  1  0.50000000  0.00000000  0.25000000  1
  S  S24  1  0.50000000  0.00000000  0.75000000  1
  S  S25  1  0.00000000  0.50000000  0.75000000  1
  Cl  Cl26  1  0.50000000  0.50000000  0.00000000  1
  Cl  Cl27  1  0.00000000  0.00000000  0.50000000  1
  O  O28  1  0.93661350  0.33836350  0.31607750  1
  O  O29  1  0.06338650  0.66163650  0.31607750  1
  O  O30  1  0.33836350  0.06338650  0.31607750  1
  O  O31  1  0.66163650  0.93661350  0.31607750  1
  O  O32  1  0.56338650  0.16163650  0.18392250  1
  O  O33  1  0.43661350  0.83836350  0.18392250  1
  O  O34  1  0.16163650  0.43661350  0.18392250  1
  O  O35  1  0.83836350  0.56338650  0.18392250  1
  O  O36  1  0.22497950  0.54379650  0.50000000  1
  O  O37  1  0.27502050  0.95620350  0.00000000  1
  O  O38  1  0.04379650  0.27502050  0.00000000  1
  O  O39  1  0.95620350  0.72497950  0.00000000  1
  O  O40  1  0.43661350  0.83836350  0.81607750  1
  O  O41  1  0.56338650  0.16163650  0.81607750  1
  O  O42  1  0.83836350  0.56338650  0.81607750  1
  O  O43  1  0.16163650  0.43661350  0.81607750  1
  O  O44  1  0.06338650  0.66163650  0.68392250  1
  O  O45  1  0.93661350  0.33836350  0.68392250  1
  O  O46  1  0.66163650  0.93661350  0.68392250  1
  O  O47  1  0.33836350  0.06338650  0.68392250  1
  O  O48  1  0.72497950  0.04379650  0.00000000  1
  O  O49  1  0.77502050  0.45620350  0.50000000  1
  O  O50  1  0.54379650  0.77502050  0.50000000  1
  O  O51  1  0.45620350  0.22497950  0.50000000  1
  F  F52  1  0.00000000  0.00000000  0.13421900  1
  F  F53  1  0.50000000  0.50000000  0.36578100  1
  F  F54  1  0.50000000  0.50000000  0.63421900  1
  F  F55  1  0.00000000  0.00000000  0.86578100  1
