# generated using pymatgen
data_Sm2Zr8O19
_symmetry_space_group_name_H-M   'P 1'
_cell_length_a   3.57879600
_cell_length_b   3.70355600
_cell_length_c   26.19779400
_cell_angle_alpha   90.00000000
_cell_angle_beta   90.00000000
_cell_angle_gamma   90.00000000
_symmetry_Int_Tables_number   1
_chemical_formula_structural   Sm2Zr8O19
_chemical_formula_sum   'Sm2 Zr8 O19'
_cell_volume   347.23267172
_cell_formula_units_Z   1
loop_
 _symmetry_equiv_pos_site_id
 _symmetry_equiv_pos_as_xyz
  1  'x, y, z'
loop_
 _atom_site_type_symbol
 _atom_site_label
 _atom_site_symmetry_multiplicity
 _atom_site_fract_x
 _atom_site_fract_y
 _atom_site_fract_z
 _atom_site_occupancy
  Sm  Sm0  1  0.50000000  0.00000000  0.79153300  1
  Sm  Sm1  1  0.00000000  0.50000000  0.90988600  1
  Zr  Zr2  1  0.50000000  0.00000000  0.00919600  1
  Zr  Zr3  1  0.00000000  0.50000000  0.10756200  1
  Zr  Zr4  1  0.50000000  0.00000000  0.20579200  1
  Zr  Zr5  1  0.00000000  0.50000000  0.30325900  1
  Zr  Zr6  1  0.50000000  0.00000000  0.40072700  1
  Zr  Zr7  1  0.00000000  0.50000000  0.49831000  1
  Zr  Zr8  1  0.50000000  0.00000000  0.59602800  1
  Zr  Zr9  1  0.00000000  0.50000000  0.69397900  1
  O  O10  1  0.00000000  0.00000000  0.25034600  1
  O  O11  1  0.50000000  0.50000000  0.35231400  1
  O  O12  1  0.00000000  0.00000000  0.44837600  1
  O  O13  1  0.50000000  0.50000000  0.54477100  1
  O  O14  1  0.00000000  0.00000000  0.64648900  1
  O  O15  1  0.50000000  0.50000000  0.73849400  1
  O  O16  1  0.50000000  0.50000000  0.84313300  1
  O  O17  1  0.50000000  0.50000000  0.96557700  1
  O  O18  1  0.00000000  0.00000000  0.05094100  1
  O  O19  1  0.00000000  0.00000000  0.95014100  1
  O  O20  1  0.50000000  0.50000000  0.06122400  1
  O  O21  1  0.50000000  0.50000000  0.15992200  1
  O  O22  1  0.00000000  0.00000000  0.14959800  1
  O  O23  1  0.50000000  0.50000000  0.25450600  1
  O  O24  1  0.00000000  0.00000000  0.34763700  1
  O  O25  1  0.50000000  0.50000000  0.44663400  1
  O  O26  1  0.00000000  0.00000000  0.54547200  1
  O  O27  1  0.50000000  0.50000000  0.63993300  1
  O  O28  1  0.00000000  0.00000000  0.74247400  1
