# generated using pymatgen
data_Ca4SmB3O10
_symmetry_space_group_name_H-M   'P 1'
_cell_length_a   8.16652600
_cell_length_b   16.16403600
_cell_length_c   3.60416162
_cell_angle_alpha   90.00000000
_cell_angle_beta   101.33238290
_cell_angle_gamma   90.00000000
_symmetry_Int_Tables_number   1
_chemical_formula_structural   Ca4SmB3O10
_chemical_formula_sum   'Ca8 Sm2 B6 O20'
_cell_volume   466.48821517
_cell_formula_units_Z   2
loop_
 _symmetry_equiv_pos_site_id
 _symmetry_equiv_pos_as_xyz
  1  'x, y, z'
loop_
 _atom_site_type_symbol
 _atom_site_label
 _atom_site_symmetry_multiplicity
 _atom_site_fract_x
 _atom_site_fract_y
 _atom_site_fract_z
 _atom_site_occupancy
  Ca  Ca0  1  0.76632700  0.68184700  0.66181100  1
  Ca  Ca1  1  0.26632700  0.81815300  0.66181100  1
  Ca  Ca2  1  0.64258250  0.88702550  0.33027900  1
  Ca  Ca3  1  0.14258250  0.61297450  0.33027900  1
  Ca  Ca4  1  0.26632700  0.18184700  0.66181100  1
  Ca  Ca5  1  0.76632700  0.31815300  0.66181100  1
  Ca  Ca6  1  0.14258250  0.38702550  0.33027900  1
  Ca  Ca7  1  0.64258250  0.11297450  0.33027900  1
  Sm  Sm8  1  0.00076200  0.00000000  0.00258100  1
  Sm  Sm9  1  0.50076200  0.50000000  0.00258100  1
  B  B10  1  0.95146200  0.80510400  0.08405200  1
  B  B11  1  0.45146200  0.69489600  0.08405200  1
  B  B12  1  0.37763200  0.00000000  0.70410800  1
  B  B13  1  0.45146200  0.30510400  0.08405200  1
  B  B14  1  0.95146200  0.19489600  0.08405200  1
  B  B15  1  0.87763200  0.50000000  0.70410800  1
  O  O16  1  0.20395900  0.00000000  0.60893800  1
  O  O17  1  0.96329750  0.57457750  0.75157100  1
  O  O18  1  0.82597800  0.00000000  0.42241900  1
  O  O19  1  0.09001600  0.85613400  0.08625300  1
  O  O20  1  0.59001600  0.64386600  0.08625300  1
  O  O21  1  0.46797300  0.76973500  0.27428300  1
  O  O22  1  0.96797300  0.73026500  0.27428300  1
  O  O23  1  0.29522700  0.67138800  0.88676800  1
  O  O24  1  0.79522700  0.82861200  0.88676800  1
  O  O25  1  0.46329750  0.92542250  0.75157100  1
  O  O26  1  0.70395900  0.50000000  0.60893800  1
  O  O27  1  0.46329750  0.07457750  0.75157100  1
  O  O28  1  0.32597800  0.50000000  0.42241900  1
  O  O29  1  0.59001600  0.35613400  0.08625300  1
  O  O30  1  0.09001600  0.14386600  0.08625300  1
  O  O31  1  0.96797300  0.26973500  0.27428300  1
  O  O32  1  0.46797300  0.23026500  0.27428300  1
  O  O33  1  0.79522700  0.17138800  0.88676800  1
  O  O34  1  0.29522700  0.32861200  0.88676800  1
  O  O35  1  0.96329750  0.42542250  0.75157100  1
