# generated using pymatgen
data_Ag8GeTe6
_symmetry_space_group_name_H-M   'P 1'
_cell_length_a   8.15433300
_cell_length_b   8.16653808
_cell_length_c   8.30180402
_cell_angle_alpha   61.76634695
_cell_angle_beta   62.09390552
_cell_angle_gamma   63.61810113
_symmetry_Int_Tables_number   1
_chemical_formula_structural   Ag8GeTe6
_chemical_formula_sum   'Ag8 Ge1 Te6'
_cell_volume   412.40359167
_cell_formula_units_Z   1
loop_
 _symmetry_equiv_pos_site_id
 _symmetry_equiv_pos_as_xyz
  1  'x, y, z'
loop_
 _atom_site_type_symbol
 _atom_site_label
 _atom_site_symmetry_multiplicity
 _atom_site_fract_x
 _atom_site_fract_y
 _atom_site_fract_z
 _atom_site_occupancy
  Ag  Ag0  1  0.12032600  0.79680100  0.77945300  1
  Ag  Ag1  1  0.83029500  0.16410400  0.76448400  1
  Ag  Ag2  1  0.78459400  0.79242700  0.41584800  1
  Ag  Ag3  1  0.69008000  0.33734400  0.05958700  1
  Ag  Ag4  1  0.34901400  0.66578500  0.02410500  1
  Ag  Ag5  1  0.98233300  0.99505200  0.44860300  1
  Ag  Ag6  1  0.43120000  0.99938400  0.97364600  1
  Ag  Ag7  1  0.03325600  0.41278100  0.97229100  1
  Ge  Ge8  1  0.50885900  0.51400100  0.45993800  1
  Te  Te9  1  0.01395300  0.99519000  0.04812600  1
  Te  Te10  1  0.75947000  0.74276500  0.78662400  1
  Te  Te11  1  0.42177000  0.39533200  0.84046400  1
  Te  Te12  1  0.88972600  0.40549800  0.36698000  1
  Te  Te13  1  0.40154100  0.89179000  0.37158600  1
  Te  Te14  1  0.35548200  0.35664600  0.37916800  1
