# generated using pymatgen
data_Ca(H8O5)2
_symmetry_space_group_name_H-M   'P 1'
_cell_length_a   6.17252800
_cell_length_b   6.31923686
_cell_length_c   11.82224982
_cell_angle_alpha   87.58709222
_cell_angle_beta   89.82641493
_cell_angle_gamma   87.10930336
_symmetry_Int_Tables_number   1
_chemical_formula_structural   Ca(H8O5)2
_chemical_formula_sum   'Ca2 H32 O20'
_cell_volume   460.13944131
_cell_formula_units_Z   2
loop_
 _symmetry_equiv_pos_site_id
 _symmetry_equiv_pos_as_xyz
  1  'x, y, z'
loop_
 _atom_site_type_symbol
 _atom_site_label
 _atom_site_symmetry_multiplicity
 _atom_site_fract_x
 _atom_site_fract_y
 _atom_site_fract_z
 _atom_site_occupancy
  Ca  Ca0  1  0.00748800  0.03237400  0.53657500  1
  Ca  Ca1  1  0.00260300  0.00351300  0.99563800  1
  H  H2  1  0.72134000  0.62854200  0.38009100  1
  H  H3  1  0.95918900  0.72442100  0.36692000  1
  H  H4  1  0.05978200  0.31237100  0.34018000  1
  H  H5  1  0.28581300  0.36617000  0.40268600  1
  H  H6  1  0.27011400  0.92409700  0.34454500  1
  H  H7  1  0.34741000  0.69378800  0.40911700  1
  H  H8  1  0.67411300  0.03417800  0.36178700  1
  H  H9  1  0.62999300  0.27448300  0.40597600  1
  H  H10  1  0.05906600  0.68125800  0.83265600  1
  H  H11  1  0.30067300  0.63063900  0.89382100  1
  H  H12  1  0.69923400  0.38913400  0.90297200  1
  H  H13  1  0.93625400  0.36914100  0.84161100  1
  H  H14  1  0.72032300  0.99672100  0.80519800  1
  H  H15  1  0.62088300  0.84774800  0.90139200  1
  H  H16  1  0.36665100  0.08498600  0.82797400  1
  H  H17  1  0.36383400  0.30138000  0.90031100  1
  H  H18  1  0.18666700  0.28825400  0.71593400  1
  H  H19  1  0.28302300  0.39892400  0.60280600  1
  H  H20  1  0.72699700  0.63600700  0.59312500  1
  H  H21  1  0.97158100  0.56730700  0.61816100  1
  H  H22  1  0.61397200  0.27629200  0.61383400  1
  H  H23  1  0.55325200  0.03593000  0.63365500  1
  H  H24  1  0.28004800  0.81860300  0.72080200  1
  H  H25  1  0.38240100  0.73280700  0.60619000  1
  H  H26  1  0.71280400  0.33822500  0.10669300  1
  H  H27  1  0.95928100  0.31945000  0.14683900  1
  H  H28  1  0.07840800  0.67473700  0.18385400  1
  H  H29  1  0.27832800  0.60985000  0.09825400  1
  H  H30  1  0.36405100  0.27107100  0.10429200  1
  H  H31  1  0.38637300  0.02468300  0.12969200  1
  H  H32  1  0.71517900  0.85979100  0.17331700  1
  H  H33  1  0.61300600  0.70095600  0.08923700  1
  O  O34  1  0.49329100  0.50390300  0.43708100  1
  O  O35  1  0.47561000  0.48431700  0.94135700  1
  O  O36  1  0.49166600  0.50671300  0.56378200  1
  O  O37  1  0.48909000  0.48156400  0.06745800  1
  O  O38  1  0.81514000  0.71664200  0.33012200  1
  O  O39  1  0.17076200  0.25896900  0.39373700  1
  O  O40  1  0.22344500  0.81323500  0.39822100  1
  O  O41  1  0.73945200  0.15325900  0.39734800  1
  O  O42  1  0.19238000  0.74543000  0.85457400  1
  O  O43  1  0.83194200  0.29177700  0.88562000  1
  O  O44  1  0.74849000  0.86849400  0.85423700  1
  O  O45  1  0.26830700  0.19076100  0.86045200  1
  O  O46  1  0.14486100  0.33225300  0.63736400  1
  O  O47  1  0.87371900  0.69442900  0.60315600  1
  O  O48  1  0.67412600  0.13240800  0.64311100  1
  O  O49  1  0.31952300  0.86668700  0.64192900  1
  O  O50  1  0.83617500  0.23570100  0.13082000  1
  O  O51  1  0.13575800  0.69955600  0.10758900  1
  O  O52  1  0.27618700  0.14220000  0.12299000  1
  O  O53  1  0.66250600  0.85105800  0.09525900  1
