# generated using pymatgen
data_MgZn2H12(BrO)6
_symmetry_space_group_name_H-M   'P 1'
_cell_length_a   8.29152400
_cell_length_b   10.36970000
_cell_length_c   10.60308800
_cell_angle_alpha   90.00000000
_cell_angle_beta   90.00000000
_cell_angle_gamma   90.00000000
_symmetry_Int_Tables_number   1
_chemical_formula_structural   MgZn2H12(BrO)6
_chemical_formula_sum   'Mg2 Zn4 H24 Br12 O12'
_cell_volume   911.66004223
_cell_formula_units_Z   2
loop_
 _symmetry_equiv_pos_site_id
 _symmetry_equiv_pos_as_xyz
  1  'x, y, z'
loop_
 _atom_site_type_symbol
 _atom_site_label
 _atom_site_symmetry_multiplicity
 _atom_site_fract_x
 _atom_site_fract_y
 _atom_site_fract_z
 _atom_site_occupancy
  Mg  Mg0  1  0.00000000  0.00000000  0.00000000  1
  Mg  Mg1  1  0.50000000  0.50000000  0.50000000  1
  Zn  Zn2  1  0.50000000  0.00000000  0.34239500  1
  Zn  Zn3  1  0.50000000  0.00000000  0.65760500  1
  Zn  Zn4  1  0.00000000  0.50000000  0.84239500  1
  Zn  Zn5  1  0.00000000  0.50000000  0.15760500  1
  H  H6  1  0.73681600  0.67555900  0.42643000  1
  H  H7  1  0.26318400  0.67555900  0.57357000  1
  H  H8  1  0.26318400  0.32444100  0.42643000  1
  H  H9  1  0.73681600  0.32444100  0.57357000  1
  H  H10  1  0.26318400  0.32444100  0.57357000  1
  H  H11  1  0.73681600  0.32444100  0.42643000  1
  H  H12  1  0.73681600  0.67555900  0.57357000  1
  H  H13  1  0.26318400  0.67555900  0.42643000  1
  H  H14  1  0.00000000  0.07653900  0.74962200  1
  H  H15  1  0.00000000  0.07653900  0.25037800  1
  H  H16  1  0.00000000  0.92346100  0.74962200  1
  H  H17  1  0.00000000  0.92346100  0.25037800  1
  H  H18  1  0.23681600  0.17555900  0.92643000  1
  H  H19  1  0.76318400  0.17555900  0.07357000  1
  H  H20  1  0.76318400  0.82444100  0.92643000  1
  H  H21  1  0.23681600  0.82444100  0.07357000  1
  H  H22  1  0.76318400  0.82444100  0.07357000  1
  H  H23  1  0.23681600  0.82444100  0.92643000  1
  H  H24  1  0.23681600  0.17555900  0.07357000  1
  H  H25  1  0.76318400  0.17555900  0.92643000  1
  H  H26  1  0.50000000  0.57653900  0.24962200  1
  H  H27  1  0.50000000  0.57653900  0.75037800  1
  H  H28  1  0.50000000  0.42346100  0.24962200  1
  H  H29  1  0.50000000  0.42346100  0.75037800  1
  Br  Br30  1  0.72327400  0.00000000  0.50000000  1
  Br  Br31  1  0.27672600  0.00000000  0.50000000  1
  Br  Br32  1  0.50000000  0.80855450  0.21252850  1
  Br  Br33  1  0.50000000  0.80855450  0.78747150  1
  Br  Br34  1  0.50000000  0.19144550  0.21252850  1
  Br  Br35  1  0.50000000  0.19144550  0.78747150  1
  Br  Br36  1  0.22327400  0.50000000  0.00000000  1
  Br  Br37  1  0.77672600  0.50000000  0.00000000  1
  Br  Br38  1  0.00000000  0.30855450  0.71252850  1
  Br  Br39  1  0.00000000  0.30855450  0.28747150  1
  Br  Br40  1  0.00000000  0.69144550  0.71252850  1
  Br  Br41  1  0.00000000  0.69144550  0.28747150  1
  O  O42  1  0.67594100  0.64659000  0.50000000  1
  O  O43  1  0.32405900  0.64659000  0.50000000  1
  O  O44  1  0.32405900  0.35341000  0.50000000  1
  O  O45  1  0.67594100  0.35341000  0.50000000  1
  O  O46  1  0.00000000  0.00000000  0.80392300  1
  O  O47  1  0.00000000  0.00000000  0.19607700  1
  O  O48  1  0.17594100  0.14659000  0.00000000  1
  O  O49  1  0.82405900  0.14659000  0.00000000  1
  O  O50  1  0.82405900  0.85341000  0.00000000  1
  O  O51  1  0.17594100  0.85341000  0.00000000  1
  O  O52  1  0.50000000  0.50000000  0.30392300  1
  O  O53  1  0.50000000  0.50000000  0.69607700  1
