# generated using pymatgen
data_Zn2GeS4
_symmetry_space_group_name_H-M   'P 1'
_cell_length_a   5.47754200
_cell_length_b   5.47754200
_cell_length_c   10.18113400
_cell_angle_alpha   90.00000000
_cell_angle_beta   90.00000000
_cell_angle_gamma   90.00000000
_symmetry_Int_Tables_number   1
_chemical_formula_structural   Zn2GeS4
_chemical_formula_sum   'Zn4 Ge2 S8'
_cell_volume   305.46931149
_cell_formula_units_Z   2
loop_
 _symmetry_equiv_pos_site_id
 _symmetry_equiv_pos_as_xyz
  1  'x, y, z'
loop_
 _atom_site_type_symbol
 _atom_site_label
 _atom_site_symmetry_multiplicity
 _atom_site_fract_x
 _atom_site_fract_y
 _atom_site_fract_z
 _atom_site_occupancy
  Zn  Zn0  1  0.00000000  0.50000000  0.25000000  1
  Zn  Zn1  1  0.50000000  0.00000000  0.25000000  1
  Zn  Zn2  1  0.50000000  0.00000000  0.75000000  1
  Zn  Zn3  1  0.00000000  0.50000000  0.75000000  1
  Ge  Ge4  1  0.50000000  0.50000000  0.00000000  1
  Ge  Ge5  1  0.00000000  0.00000000  0.50000000  1
  S  S6  1  0.24673700  0.24673700  0.38347300  1
  S  S7  1  0.75326300  0.75326300  0.38347300  1
  S  S8  1  0.74673700  0.25326300  0.11652700  1
  S  S9  1  0.25326300  0.74673700  0.11652700  1
  S  S10  1  0.74673700  0.74673700  0.88347300  1
  S  S11  1  0.25326300  0.25326300  0.88347300  1
  S  S12  1  0.24673700  0.75326300  0.61652700  1
  S  S13  1  0.75326300  0.24673700  0.61652700  1
