# generated using pymatgen
data_LiMn2(PO4)3
_symmetry_space_group_name_H-M   'P 1'
_cell_length_a   14.61020400
_cell_length_b   8.41444400
_cell_length_c   8.58325555
_cell_angle_alpha   90.00000000
_cell_angle_beta   124.30234267
_cell_angle_gamma   90.00000000
_symmetry_Int_Tables_number   1
_chemical_formula_structural   LiMn2(PO4)3
_chemical_formula_sum   'Li4 Mn8 P12 O48'
_cell_volume   871.67252936
_cell_formula_units_Z   4
loop_
 _symmetry_equiv_pos_site_id
 _symmetry_equiv_pos_as_xyz
  1  'x, y, z'
loop_
 _atom_site_type_symbol
 _atom_site_label
 _atom_site_symmetry_multiplicity
 _atom_site_fract_x
 _atom_site_fract_y
 _atom_site_fract_z
 _atom_site_occupancy
  Li  Li0  1  0.30263500  0.66871600  0.95143900  1
  Li  Li1  1  0.30263500  0.33128400  0.45143900  1
  Li  Li2  1  0.80263500  0.16871600  0.95143900  1
  Li  Li3  1  0.80263500  0.83128400  0.45143900  1
  Mn  Mn4  1  0.39581450  0.75332250  0.42769800  1
  Mn  Mn5  1  0.10233050  0.74823350  0.56789600  1
  Mn  Mn6  1  0.39581450  0.24667750  0.92769800  1
  Mn  Mn7  1  0.10233050  0.25176650  0.06789600  1
  Mn  Mn8  1  0.89581450  0.25332250  0.42769800  1
  Mn  Mn9  1  0.60233050  0.24823350  0.56789600  1
  Mn  Mn10  1  0.89581450  0.74667750  0.92769800  1
  Mn  Mn11  1  0.60233050  0.75176650  0.06789600  1
  P  P12  1  0.36155500  0.88979200  0.75574100  1
  P  P13  1  0.36155500  0.11020800  0.25574100  1
  P  P14  1  0.00148700  0.96125700  0.74664300  1
  P  P15  1  0.13860050  0.38701750  0.74452700  1
  P  P16  1  0.00148700  0.03874300  0.24664300  1
  P  P17  1  0.13860050  0.61298250  0.24452700  1
  P  P18  1  0.86155500  0.38979200  0.75574100  1
  P  P19  1  0.86155500  0.61020800  0.25574100  1
  P  P20  1  0.50148700  0.46125700  0.74664300  1
  P  P21  1  0.63860050  0.88701750  0.74452700  1
  P  P22  1  0.50148700  0.53874300  0.24664300  1
  P  P23  1  0.63860050  0.11298250  0.24452700  1
  O  O24  1  0.45378250  0.17870950  0.45281200  1
  O  O25  1  0.04440700  0.32364900  0.54928100  1
  O  O26  1  0.04440700  0.67635100  0.04928100  1
  O  O27  1  0.09307850  0.86330750  0.75312400  1
  O  O28  1  0.15970150  0.43181150  0.24262000  1
  O  O29  1  0.06284400  0.93703400  0.42432100  1
  O  O30  1  0.42879900  0.44689300  0.05772800  1
  O  O31  1  0.41105650  0.35298250  0.73682700  1
  O  O32  1  0.34209850  0.93205550  0.26049200  1
  O  O33  1  0.06284400  0.06296600  0.92432100  1
  O  O34  1  0.34209850  0.06794450  0.76049200  1
  O  O35  1  0.24092550  0.70428550  0.28985100  1
  O  O36  1  0.41105650  0.64701750  0.23682700  1
  O  O37  1  0.26101450  0.20692350  0.21776800  1
  O  O38  1  0.42879900  0.55310700  0.55772800  1
  O  O39  1  0.11473150  0.62621650  0.39684500  1
  O  O40  1  0.38528250  0.12822450  0.10456200  1
  O  O41  1  0.38528250  0.87177550  0.60456200  1
  O  O42  1  0.11473150  0.37378350  0.89684500  1
  O  O43  1  0.15970150  0.56818850  0.74262000  1
  O  O44  1  0.26101450  0.79307650  0.71776800  1
  O  O45  1  0.45378250  0.82129050  0.95281200  1
  O  O46  1  0.24092550  0.29571450  0.78985100  1
  O  O47  1  0.09307850  0.13669250  0.25312400  1
  O  O48  1  0.95378250  0.67870950  0.45281200  1
  O  O49  1  0.54440700  0.82364900  0.54928100  1
  O  O50  1  0.54440700  0.17635100  0.04928100  1
  O  O51  1  0.59307850  0.36330750  0.75312400  1
  O  O52  1  0.65970150  0.93181150  0.24262000  1
  O  O53  1  0.56284400  0.43703400  0.42432100  1
  O  O54  1  0.92879900  0.94689300  0.05772800  1
  O  O55  1  0.91105650  0.85298250  0.73682700  1
  O  O56  1  0.84209850  0.43205550  0.26049200  1
  O  O57  1  0.56284400  0.56296600  0.92432100  1
  O  O58  1  0.84209850  0.56794450  0.76049200  1
  O  O59  1  0.74092550  0.20428550  0.28985100  1
  O  O60  1  0.91105650  0.14701750  0.23682700  1
  O  O61  1  0.76101450  0.70692350  0.21776800  1
  O  O62  1  0.92879900  0.05310700  0.55772800  1
  O  O63  1  0.61473150  0.12621650  0.39684500  1
  O  O64  1  0.88528250  0.62822450  0.10456200  1
  O  O65  1  0.88528250  0.37177550  0.60456200  1
  O  O66  1  0.61473150  0.87378350  0.89684500  1
  O  O67  1  0.65970150  0.06818850  0.74262000  1
  O  O68  1  0.76101450  0.29307650  0.71776800  1
  O  O69  1  0.95378250  0.32129050  0.95281200  1
  O  O70  1  0.74092550  0.79571450  0.78985100  1
  O  O71  1  0.59307850  0.63669250  0.25312400  1
