# generated using pymatgen
data_H(WO3)2
_symmetry_space_group_name_H-M   'P 1'
_cell_length_a   5.48201200
_cell_length_b   5.48933600
_cell_length_c   7.72466200
_cell_angle_alpha   90.00000000
_cell_angle_beta   90.00000000
_cell_angle_gamma   90.00000000
_symmetry_Int_Tables_number   1
_chemical_formula_structural   H(WO3)2
_chemical_formula_sum   'H2 W4 O12'
_cell_volume   232.45520869
_cell_formula_units_Z   2
loop_
 _symmetry_equiv_pos_site_id
 _symmetry_equiv_pos_as_xyz
  1  'x, y, z'
loop_
 _atom_site_type_symbol
 _atom_site_label
 _atom_site_symmetry_multiplicity
 _atom_site_fract_x
 _atom_site_fract_y
 _atom_site_fract_z
 _atom_site_occupancy
  H  H0  1  0.00000000  0.00227300  0.00000000  1
  H  H1  1  0.50000000  0.50227300  0.50000000  1
  W  W2  1  0.50000000  0.01000750  0.25229250  1
  W  W3  1  0.00000000  0.51000750  0.24770750  1
  W  W4  1  0.00000000  0.51000750  0.75229250  1
  W  W5  1  0.50000000  0.01000750  0.74770750  1
  O  O6  1  0.24672350  0.74380450  0.24835050  1
  O  O7  1  0.00000000  0.48622000  0.00000000  1
  O  O8  1  0.75327650  0.74380450  0.24835050  1
  O  O9  1  0.74672350  0.24380450  0.25164950  1
  O  O10  1  0.50000000  0.99307800  0.00000000  1
  O  O11  1  0.25327650  0.24380450  0.25164950  1
  O  O12  1  0.74672350  0.24380450  0.74835050  1
  O  O13  1  0.50000000  0.98622000  0.50000000  1
  O  O14  1  0.25327650  0.24380450  0.74835050  1
  O  O15  1  0.24672350  0.74380450  0.75164950  1
  O  O16  1  0.00000000  0.49307800  0.50000000  1
  O  O17  1  0.75327650  0.74380450  0.75164950  1
