# generated using pymatgen
data_H5BrO2
_symmetry_space_group_name_H-M   'P 1'
_cell_length_a   4.15756900
_cell_length_b   7.03511464
_cell_length_c   12.58211987
_cell_angle_alpha   90.30671269
_cell_angle_beta   90.52714453
_cell_angle_gamma   103.33754268
_symmetry_Int_Tables_number   1
_chemical_formula_structural   H5BrO2
_chemical_formula_sum   'H20 Br4 O8'
_cell_volume   358.06227550
_cell_formula_units_Z   4
loop_
 _symmetry_equiv_pos_site_id
 _symmetry_equiv_pos_as_xyz
  1  'x, y, z'
loop_
 _atom_site_type_symbol
 _atom_site_label
 _atom_site_symmetry_multiplicity
 _atom_site_fract_x
 _atom_site_fract_y
 _atom_site_fract_z
 _atom_site_occupancy
  H  H0  1  0.74928700  0.57436700  0.67781400  1
  H  H1  1  0.46331700  0.65701900  0.59394400  1
  H  H2  1  0.41836400  0.41602500  0.63904000  1
  H  H3  1  0.24047800  0.92347400  0.17513600  1
  H  H4  1  0.56818200  0.08466100  0.13689700  1
  H  H5  1  0.52690200  0.84200900  0.09550100  1
  H  H6  1  0.24524400  0.42455200  0.32135000  1
  H  H7  1  0.57711300  0.58465900  0.36255800  1
  H  H8  1  0.52507900  0.34535600  0.40492800  1
  H  H9  1  0.41518800  0.92845800  0.86977900  1
  H  H10  1  0.71072200  0.08701400  0.81381800  1
  H  H11  1  0.30225900  0.90391500  0.60619600  1
  H  H12  1  0.22383500  0.80007300  0.49154700  1
  H  H13  1  0.69318900  0.59109400  0.10764100  1
  H  H14  1  0.77634900  0.69803100  0.99627700  1
  H  H15  1  0.71132500  0.09755800  0.39281200  1
  H  H16  1  0.77243600  0.19639400  0.50865400  1
  H  H17  1  0.29489700  0.42159400  0.89565500  1
  H  H18  1  0.16900400  0.29163700  0.99763800  1
  H  H19  1  0.45797800  0.17674600  0.90561500  1
  Br  Br20  1  0.04404900  0.66220000  0.83883700  1
  Br  Br21  1  0.96336900  0.84159000  0.33734700  1
  Br  Br22  1  0.93332700  0.33894000  0.16939400  1
  Br  Br23  1  0.02453200  0.15694900  0.66700100  1
  O  O24  1  0.59031200  0.53591800  0.61736100  1
  O  O25  1  0.39661100  0.96147700  0.11488600  1
  O  O26  1  0.40187600  0.46415000  0.38296100  1
  O  O27  1  0.58529300  0.05539300  0.88181000  1
  O  O28  1  0.29503200  0.78216500  0.56580600  1
  O  O29  1  0.69883100  0.71465600  0.06884400  1
  O  O30  1  0.67914600  0.20836200  0.43683900  1
  O  O31  1  0.34241400  0.31812900  0.94278500  1
