# generated using pymatgen
data_In2Si(AgSe3)2
_symmetry_space_group_name_H-M   'P 1'
_cell_length_a   12.95084000
_cell_length_b   7.59730000
_cell_length_c   12.83073034
_cell_angle_alpha   90.00000000
_cell_angle_beta   109.53895518
_cell_angle_gamma   90.00000000
_symmetry_Int_Tables_number   1
_chemical_formula_structural   In2Si(AgSe3)2
_chemical_formula_sum   'In8 Si4 Ag8 Se24'
_cell_volume   1189.73562989
_cell_formula_units_Z   4
loop_
 _symmetry_equiv_pos_site_id
 _symmetry_equiv_pos_as_xyz
  1  'x, y, z'
loop_
 _atom_site_type_symbol
 _atom_site_label
 _atom_site_symmetry_multiplicity
 _atom_site_fract_x
 _atom_site_fract_y
 _atom_site_fract_z
 _atom_site_occupancy
  In  In0  1  0.08375800  0.59319800  0.93892300  1
  In  In1  1  0.08375800  0.40680200  0.43892300  1
  In  In2  1  0.26581250  0.55890850  0.74144500  1
  In  In3  1  0.26581250  0.44109150  0.24144500  1
  In  In4  1  0.58375800  0.09319800  0.93892300  1
  In  In5  1  0.58375800  0.90680200  0.43892300  1
  In  In6  1  0.76581250  0.05890850  0.74144500  1
  In  In7  1  0.76581250  0.94109150  0.24144500  1
  Si  Si8  1  0.83172800  0.23437700  0.49807500  1
  Si  Si9  1  0.83172800  0.76562300  0.99807500  1
  Si  Si10  1  0.33172800  0.73437700  0.49807500  1
  Si  Si11  1  0.33172800  0.26562300  0.99807500  1
  Ag  Ag12  1  0.90002850  0.70390850  0.58486800  1
  Ag  Ag13  1  0.60146850  0.40889350  0.24737900  1
  Ag  Ag14  1  0.90002850  0.29609150  0.08486800  1
  Ag  Ag15  1  0.60146850  0.59110650  0.74737900  1
  Ag  Ag16  1  0.40002850  0.20390850  0.58486800  1
  Ag  Ag17  1  0.10146850  0.90889350  0.24737900  1
  Ag  Ag18  1  0.40002850  0.79609150  0.08486800  1
  Ag  Ag19  1  0.10146850  0.09110650  0.74737900  1
  Se  Se20  1  0.14561900  0.25431600  0.95031100  1
  Se  Se21  1  0.40623850  0.50670150  0.94561400  1
  Se  Se22  1  0.09199600  0.73783500  0.75343200  1
  Se  Se23  1  0.40623850  0.49329850  0.44561400  1
  Se  Se24  1  0.21048850  0.73728950  0.12671700  1
  Se  Se25  1  0.90410900  0.73405200  0.18575700  1
  Se  Se26  1  0.14561900  0.74568400  0.45031100  1
  Se  Se27  1  0.09199600  0.26216500  0.25343200  1
  Se  Se28  1  0.21048850  0.26271050  0.62671700  1
  Se  Se29  1  0.87595250  0.52251650  0.91457900  1
  Se  Se30  1  0.87595250  0.47748350  0.41457900  1
  Se  Se31  1  0.90410900  0.26594800  0.68575700  1
  Se  Se32  1  0.64561900  0.75431600  0.95031100  1
  Se  Se33  1  0.90623850  0.00670150  0.94561400  1
  Se  Se34  1  0.59199600  0.23783500  0.75343200  1
  Se  Se35  1  0.90623850  0.99329850  0.44561400  1
  Se  Se36  1  0.71048850  0.23728950  0.12671700  1
  Se  Se37  1  0.40410900  0.23405200  0.18575700  1
  Se  Se38  1  0.64561900  0.24568400  0.45031100  1
  Se  Se39  1  0.59199600  0.76216500  0.25343200  1
  Se  Se40  1  0.71048850  0.76271050  0.62671700  1
  Se  Se41  1  0.37595250  0.02251650  0.91457900  1
  Se  Se42  1  0.37595250  0.97748350  0.41457900  1
  Se  Se43  1  0.40410900  0.76594800  0.68575700  1
