# generated using pymatgen
data_Ti3H2O7
_symmetry_space_group_name_H-M   'P 1'
_cell_length_a   16.19739600
_cell_length_b   3.78214000
_cell_length_c   9.29680581
_cell_angle_alpha   90.00000000
_cell_angle_beta   101.46661902
_cell_angle_gamma   90.00000000
_symmetry_Int_Tables_number   1
_chemical_formula_structural   Ti3H2O7
_chemical_formula_sum   'Ti12 H8 O28'
_cell_volume   558.16251739
_cell_formula_units_Z   4
loop_
 _symmetry_equiv_pos_site_id
 _symmetry_equiv_pos_as_xyz
  1  'x, y, z'
loop_
 _atom_site_type_symbol
 _atom_site_label
 _atom_site_symmetry_multiplicity
 _atom_site_fract_x
 _atom_site_fract_y
 _atom_site_fract_z
 _atom_site_occupancy
  Ti  Ti0  1  0.77229800  0.00000000  0.78766400  1
  Ti  Ti1  1  0.72711900  0.50000000  0.21589200  1
  Ti  Ti2  1  0.83214000  0.00000000  0.48464600  1
  Ti  Ti3  1  0.67720600  0.50000000  0.51497000  1
  Ti  Ti4  1  0.87357000  0.00000000  0.17753400  1
  Ti  Ti5  1  0.62068000  0.50000000  0.83328900  1
  Ti  Ti6  1  0.27229800  0.50000000  0.78766400  1
  Ti  Ti7  1  0.22711900  0.00000000  0.21589200  1
  Ti  Ti8  1  0.33214000  0.50000000  0.48464600  1
  Ti  Ti9  1  0.17720600  0.00000000  0.51497000  1
  Ti  Ti10  1  0.37357000  0.50000000  0.17753400  1
  Ti  Ti11  1  0.12068000  0.00000000  0.83328900  1
  H  H12  1  0.52103300  0.50000000  0.53635900  1
  H  H13  1  0.99996100  0.00000000  0.03369100  1
  H  H14  1  0.54665500  0.50000000  0.21222500  1
  H  H15  1  0.95565900  0.00000000  0.78889800  1
  H  H16  1  0.02103300  0.00000000  0.53635900  1
  H  H17  1  0.49996100  0.50000000  0.03369100  1
  H  H18  1  0.04665500  0.00000000  0.21222500  1
  H  H19  1  0.45565900  0.50000000  0.78889800  1
  O  O20  1  0.83253000  0.00000000  0.96936800  1
  O  O21  1  0.66797200  0.50000000  0.03523600  1
  O  O22  1  0.86557000  0.00000000  0.68385000  1
  O  O23  1  0.63417900  0.50000000  0.31806000  1
  O  O24  1  0.92090600  0.00000000  0.39231800  1
  O  O25  1  0.57832600  0.50000000  0.59891500  1
  O  O26  1  0.99076200  0.00000000  0.13843600  1
  O  O27  1  0.51219100  0.50000000  0.85983000  1
  O  O28  1  0.65177400  0.00000000  0.82270200  1
  O  O29  1  0.84691000  0.50000000  0.17895600  1
  O  O30  1  0.70648500  0.00000000  0.54132800  1
  O  O31  1  0.79490300  0.50000000  0.45510500  1
  O  O32  1  0.75997300  0.00000000  0.25051500  1
  O  O33  1  0.73833900  0.50000000  0.74535400  1
  O  O34  1  0.33253000  0.50000000  0.96936800  1
  O  O35  1  0.16797200  0.00000000  0.03523600  1
  O  O36  1  0.36557000  0.50000000  0.68385000  1
  O  O37  1  0.13417900  0.00000000  0.31806000  1
  O  O38  1  0.42090600  0.50000000  0.39231800  1
  O  O39  1  0.07832600  0.00000000  0.59891500  1
  O  O40  1  0.49076200  0.50000000  0.13843600  1
  O  O41  1  0.01219100  0.00000000  0.85983000  1
  O  O42  1  0.15177400  0.50000000  0.82270200  1
  O  O43  1  0.34691000  0.00000000  0.17895600  1
  O  O44  1  0.20648500  0.50000000  0.54132800  1
  O  O45  1  0.29490300  0.00000000  0.45510500  1
  O  O46  1  0.25997300  0.50000000  0.25051500  1
  O  O47  1  0.23833900  0.00000000  0.74535400  1
