# generated using pymatgen
data_KSn4(PO4)3
_symmetry_space_group_name_H-M   'P 1'
_cell_length_a   10.06836813
_cell_length_b   10.06836813
_cell_length_c   25.23549578
_cell_angle_alpha   90.00000000
_cell_angle_beta   90.00000000
_cell_angle_gamma   120.00000000
_symmetry_Int_Tables_number   1
_chemical_formula_structural   KSn4(PO4)3
_chemical_formula_sum   'K6 Sn24 P18 O72'
_cell_volume   2215.44332860
_cell_formula_units_Z   6
loop_
 _symmetry_equiv_pos_site_id
 _symmetry_equiv_pos_as_xyz
  1  'x, y, z'
loop_
 _atom_site_type_symbol
 _atom_site_label
 _atom_site_symmetry_multiplicity
 _atom_site_fract_x
 _atom_site_fract_y
 _atom_site_fract_z
 _atom_site_occupancy
  K  K0  1  0.33333333  0.66666667  0.00927967  1
  K  K1  1  0.66666667  0.33333333  0.17594633  1
  K  K2  1  0.00000000  0.00000000  0.34261300  1
  K  K3  1  0.33333333  0.66666667  0.50927967  1
  K  K4  1  0.66666667  0.33333333  0.67594633  1
  K  K5  1  0.00000000  0.00000000  0.84261300  1
  Sn  Sn6  1  0.73820833  0.82252967  0.05628967  1
  Sn  Sn7  1  0.17747033  0.91567867  0.05628967  1
  Sn  Sn8  1  0.08432133  0.26179167  0.05628967  1
  Sn  Sn9  1  0.41765467  0.48919633  0.22295633  1
  Sn  Sn10  1  0.51080367  0.92845833  0.22295633  1
  Sn  Sn11  1  0.07154167  0.58234533  0.22295633  1
  Sn  Sn12  1  0.66666667  0.33333333  0.02802433  1
  Sn  Sn13  1  0.00000000  0.00000000  0.19469100  1
  Sn  Sn14  1  0.40487500  0.15586300  0.38962300  1
  Sn  Sn15  1  0.84413700  0.24901200  0.38962300  1
  Sn  Sn16  1  0.75098800  0.59512500  0.38962300  1
  Sn  Sn17  1  0.08432133  0.82252967  0.55628967  1
  Sn  Sn18  1  0.17747033  0.26179167  0.55628967  1
  Sn  Sn19  1  0.73820833  0.91567867  0.55628967  1
  Sn  Sn20  1  0.33333333  0.66666667  0.36135767  1
  Sn  Sn21  1  0.66666667  0.33333333  0.52802433  1
  Sn  Sn22  1  0.07154167  0.48919633  0.72295633  1
  Sn  Sn23  1  0.51080367  0.58234533  0.72295633  1
  Sn  Sn24  1  0.41765467  0.92845833  0.72295633  1
  Sn  Sn25  1  0.75098800  0.15586300  0.88962300  1
  Sn  Sn26  1  0.84413700  0.59512500  0.88962300  1
  Sn  Sn27  1  0.40487500  0.24901200  0.88962300  1
  Sn  Sn28  1  0.00000000  0.00000000  0.69469100  1
  Sn  Sn29  1  0.33333333  0.66666667  0.86135767  1
  P  P30  1  0.46823733  0.46322167  0.09402367  1
  P  P31  1  0.53677833  0.00501567  0.09402367  1
  P  P32  1  0.99498433  0.53176267  0.09402367  1
  P  P33  1  0.80157067  0.67168233  0.26069033  1
  P  P34  1  0.32831767  0.12988833  0.26069033  1
  P  P35  1  0.87011167  0.19842933  0.26069033  1
  P  P36  1  0.13490400  0.79655500  0.42735700  1
  P  P37  1  0.20344500  0.33834900  0.42735700  1
  P  P38  1  0.66165100  0.86509600  0.42735700  1
  P  P39  1  0.46823733  0.00501567  0.59402367  1
  P  P40  1  0.99498433  0.46322167  0.59402367  1
  P  P41  1  0.53677833  0.53176267  0.59402367  1
  P  P42  1  0.80157067  0.12988833  0.76069033  1
  P  P43  1  0.87011167  0.67168233  0.76069033  1
  P  P44  1  0.32831767  0.19842933  0.76069033  1
  P  P45  1  0.13490400  0.33834900  0.92735700  1
  P  P46  1  0.66165100  0.79655500  0.92735700  1
  P  P47  1  0.20344500  0.86509600  0.92735700  1
  O  O48  1  0.92336233  0.37192867  0.26315667  1
  O  O49  1  0.83432100  0.50758600  0.07889500  1
  O  O50  1  0.31980267  0.19225233  0.31635833  1
  O  O51  1  0.80774767  0.12755033  0.31635833  1
  O  O52  1  0.87244967  0.68019733  0.31635833  1
  O  O53  1  0.53911633  0.52558567  0.14969167  1
  O  O54  1  0.47441433  0.01353067  0.14969167  1
  O  O55  1  0.98646933  0.46088367  0.14969167  1
  O  O56  1  0.49241400  0.32673500  0.07889500  1
  O  O57  1  0.82574733  0.83234567  0.24556167  1
  O  O58  1  0.16765433  0.99340167  0.24556167  1
  O  O59  1  0.00659833  0.17425267  0.24556167  1
  O  O60  1  0.59002900  0.88476700  0.09649000  1
  O  O61  1  0.11523300  0.70526200  0.09649000  1
  O  O62  1  0.88224867  0.62305733  0.21866433  1
  O  O63  1  0.29473800  0.40997100  0.09649000  1
  O  O64  1  0.37694267  0.25919133  0.21866433  1
  O  O65  1  0.04360933  0.45108467  0.05199767  1
  O  O66  1  0.40747533  0.95639067  0.05199767  1
  O  O67  1  0.54891533  0.59252467  0.05199767  1
  O  O68  1  0.74080867  0.11775133  0.21866433  1
  O  O69  1  0.44856633  0.07663767  0.26315667  1
  O  O70  1  0.62807133  0.55143367  0.26315667  1
  O  O71  1  0.67326500  0.16567900  0.07889500  1
  O  O72  1  0.59002900  0.70526200  0.59649000  1
  O  O73  1  0.50098767  0.84091933  0.41222833  1
  O  O74  1  0.98646933  0.52558567  0.64969167  1
  O  O75  1  0.47441433  0.46088367  0.64969167  1
  O  O76  1  0.53911633  0.01353067  0.64969167  1
  O  O77  1  0.20578300  0.85891900  0.48302500  1
  O  O78  1  0.14108100  0.34686400  0.48302500  1
  O  O79  1  0.65313600  0.79421700  0.48302500  1
  O  O80  1  0.15908067  0.66006833  0.41222833  1
  O  O81  1  0.49241400  0.16567900  0.57889500  1
  O  O82  1  0.83432100  0.32673500  0.57889500  1
  O  O83  1  0.67326500  0.50758600  0.57889500  1
  O  O84  1  0.25669567  0.21810033  0.42982333  1
  O  O85  1  0.78189967  0.03859533  0.42982333  1
  O  O86  1  0.54891533  0.95639067  0.55199767  1
  O  O87  1  0.96140467  0.74330433  0.42982333  1
  O  O88  1  0.04360933  0.59252467  0.55199767  1
  O  O89  1  0.71027600  0.78441800  0.38533100  1
  O  O90  1  0.07414200  0.28972400  0.38533100  1
  O  O91  1  0.21558200  0.92585800  0.38533100  1
  O  O92  1  0.40747533  0.45108467  0.55199767  1
  O  O93  1  0.11523300  0.40997100  0.59649000  1
  O  O94  1  0.29473800  0.88476700  0.59649000  1
  O  O95  1  0.33993167  0.49901233  0.41222833  1
  O  O96  1  0.25669567  0.03859533  0.92982333  1
  O  O97  1  0.16765433  0.17425267  0.74556167  1
  O  O98  1  0.65313600  0.85891900  0.98302500  1
  O  O99  1  0.14108100  0.79421700  0.98302500  1
  O  O100  1  0.20578300  0.34686400  0.98302500  1
  O  O101  1  0.87244967  0.19225233  0.81635833  1
  O  O102  1  0.80774767  0.68019733  0.81635833  1
  O  O103  1  0.31980267  0.12755033  0.81635833  1
  O  O104  1  0.82574733  0.99340167  0.74556167  1
  O  O105  1  0.15908067  0.49901233  0.91222833  1
  O  O106  1  0.50098767  0.66006833  0.91222833  1
  O  O107  1  0.33993167  0.84091933  0.91222833  1
  O  O108  1  0.92336233  0.55143367  0.76315667  1
  O  O109  1  0.44856633  0.37192867  0.76315667  1
  O  O110  1  0.21558200  0.28972400  0.88533100  1
  O  O111  1  0.62807133  0.07663767  0.76315667  1
  O  O112  1  0.71027600  0.92585800  0.88533100  1
  O  O113  1  0.37694267  0.11775133  0.71866433  1
  O  O114  1  0.74080867  0.62305733  0.71866433  1
  O  O115  1  0.88224867  0.25919133  0.71866433  1
  O  O116  1  0.07414200  0.78441800  0.88533100  1
  O  O117  1  0.78189967  0.74330433  0.92982333  1
  O  O118  1  0.96140467  0.21810033  0.92982333  1
  O  O119  1  0.00659833  0.83234567  0.74556167  1
