# generated using pymatgen
data_Mg(HO)2
_symmetry_space_group_name_H-M   'P 1'
_cell_length_a   5.51537000
_cell_length_b   3.17023400
_cell_length_c   4.89032110
_cell_angle_alpha   90.00000000
_cell_angle_beta   94.94987022
_cell_angle_gamma   90.00000000
_symmetry_Int_Tables_number   1
_chemical_formula_structural   Mg(HO)2
_chemical_formula_sum   'Mg2 H4 O4'
_cell_volume   85.18843701
_cell_formula_units_Z   2
loop_
 _symmetry_equiv_pos_site_id
 _symmetry_equiv_pos_as_xyz
  1  'x, y, z'
loop_
 _atom_site_type_symbol
 _atom_site_label
 _atom_site_symmetry_multiplicity
 _atom_site_fract_x
 _atom_site_fract_y
 _atom_site_fract_z
 _atom_site_occupancy
  Mg  Mg0  1  0.00000000  0.96952500  0.00000000  1
  Mg  Mg1  1  0.50000000  0.46952500  0.00000000  1
  H  H2  1  0.69729200  0.89028400  0.40752900  1
  H  H3  1  0.80270800  0.39028400  0.59247100  1
  H  H4  1  0.19729200  0.39028400  0.40752900  1
  H  H5  1  0.30270800  0.89028400  0.59247100  1
  O  O6  1  0.68739900  0.97126100  0.21535800  1
  O  O7  1  0.81260100  0.47126100  0.78464200  1
  O  O8  1  0.18739900  0.47126100  0.21535800  1
  O  O9  1  0.31260100  0.97126100  0.78464200  1
