# generated using pymatgen
data_NaHSeO4
_symmetry_space_group_name_H-M   'P 1'
_cell_length_a   5.36075700
_cell_length_b   7.98687800
_cell_length_c   9.54488115
_cell_angle_alpha   90.00000000
_cell_angle_beta   112.11948384
_cell_angle_gamma   90.00000000
_symmetry_Int_Tables_number   1
_chemical_formula_structural   NaHSeO4
_chemical_formula_sum   'Na4 H4 Se4 O16'
_cell_volume   378.59296803
_cell_formula_units_Z   4
loop_
 _symmetry_equiv_pos_site_id
 _symmetry_equiv_pos_as_xyz
  1  'x, y, z'
loop_
 _atom_site_type_symbol
 _atom_site_label
 _atom_site_symmetry_multiplicity
 _atom_site_fract_x
 _atom_site_fract_y
 _atom_site_fract_z
 _atom_site_occupancy
  Na  Na0  1  0.50045700  0.99982800  0.70378800  1
  Na  Na1  1  0.50045700  0.50017200  0.20378800  1
  Na  Na2  1  0.49954300  0.00017200  0.29621200  1
  Na  Na3  1  0.49954300  0.49982800  0.79621200  1
  H  H4  1  0.86615600  0.46195900  0.63215500  1
  H  H5  1  0.86615600  0.03804100  0.13215500  1
  H  H6  1  0.13384400  0.53804100  0.36784500  1
  H  H7  1  0.13384400  0.96195900  0.86784500  1
  Se  Se8  1  0.91371200  0.72544900  0.56176800  1
  Se  Se9  1  0.91371200  0.77455100  0.06176800  1
  Se  Se10  1  0.08628800  0.27455100  0.43823200  1
  Se  Se11  1  0.08628800  0.22544900  0.93823200  1
  O  O12  1  0.72702200  0.89221100  0.54933800  1
  O  O13  1  0.72702200  0.60778900  0.04933800  1
  O  O14  1  0.27297800  0.10778900  0.45066200  1
  O  O15  1  0.27297800  0.39221100  0.95066200  1
  O  O16  1  0.23137900  0.74620100  0.67809100  1
  O  O17  1  0.23137900  0.75379900  0.17809100  1
  O  O18  1  0.76862100  0.25379900  0.32190900  1
  O  O19  1  0.76862100  0.24620100  0.82190900  1
  O  O20  1  0.87967300  0.65670200  0.39108100  1
  O  O21  1  0.87967300  0.84329800  0.89108100  1
  O  O22  1  0.12032700  0.34329800  0.60891900  1
  O  O23  1  0.12032700  0.15670200  0.10891900  1
  O  O24  1  0.76626700  0.56794600  0.63861300  1
  O  O25  1  0.76626700  0.93205400  0.13861300  1
  O  O26  1  0.23373300  0.43205400  0.36138700  1
  O  O27  1  0.23373300  0.06794600  0.86138700  1
