# generated using pymatgen
data_RbCa(H2N)3
_symmetry_space_group_name_H-M   'P 1'
_cell_length_a   7.38140000
_cell_length_b   12.03465200
_cell_length_c   6.67904466
_cell_angle_alpha   90.00000000
_cell_angle_beta   110.61034620
_cell_angle_gamma   90.00000000
_symmetry_Int_Tables_number   1
_chemical_formula_structural   RbCa(H2N)3
_chemical_formula_sum   'Rb4 Ca4 H24 N12'
_cell_volume   555.34211670
_cell_formula_units_Z   4
loop_
 _symmetry_equiv_pos_site_id
 _symmetry_equiv_pos_as_xyz
  1  'x, y, z'
loop_
 _atom_site_type_symbol
 _atom_site_label
 _atom_site_symmetry_multiplicity
 _atom_site_fract_x
 _atom_site_fract_y
 _atom_site_fract_z
 _atom_site_occupancy
  Rb  Rb0  1  0.50000000  0.21082600  0.75000000  1
  Rb  Rb1  1  0.50000000  0.78917400  0.25000000  1
  Rb  Rb2  1  0.00000000  0.71082600  0.75000000  1
  Rb  Rb3  1  0.00000000  0.28917400  0.25000000  1
  Ca  Ca4  1  0.00000000  0.00000000  0.50000000  1
  Ca  Ca5  1  0.00000000  0.00000000  0.00000000  1
  Ca  Ca6  1  0.50000000  0.50000000  0.50000000  1
  Ca  Ca7  1  0.50000000  0.50000000  0.00000000  1
  H  H8  1  0.60892650  0.29422650  0.33564100  1
  H  H9  1  0.39107350  0.29422650  0.16435900  1
  H  H10  1  0.39107350  0.70577350  0.66435900  1
  H  H11  1  0.60892650  0.70577350  0.83564100  1
  H  H12  1  0.66900500  0.13374400  0.19817900  1
  H  H13  1  0.33099500  0.13374400  0.30182100  1
  H  H14  1  0.33099500  0.86625600  0.80182100  1
  H  H15  1  0.66900500  0.86625600  0.69817900  1
  H  H16  1  0.33343800  0.99070300  0.88696900  1
  H  H17  1  0.66656200  0.99070300  0.61303100  1
  H  H18  1  0.66656200  0.00929700  0.11303100  1
  H  H19  1  0.33343800  0.00929700  0.38696900  1
  H  H20  1  0.10892650  0.79422650  0.33564100  1
  H  H21  1  0.89107350  0.79422650  0.16435900  1
  H  H22  1  0.89107350  0.20577350  0.66435900  1
  H  H23  1  0.10892650  0.20577350  0.83564100  1
  H  H24  1  0.16900500  0.63374400  0.19817900  1
  H  H25  1  0.83099500  0.63374400  0.30182100  1
  H  H26  1  0.83099500  0.36625600  0.80182100  1
  H  H27  1  0.16900500  0.36625600  0.69817900  1
  H  H28  1  0.83343800  0.49070300  0.88696900  1
  H  H29  1  0.16656200  0.49070300  0.61303100  1
  H  H30  1  0.16656200  0.50929700  0.11303100  1
  H  H31  1  0.83343800  0.50929700  0.38696900  1
  N  N32  1  0.50000000  0.65298000  0.75000000  1
  N  N33  1  0.50000000  0.34702000  0.25000000  1
  N  N34  1  0.75819500  0.07603000  0.16528300  1
  N  N35  1  0.24180500  0.07603000  0.33471700  1
  N  N36  1  0.24180500  0.92397000  0.83471700  1
  N  N37  1  0.75819500  0.92397000  0.66528300  1
  N  N38  1  0.00000000  0.15298000  0.75000000  1
  N  N39  1  0.00000000  0.84702000  0.25000000  1
  N  N40  1  0.25819500  0.57603000  0.16528300  1
  N  N41  1  0.74180500  0.57603000  0.33471700  1
  N  N42  1  0.74180500  0.42397000  0.83471700  1
  N  N43  1  0.25819500  0.42397000  0.66528300  1
