# generated using pymatgen
data_K2HS2NO6
_symmetry_space_group_name_H-M   'P 1'
_cell_length_a   12.72048200
_cell_length_b   7.57787000
_cell_length_c   7.32874595
_cell_angle_alpha   90.00000000
_cell_angle_beta   91.22644878
_cell_angle_gamma   90.00000000
_symmetry_Int_Tables_number   1
_chemical_formula_structural   K2HS2NO6
_chemical_formula_sum   'K8 H4 S8 N4 O24'
_cell_volume   706.28646091
_cell_formula_units_Z   4
loop_
 _symmetry_equiv_pos_site_id
 _symmetry_equiv_pos_as_xyz
  1  'x, y, z'
loop_
 _atom_site_type_symbol
 _atom_site_label
 _atom_site_symmetry_multiplicity
 _atom_site_fract_x
 _atom_site_fract_y
 _atom_site_fract_z
 _atom_site_occupancy
  K  K0  1  0.15269350  0.14529850  0.85720400  1
  K  K1  1  0.84867750  0.14780850  0.64527400  1
  K  K2  1  0.15269350  0.85470150  0.35720400  1
  K  K3  1  0.84867750  0.85219150  0.14527400  1
  K  K4  1  0.65269350  0.64529850  0.85720400  1
  K  K5  1  0.34867750  0.64780850  0.64527400  1
  K  K6  1  0.65269350  0.35470150  0.35720400  1
  K  K7  1  0.34867750  0.35219150  0.14527400  1
  H  H8  1  0.52539950  0.96857250  0.67690100  1
  H  H9  1  0.52539950  0.03142750  0.17690100  1
  H  H10  1  0.02539950  0.46857250  0.67690100  1
  H  H11  1  0.02539950  0.53142750  0.17690100  1
  S  S12  1  0.60032500  0.17654100  0.85871700  1
  S  S13  1  0.39883400  0.17946500  0.63695400  1
  S  S14  1  0.60032500  0.82345900  0.35871700  1
  S  S15  1  0.39883400  0.82053500  0.13695400  1
  S  S16  1  0.10032500  0.67654100  0.85871700  1
  S  S17  1  0.89883400  0.67946500  0.63695400  1
  S  S18  1  0.10032500  0.32345900  0.35871700  1
  S  S19  1  0.89883400  0.32053500  0.13695400  1
  N  N20  1  0.49848850  0.07325050  0.75206700  1
  N  N21  1  0.49848850  0.92674950  0.25206700  1
  N  N22  1  0.99848850  0.57325050  0.75206700  1
  N  N23  1  0.99848850  0.42674950  0.25206700  1
  O  O24  1  0.44216050  0.72415950  0.98162000  1
  O  O25  1  0.67035800  0.02966000  0.90664900  1
  O  O26  1  0.35432400  0.30023900  0.77209600  1
  O  O27  1  0.64853950  0.30306150  0.73296300  1
  O  O28  1  0.32896750  0.03394550  0.58562800  1
  O  O29  1  0.55433350  0.73512550  0.51742900  1
  O  O30  1  0.44216050  0.27584050  0.48162000  1
  O  O31  1  0.67035800  0.97034000  0.40664900  1
  O  O32  1  0.35432400  0.69976100  0.27209600  1
  O  O33  1  0.64853950  0.69693850  0.23296300  1
  O  O34  1  0.32896750  0.96605450  0.08562800  1
  O  O35  1  0.55433350  0.26487450  0.01742900  1
  O  O36  1  0.94216050  0.22415950  0.98162000  1
  O  O37  1  0.17035800  0.52966000  0.90664900  1
  O  O38  1  0.85432400  0.80023900  0.77209600  1
  O  O39  1  0.14853950  0.80306150  0.73296300  1
  O  O40  1  0.82896750  0.53394550  0.58562800  1
  O  O41  1  0.05433350  0.23512550  0.51742900  1
  O  O42  1  0.94216050  0.77584050  0.48162000  1
  O  O43  1  0.17035800  0.47034000  0.40664900  1
  O  O44  1  0.85432400  0.19976100  0.27209600  1
  O  O45  1  0.14853950  0.19693850  0.23296300  1
  O  O46  1  0.82896750  0.46605450  0.08562800  1
  O  O47  1  0.05433350  0.76487450  0.01742900  1
