# generated using pymatgen
data_Ba(HO2)2
_symmetry_space_group_name_H-M   'P 1'
_cell_length_a   4.19257500
_cell_length_b   9.56523200
_cell_length_c   8.54948652
_cell_angle_alpha   90.00000000
_cell_angle_beta   98.38450142
_cell_angle_gamma   90.00000000
_symmetry_Int_Tables_number   1
_chemical_formula_structural   Ba(HO2)2
_chemical_formula_sum   'Ba4 H8 O16'
_cell_volume   339.19510381
_cell_formula_units_Z   4
loop_
 _symmetry_equiv_pos_site_id
 _symmetry_equiv_pos_as_xyz
  1  'x, y, z'
loop_
 _atom_site_type_symbol
 _atom_site_label
 _atom_site_symmetry_multiplicity
 _atom_site_fract_x
 _atom_site_fract_y
 _atom_site_fract_z
 _atom_site_occupancy
  Ba  Ba0  1  0.62667300  0.70430500  0.63000400  1
  Ba  Ba1  1  0.37332700  0.20430500  0.86999600  1
  Ba  Ba2  1  0.37332700  0.29569500  0.36999600  1
  Ba  Ba3  1  0.62667300  0.79569500  0.13000400  1
  H  H4  1  0.95627000  0.39624000  0.65171000  1
  H  H5  1  0.04373000  0.89624000  0.84829000  1
  H  H6  1  0.04373000  0.60376000  0.34829000  1
  H  H7  1  0.95627000  0.10376000  0.15171000  1
  H  H8  1  0.79328700  0.07149200  0.62694700  1
  H  H9  1  0.20671300  0.57149200  0.87305300  1
  H  H10  1  0.20671300  0.92850800  0.37305300  1
  H  H11  1  0.79328700  0.42850800  0.12694700  1
  O  O12  1  0.15492800  0.50323300  0.64921800  1
  O  O13  1  0.84507200  0.00323300  0.85078200  1
  O  O14  1  0.84507200  0.49676700  0.35078200  1
  O  O15  1  0.15492800  0.99676700  0.14921800  1
  O  O16  1  0.79677200  0.30103000  0.65905900  1
  O  O17  1  0.20322800  0.80103000  0.84094100  1
  O  O18  1  0.20322800  0.69897000  0.34094100  1
  O  O19  1  0.79677200  0.19897000  0.15905900  1
  O  O20  1  0.95006800  0.19231800  0.56789000  1
  O  O21  1  0.04993200  0.69231800  0.93211000  1
  O  O22  1  0.04993200  0.80768200  0.43211000  1
  O  O23  1  0.95006800  0.30768200  0.06789000  1
  O  O24  1  0.66346700  0.99816700  0.68736600  1
  O  O25  1  0.33653300  0.49816700  0.81263400  1
  O  O26  1  0.33653300  0.00183300  0.31263400  1
  O  O27  1  0.66346700  0.50183300  0.18736600  1
