# generated using pymatgen
data_FeH2SO5
_symmetry_space_group_name_H-M   'P 1'
_cell_length_a   6.97304938
_cell_length_b   7.83239600
_cell_length_c   7.78174772
_cell_angle_alpha   90.00000000
_cell_angle_beta   115.48299583
_cell_angle_gamma   90.00000000
_symmetry_Int_Tables_number   1
_chemical_formula_structural   FeH2SO5
_chemical_formula_sum   'Fe4 H8 S4 O20'
_cell_volume   383.65797244
_cell_formula_units_Z   4
loop_
 _symmetry_equiv_pos_site_id
 _symmetry_equiv_pos_as_xyz
  1  'x, y, z'
loop_
 _atom_site_type_symbol
 _atom_site_label
 _atom_site_symmetry_multiplicity
 _atom_site_fract_x
 _atom_site_fract_y
 _atom_site_fract_z
 _atom_site_occupancy
  Fe  Fe0  1  0.25000000  0.75000000  0.00000000  1
  Fe  Fe1  1  0.25000000  0.25000000  0.50000000  1
  Fe  Fe2  1  0.75000000  0.25000000  0.00000000  1
  Fe  Fe3  1  0.75000000  0.75000000  0.50000000  1
  H  H4  1  0.41109175  0.53629475  0.29107150  1
  H  H5  1  0.08890825  0.03629475  0.20892850  1
  H  H6  1  0.08890825  0.96370525  0.70892850  1
  H  H7  1  0.41109175  0.46370525  0.79107150  1
  H  H8  1  0.91109175  0.03629475  0.29107150  1
  H  H9  1  0.58890825  0.53629475  0.20892850  1
  H  H10  1  0.58890825  0.46370525  0.70892850  1
  H  H11  1  0.91109175  0.96370525  0.79107150  1
  S  S12  1  0.50000000  0.08900600  0.25000000  1
  S  S13  1  0.00000000  0.41099400  0.75000000  1
  S  S14  1  0.00000000  0.58900600  0.25000000  1
  S  S15  1  0.50000000  0.91099400  0.75000000  1
  O  O16  1  0.00000000  0.11006425  0.25000000  1
  O  O17  1  0.50000000  0.38993575  0.75000000  1
  O  O18  1  0.47957100  0.19639050  0.39691100  1
  O  O19  1  0.52042900  0.19639050  0.10308900  1
  O  O20  1  0.02042900  0.30360950  0.60308900  1
  O  O21  1  0.97957100  0.30360950  0.89691100  1
  O  O22  1  0.30694900  0.97642250  0.16065000  1
  O  O23  1  0.19305100  0.47642250  0.33935000  1
  O  O24  1  0.19305100  0.52357750  0.83935000  1
  O  O25  1  0.30694900  0.02357750  0.66065000  1
  O  O26  1  0.50000000  0.61006425  0.25000000  1
  O  O27  1  0.00000000  0.88993575  0.75000000  1
  O  O28  1  0.97957100  0.69639050  0.39691100  1
  O  O29  1  0.02042900  0.69639050  0.10308900  1
  O  O30  1  0.52042900  0.80360950  0.60308900  1
  O  O31  1  0.47957100  0.80360950  0.89691100  1
  O  O32  1  0.80694900  0.47642250  0.16065000  1
  O  O33  1  0.69305100  0.97642250  0.33935000  1
  O  O34  1  0.69305100  0.02357750  0.83935000  1
  O  O35  1  0.80694900  0.52357750  0.66065000  1
