# generated using pymatgen
data_Al(HO)3
_symmetry_space_group_name_H-M   'P 1'
_cell_length_a   8.68240200
_cell_length_b   5.17990500
_cell_length_c   12.73305486
_cell_angle_alpha   90.00000000
_cell_angle_beta   131.55798314
_cell_angle_gamma   90.00000000
_symmetry_Int_Tables_number   1
_chemical_formula_structural   Al(HO)3
_chemical_formula_sum   'Al8 H24 O24'
_cell_volume   428.51023532
_cell_formula_units_Z   8
loop_
 _symmetry_equiv_pos_site_id
 _symmetry_equiv_pos_as_xyz
  1  'x, y, z'
loop_
 _atom_site_type_symbol
 _atom_site_label
 _atom_site_symmetry_multiplicity
 _atom_site_fract_x
 _atom_site_fract_y
 _atom_site_fract_z
 _atom_site_occupancy
  Al  Al0  1  0.83975300  0.75622300  0.51418100  1
  Al  Al1  1  0.83975300  0.24377700  0.01418100  1
  Al  Al2  1  0.18766200  0.73386100  0.49862100  1
  Al  Al3  1  0.18766200  0.26613900  0.99862100  1
  Al  Al4  1  0.67630500  0.26969600  0.50763400  1
  Al  Al5  1  0.67630500  0.73030400  0.00763400  1
  Al  Al6  1  0.31751000  0.24823800  0.48933700  1
  Al  Al7  1  0.31751000  0.75176200  0.98933700  1
  H  H8  1  0.03648800  0.45006500  0.72419000  1
  H  H9  1  0.03648800  0.54993500  0.22419000  1
  H  H10  1  0.99990100  0.01862000  0.29359600  1
  H  H11  1  0.99990100  0.98138000  0.79359600  1
  H  H12  1  0.52063900  0.94135900  0.70865700  1
  H  H13  1  0.52063900  0.05864100  0.20865700  1
  H  H14  1  0.46401700  0.66034500  0.38579900  1
  H  H15  1  0.46401700  0.33965500  0.88579900  1
  H  H16  1  0.56388400  0.57731200  0.60466200  1
  H  H17  1  0.56388400  0.42268800  0.10466200  1
  H  H18  1  0.31356300  0.16670000  0.29929300  1
  H  H19  1  0.31356300  0.83330000  0.79929300  1
  H  H20  1  0.12867300  0.05172300  0.61937000  1
  H  H21  1  0.12867300  0.94827700  0.11937000  1
  H  H22  1  0.91973600  0.42075700  0.41524700  1
  H  H23  1  0.76310300  0.60828900  0.27225300  1
  H  H24  1  0.91973600  0.57924300  0.91524700  1
  H  H25  1  0.76310300  0.39171100  0.77225300  1
  H  H26  1  0.71262800  0.88197300  0.63243400  1
  H  H27  1  0.71262800  0.11802700  0.13243400  1
  H  H28  1  0.38366000  0.42952800  0.70368200  1
  H  H29  1  0.38366000  0.57047200  0.20368200  1
  H  H30  1  0.83536500  0.10381800  0.39439000  1
  H  H31  1  0.83536500  0.89618200  0.89439000  1
  O  O32  1  0.91986500  0.45264400  0.61387700  1
  O  O33  1  0.91986500  0.54735600  0.11387700  1
  O  O34  1  0.07531400  0.04344200  0.39495200  1
  O  O35  1  0.07531400  0.95655800  0.89495200  1
  O  O36  1  0.43818500  0.92371900  0.60664700  1
  O  O37  1  0.43818500  0.07628100  0.10664700  1
  O  O38  1  0.57616300  0.58144400  0.39584300  1
  O  O39  1  0.57616300  0.41855600  0.89584300  1
  O  O40  1  0.61091900  0.39636500  0.62396700  1
  O  O41  1  0.61091900  0.60363500  0.12396700  1
  O  O42  1  0.41294300  0.12807700  0.40074700  1
  O  O43  1  0.41294300  0.87192300  0.90074700  1
  O  O44  1  0.11580600  0.86368600  0.61071400  1
  O  O45  1  0.11580600  0.13631400  0.11071400  1
  O  O46  1  0.88016300  0.60103500  0.38698400  1
  O  O47  1  0.88016300  0.39896500  0.88698400  1
  O  O48  1  0.79981700  0.96193400  0.61803100  1
  O  O49  1  0.79981700  0.03806600  0.11803100  1
  O  O50  1  0.20227300  0.54642900  0.38512400  1
  O  O51  1  0.20227300  0.45357100  0.88512400  1
  O  O52  1  0.27412100  0.41883400  0.60115200  1
  O  O53  1  0.27412100  0.58116600  0.10115200  1
  O  O54  1  0.73125300  0.06466000  0.40050500  1
  O  O55  1  0.73125300  0.93534000  0.90050500  1
