# generated using pymatgen
data_PH12C2N6O3F
_symmetry_space_group_name_H-M   'P 1'
_cell_length_a   13.34809600
_cell_length_b   7.35501800
_cell_length_c   11.86778689
_cell_angle_alpha   90.00000000
_cell_angle_beta   119.79233898
_cell_angle_gamma   90.00000000
_symmetry_Int_Tables_number   1
_chemical_formula_structural   PH12C2N6O3F
_chemical_formula_sum   'P4 H48 C8 N24 O12 F4'
_cell_volume   1011.13328869
_cell_formula_units_Z   4
loop_
 _symmetry_equiv_pos_site_id
 _symmetry_equiv_pos_as_xyz
  1  'x, y, z'
loop_
 _atom_site_type_symbol
 _atom_site_label
 _atom_site_symmetry_multiplicity
 _atom_site_fract_x
 _atom_site_fract_y
 _atom_site_fract_z
 _atom_site_occupancy
  P  P0  1  0.19843400  0.00000000  0.12705300  1
  P  P1  1  0.72533900  0.00000000  0.69534400  1
  P  P2  1  0.69843400  0.50000000  0.12705300  1
  P  P3  1  0.22533900  0.50000000  0.69534400  1
  H  H4  1  0.91827450  0.77942550  0.86929200  1
  H  H5  1  0.91827450  0.22057450  0.86929200  1
  H  H6  1  0.53740000  0.16670400  0.99070400  1
  H  H7  1  0.53740000  0.83329600  0.99070400  1
  H  H8  1  0.75770700  0.38036400  0.71276400  1
  H  H9  1  0.75770700  0.61963600  0.71276400  1
  H  H10  1  0.24133400  0.61940700  0.15376600  1
  H  H11  1  0.24133400  0.38059300  0.15376600  1
  H  H12  1  0.50660050  0.65906950  0.14722200  1
  H  H13  1  0.50660050  0.34093050  0.14722200  1
  H  H14  1  0.39212600  0.77948200  0.14714700  1
  H  H15  1  0.39212600  0.22051800  0.14714700  1
  H  H16  1  0.22127000  0.75508300  0.34524800  1
  H  H17  1  0.22127000  0.24491700  0.34524800  1
  H  H18  1  0.73081050  0.21634150  0.49860700  1
  H  H19  1  0.73081050  0.78365850  0.49860700  1
  H  H20  1  0.39153350  0.83354950  0.34053300  1
  H  H21  1  0.39153350  0.16645050  0.34053300  1
  H  H22  1  0.52450650  0.79893550  0.48501200  1
  H  H23  1  0.52450650  0.20106450  0.48501200  1
  H  H24  1  0.41695500  0.66613900  0.68224400  1
  H  H25  1  0.41695500  0.33386100  0.68224400  1
  H  H26  1  0.53666100  0.73699400  0.66927200  1
  H  H27  1  0.53666100  0.26300600  0.66927200  1
  H  H28  1  0.41827450  0.27942550  0.86929200  1
  H  H29  1  0.41827450  0.72057450  0.86929200  1
  H  H30  1  0.03740000  0.66670400  0.99070400  1
  H  H31  1  0.03740000  0.33329600  0.99070400  1
  H  H32  1  0.25770700  0.88036400  0.71276400  1
  H  H33  1  0.25770700  0.11963600  0.71276400  1
  H  H34  1  0.74133400  0.11940700  0.15376600  1
  H  H35  1  0.74133400  0.88059300  0.15376600  1
  H  H36  1  0.00660050  0.15906950  0.14722200  1
  H  H37  1  0.00660050  0.84093050  0.14722200  1
  H  H38  1  0.89212600  0.27948200  0.14714700  1
  H  H39  1  0.89212600  0.72051800  0.14714700  1
  H  H40  1  0.72127000  0.25508300  0.34524800  1
  H  H41  1  0.72127000  0.74491700  0.34524800  1
  H  H42  1  0.23081050  0.71634150  0.49860700  1
  H  H43  1  0.23081050  0.28365850  0.49860700  1
  H  H44  1  0.89153350  0.33354950  0.34053300  1
  H  H45  1  0.89153350  0.66645050  0.34053300  1
  H  H46  1  0.02450650  0.29893550  0.48501200  1
  H  H47  1  0.02450650  0.70106450  0.48501200  1
  H  H48  1  0.91695500  0.16613900  0.68224400  1
  H  H49  1  0.91695500  0.83386100  0.68224400  1
  H  H50  1  0.03666100  0.23699400  0.66927200  1
  H  H51  1  0.03666100  0.76300600  0.66927200  1
  C  C52  1  0.90495100  0.50000000  0.85936000  1
  C  C53  1  0.38049900  0.50000000  0.15046300  1
  C  C54  1  0.38441450  0.74650150  0.50079700  1
  C  C55  1  0.38441450  0.25349850  0.50079700  1
  C  C56  1  0.40495100  0.00000000  0.85936000  1
  C  C57  1  0.88049900  0.00000000  0.15046300  1
  C  C58  1  0.88441450  0.24650150  0.50079700  1
  C  C59  1  0.88441450  0.75349850  0.50079700  1
  N  N60  1  0.45734250  0.15843550  0.91129400  1
  N  N61  1  0.45734250  0.84156450  0.91129400  1
  N  N62  1  0.79909500  0.50000000  0.75542500  1
  N  N63  1  0.28109100  0.50000000  0.15282000  1
  N  N64  1  0.43083950  0.65744850  0.15016400  1
  N  N65  1  0.43083950  0.34255150  0.15016400  1
  N  N66  1  0.26951950  0.73303550  0.44311000  1
  N  N67  1  0.26951950  0.26696450  0.44311000  1
  N  N68  1  0.43665450  0.77829450  0.43142100  1
  N  N69  1  0.43665450  0.22170550  0.43142100  1
  N  N70  1  0.44959400  0.72718000  0.62998500  1
  N  N71  1  0.44959400  0.27282000  0.62998500  1
  N  N72  1  0.95734250  0.65843550  0.91129400  1
  N  N73  1  0.95734250  0.34156450  0.91129400  1
  N  N74  1  0.29909500  0.00000000  0.75542500  1
  N  N75  1  0.78109100  0.00000000  0.15282000  1
  N  N76  1  0.93083950  0.15744850  0.15016400  1
  N  N77  1  0.93083950  0.84255150  0.15016400  1
  N  N78  1  0.76951950  0.23303550  0.44311000  1
  N  N79  1  0.76951950  0.76696450  0.44311000  1
  N  N80  1  0.93665450  0.27829450  0.43142100  1
  N  N81  1  0.93665450  0.72170550  0.43142100  1
  N  N82  1  0.94959400  0.22718000  0.62998500  1
  N  N83  1  0.94959400  0.77282000  0.62998500  1
  O  O84  1  0.32951100  0.00000000  0.18332400  1
  O  O85  1  0.15306250  0.17550950  0.15534100  1
  O  O86  1  0.15306250  0.82449050  0.15534100  1
  O  O87  1  0.85747500  0.00000000  0.77182500  1
  O  O88  1  0.67411900  0.17530500  0.61873000  1
  O  O89  1  0.67411900  0.82469500  0.61873000  1
  O  O90  1  0.82951100  0.50000000  0.18332400  1
  O  O91  1  0.65306250  0.67550950  0.15534100  1
  O  O92  1  0.65306250  0.32449050  0.15534100  1
  O  O93  1  0.35747500  0.50000000  0.77182500  1
  O  O94  1  0.17411900  0.67530500  0.61873000  1
  O  O95  1  0.17411900  0.32469500  0.61873000  1
  F  F96  1  0.64333400  0.50000000  0.97073700  1
  F  F97  1  0.68601400  0.00000000  0.80434300  1
  F  F98  1  0.14333400  0.00000000  0.97073700  1
  F  F99  1  0.18601400  0.50000000  0.80434300  1
