# generated using pymatgen
data_MnPO4
_symmetry_space_group_name_H-M   'P 1'
_cell_length_a   14.32777826
_cell_length_b   14.32777826
_cell_length_c   9.37754200
_cell_angle_alpha   90.00000000
_cell_angle_beta   90.00000000
_cell_angle_gamma   120.00000000
_symmetry_Int_Tables_number   1
_chemical_formula_structural   MnPO4
_chemical_formula_sum   'Mn18 P18 O72'
_cell_volume   1667.16027267
_cell_formula_units_Z   18
loop_
 _symmetry_equiv_pos_site_id
 _symmetry_equiv_pos_as_xyz
  1  'x, y, z'
loop_
 _atom_site_type_symbol
 _atom_site_label
 _atom_site_symmetry_multiplicity
 _atom_site_fract_x
 _atom_site_fract_y
 _atom_site_fract_z
 _atom_site_occupancy
  Mn  Mn0  1  0.00558067  0.21385533  0.75051233  1
  Mn  Mn1  1  0.78614467  0.79172533  0.75051233  1
  Mn  Mn2  1  0.21155367  0.19765133  0.26543333  1
  Mn  Mn3  1  0.80234867  0.01390233  0.26543333  1
  Mn  Mn4  1  0.20827467  0.99441933  0.75051233  1
  Mn  Mn5  1  0.98609767  0.78844633  0.26543333  1
  Mn  Mn6  1  0.67224733  0.54718867  0.08384567  1
  Mn  Mn7  1  0.45281133  0.12505867  0.08384567  1
  Mn  Mn8  1  0.87822033  0.53098467  0.59876667  1
  Mn  Mn9  1  0.46901533  0.34723567  0.59876667  1
  Mn  Mn10  1  0.87494133  0.32775267  0.08384567  1
  Mn  Mn11  1  0.65276433  0.12177967  0.59876667  1
  Mn  Mn12  1  0.33891400  0.88052200  0.41717900  1
  Mn  Mn13  1  0.11947800  0.45839200  0.41717900  1
  Mn  Mn14  1  0.54488700  0.86431800  0.93210000  1
  Mn  Mn15  1  0.13568200  0.68056900  0.93210000  1
  Mn  Mn16  1  0.54160800  0.66108600  0.41717900  1
  Mn  Mn17  1  0.31943100  0.45511300  0.93210000  1
  P  P18  1  0.79551933  0.80511667  0.41476267  1
  P  P19  1  0.53538767  0.86299033  0.58376333  1
  P  P20  1  0.13700967  0.67239733  0.58376333  1
  P  P21  1  0.32760267  0.46461233  0.58376333  1
  P  P22  1  0.19488333  0.99040267  0.41476267  1
  P  P23  1  0.00959733  0.20448067  0.41476267  1
  P  P24  1  0.46218600  0.13845000  0.74809600  1
  P  P25  1  0.20205433  0.19632367  0.91709667  1
  P  P26  1  0.80367633  0.00573067  0.91709667  1
  P  P27  1  0.99426933  0.79794567  0.91709667  1
  P  P28  1  0.86155000  0.32373600  0.74809600  1
  P  P29  1  0.67626400  0.53781400  0.74809600  1
  P  P30  1  0.12885267  0.47178333  0.08142933  1
  P  P31  1  0.86872100  0.52965700  0.25043000  1
  P  P32  1  0.47034300  0.33906400  0.25043000  1
  P  P33  1  0.66093600  0.13127900  0.25043000  1
  P  P34  1  0.52821667  0.65706933  0.08142933  1
  P  P35  1  0.34293067  0.87114733  0.08142933  1
  O  O36  1  0.79042100  0.84945900  0.56352400  1
  O  O37  1  0.10827600  0.92682700  0.30085100  1
  O  O38  1  0.29809833  0.98455867  0.37629767  1
  O  O39  1  0.35132300  0.36981900  0.57570900  1
  O  O40  1  0.56255100  0.79844300  0.47828700  1
  O  O41  1  0.51525300  0.37418800  0.40202500  1
  O  O42  1  0.07317300  0.18144900  0.30085100  1
  O  O43  1  0.23589200  0.43744900  0.47828700  1
  O  O44  1  0.85893500  0.48474700  0.40202500  1
  O  O45  1  0.05903800  0.20957900  0.56352400  1
  O  O46  1  0.01849600  0.64867700  0.57570900  1
  O  O47  1  0.80690933  0.90289067  0.87780067  1
  O  O48  1  0.88888633  0.11782867  0.41179667  1
  O  O49  1  0.01544133  0.31353967  0.37629767  1
  O  O50  1  0.20155700  0.76410800  0.47828700  1
  O  O51  1  0.22894233  0.11111367  0.41179667  1
  O  O52  1  0.88217133  0.77105767  0.41179667  1
  O  O53  1  0.62581200  0.14106500  0.40202500  1
  O  O54  1  0.63018100  0.98150400  0.57570900  1
  O  O55  1  0.15054100  0.94096200  0.56352400  1
  O  O56  1  0.81855100  0.89172400  0.30085100  1
  O  O57  1  0.09710933  0.90401867  0.87780067  1
  O  O58  1  0.68646033  0.70190167  0.37629767  1
  O  O59  1  0.09598133  0.19309067  0.87780067  1
  O  O60  1  0.45708767  0.18279233  0.89685733  1
  O  O61  1  0.77494267  0.26016033  0.63418433  1
  O  O62  1  0.96476500  0.31789200  0.70963100  1
  O  O63  1  0.01798967  0.70315233  0.90904233  1
  O  O64  1  0.22921767  0.13177633  0.81162033  1
  O  O65  1  0.18191967  0.70752133  0.73535833  1
  O  O66  1  0.73983967  0.51478233  0.63418433  1
  O  O67  1  0.90255867  0.77078233  0.81162033  1
  O  O68  1  0.52560167  0.81808033  0.73535833  1
  O  O69  1  0.72570467  0.54291233  0.89685733  1
  O  O70  1  0.68516267  0.98201033  0.90904233  1
  O  O71  1  0.47357600  0.23622400  0.21113400  1
  O  O72  1  0.55555300  0.45116200  0.74513000  1
  O  O73  1  0.68210800  0.64687300  0.70963100  1
  O  O74  1  0.86822367  0.09744133  0.81162033  1
  O  O75  1  0.89560900  0.44444700  0.74513000  1
  O  O76  1  0.54883800  0.10439100  0.74513000  1
  O  O77  1  0.29247867  0.47439833  0.73535833  1
  O  O78  1  0.29684767  0.31483733  0.90904233  1
  O  O79  1  0.81720767  0.27429533  0.89685733  1
  O  O80  1  0.48521767  0.22505733  0.63418433  1
  O  O81  1  0.76377600  0.23735200  0.21113400  1
  O  O82  1  0.35312700  0.03523500  0.70963100  1
  O  O83  1  0.76264800  0.52642400  0.21113400  1
  O  O84  1  0.12375433  0.51612567  0.23019067  1
  O  O85  1  0.44160933  0.59349367  0.96751767  1
  O  O86  1  0.63143167  0.65122533  0.04296433  1
  O  O87  1  0.68465633  0.03648567  0.24237567  1
  O  O88  1  0.89588433  0.46510967  0.14495367  1
  O  O89  1  0.84858633  0.04085467  0.06869167  1
  O  O90  1  0.40650633  0.84811567  0.96751767  1
  O  O91  1  0.56922533  0.10411567  0.14495367  1
  O  O92  1  0.19226833  0.15141367  0.06869167  1
  O  O93  1  0.39237133  0.87624567  0.23019067  1
  O  O94  1  0.35182933  0.31534367  0.24237567  1
  O  O95  1  0.14024267  0.56955733  0.54446733  1
  O  O96  1  0.22221967  0.78449533  0.07846333  1
  O  O97  1  0.34877467  0.98020633  0.04296433  1
  O  O98  1  0.53489033  0.43077467  0.14495367  1
  O  O99  1  0.56227567  0.77778033  0.07846333  1
  O  O100  1  0.21550467  0.43772433  0.07846333  1
  O  O101  1  0.95914533  0.80773167  0.06869167  1
  O  O102  1  0.96351433  0.64817067  0.24237567  1
  O  O103  1  0.48387433  0.60762867  0.23019067  1
  O  O104  1  0.15188433  0.55839067  0.96751767  1
  O  O105  1  0.43044267  0.57068533  0.54446733  1
  O  O106  1  0.01979367  0.36856833  0.04296433  1
  O  O107  1  0.42931467  0.85975733  0.54446733  1
