# generated using pymatgen
data_K3Cu(CN)4
_symmetry_space_group_name_H-M   'P 1'
_cell_length_a   9.89926618
_cell_length_b   9.89926618
_cell_length_c   17.12357435
_cell_angle_alpha   90.00000000
_cell_angle_beta   90.00000000
_cell_angle_gamma   120.00000000
_symmetry_Int_Tables_number   1
_chemical_formula_structural   K3Cu(CN)4
_chemical_formula_sum   'K18 Cu6 C24 N24'
_cell_volume   1453.21897347
_cell_formula_units_Z   6
loop_
 _symmetry_equiv_pos_site_id
 _symmetry_equiv_pos_as_xyz
  1  'x, y, z'
loop_
 _atom_site_type_symbol
 _atom_site_label
 _atom_site_symmetry_multiplicity
 _atom_site_fract_x
 _atom_site_fract_y
 _atom_site_fract_z
 _atom_site_occupancy
  K  K0  1  0.44186433  0.04968967  0.05879267  1
  K  K1  1  0.95031033  0.39217467  0.05879267  1
  K  K2  1  0.60782533  0.55813567  0.05879267  1
  K  K3  1  0.27449200  0.38302300  0.89212600  1
  K  K4  1  0.61697700  0.89146900  0.89212600  1
  K  K5  1  0.10853100  0.72550800  0.89212600  1
  K  K6  1  0.10853100  0.38302300  0.39212600  1
  K  K7  1  0.61697700  0.72550800  0.39212600  1
  K  K8  1  0.27449200  0.89146900  0.39212600  1
  K  K9  1  0.94115867  0.71635633  0.22545933  1
  K  K10  1  0.28364367  0.22480233  0.22545933  1
  K  K11  1  0.77519767  0.05884133  0.22545933  1
  K  K12  1  0.77519767  0.71635633  0.72545933  1
  K  K13  1  0.28364367  0.05884133  0.72545933  1
  K  K14  1  0.94115867  0.22480233  0.72545933  1
  K  K15  1  0.60782533  0.04968967  0.55879267  1
  K  K16  1  0.95031033  0.55813567  0.55879267  1
  K  K17  1  0.44186433  0.39217467  0.55879267  1
  Cu  Cu18  1  0.33333333  0.66666667  0.16537067  1
  Cu  Cu19  1  0.33333333  0.66666667  0.66537067  1
  Cu  Cu20  1  0.00000000  0.00000000  0.49870400  1
  Cu  Cu21  1  0.00000000  0.00000000  0.99870400  1
  Cu  Cu22  1  0.66666667  0.33333333  0.83203733  1
  Cu  Cu23  1  0.66666667  0.33333333  0.33203733  1
  C  C24  1  0.30598433  0.83731667  0.20238667  1
  C  C25  1  0.53133233  0.69401567  0.20238667  1
  C  C26  1  0.33333333  0.66666667  0.55089967  1
  C  C27  1  0.33333333  0.66666667  0.05089967  1
  C  C28  1  0.16268333  0.46866767  0.20238667  1
  C  C29  1  0.82935000  0.02734900  0.03572000  1
  C  C30  1  0.97265100  0.80200100  0.03572000  1
  C  C31  1  0.19799900  0.17065000  0.03572000  1
  C  C32  1  0.97265100  0.17065000  0.53572000  1
  C  C33  1  0.19799900  0.02734900  0.53572000  1
  C  C34  1  0.00000000  0.00000000  0.88423300  1
  C  C35  1  0.00000000  0.00000000  0.38423300  1
  C  C36  1  0.82935000  0.80200100  0.53572000  1
  C  C37  1  0.49601667  0.36068233  0.36905333  1
  C  C38  1  0.63931767  0.13533433  0.36905333  1
  C  C39  1  0.86466567  0.50398333  0.36905333  1
  C  C40  1  0.63931767  0.50398333  0.86905333  1
  C  C41  1  0.86466567  0.36068233  0.86905333  1
  C  C42  1  0.66666667  0.33333333  0.21756633  1
  C  C43  1  0.66666667  0.33333333  0.71756633  1
  C  C44  1  0.49601667  0.13533433  0.86905333  1
  C  C45  1  0.16268333  0.69401567  0.70238667  1
  C  C46  1  0.30598433  0.46866767  0.70238667  1
  C  C47  1  0.53133233  0.83731667  0.70238667  1
  N  N48  1  0.72666567  0.04835433  0.05519633  1
  N  N49  1  0.05999900  0.34497800  0.22186300  1
  N  N50  1  0.28497900  0.94000100  0.22186300  1
  N  N51  1  0.65502200  0.71502100  0.22186300  1
  N  N52  1  0.33333333  0.66666667  0.48180267  1
  N  N53  1  0.33333333  0.66666667  0.98180267  1
  N  N54  1  0.32168867  0.27333433  0.05519633  1
  N  N55  1  0.95164567  0.67831133  0.05519633  1
  N  N56  1  0.39333233  0.38168767  0.38852967  1
  N  N57  1  0.72666567  0.67831133  0.55519633  1
  N  N58  1  0.95164567  0.27333433  0.55519633  1
  N  N59  1  0.32168867  0.04835433  0.55519633  1
  N  N60  1  0.00000000  0.00000000  0.81513600  1
  N  N61  1  0.00000000  0.00000000  0.31513600  1
  N  N62  1  0.98835533  0.60666767  0.38852967  1
  N  N63  1  0.61831233  0.01164467  0.38852967  1
  N  N64  1  0.05999900  0.71502100  0.72186300  1
  N  N65  1  0.39333233  0.01164467  0.88852967  1
  N  N66  1  0.61831233  0.60666767  0.88852967  1
  N  N67  1  0.98835533  0.38168767  0.88852967  1
  N  N68  1  0.66666667  0.33333333  0.14846933  1
  N  N69  1  0.66666667  0.33333333  0.64846933  1
  N  N70  1  0.65502200  0.94000100  0.72186300  1
  N  N71  1  0.28497900  0.34497800  0.72186300  1
