# generated using pymatgen
data_H2O
_symmetry_space_group_name_H-M   'P 1'
_cell_length_a   4.71607600
_cell_length_b   4.71607600
_cell_length_c   6.91813600
_cell_angle_alpha   90.00000000
_cell_angle_beta   90.00000000
_cell_angle_gamma   90.00000000
_symmetry_Int_Tables_number   1
_chemical_formula_structural   H2O
_chemical_formula_sum   'H16 O8'
_cell_volume   153.86884212
_cell_formula_units_Z   8
loop_
 _symmetry_equiv_pos_site_id
 _symmetry_equiv_pos_as_xyz
  1  'x, y, z'
loop_
 _atom_site_type_symbol
 _atom_site_label
 _atom_site_symmetry_multiplicity
 _atom_site_fract_x
 _atom_site_fract_y
 _atom_site_fract_z
 _atom_site_occupancy
  H  H0  1  0.66794650  0.50000000  0.18111650  1
  H  H1  1  0.50000000  0.16794650  0.43111650  1
  H  H2  1  0.50000000  0.83205350  0.43111650  1
  H  H3  1  0.33205350  0.50000000  0.18111650  1
  H  H4  1  0.33205350  0.00000000  0.06888350  1
  H  H5  1  0.00000000  0.83205350  0.31888350  1
  H  H6  1  0.00000000  0.16794650  0.31888350  1
  H  H7  1  0.66794650  0.00000000  0.06888350  1
  H  H8  1  0.16794650  0.00000000  0.68111650  1
  H  H9  1  0.00000000  0.66794650  0.93111650  1
  H  H10  1  0.00000000  0.33205350  0.93111650  1
  H  H11  1  0.83205350  0.00000000  0.68111650  1
  H  H12  1  0.83205350  0.50000000  0.56888350  1
  H  H13  1  0.50000000  0.33205350  0.81888350  1
  H  H14  1  0.50000000  0.66794650  0.81888350  1
  H  H15  1  0.16794650  0.50000000  0.56888350  1
  O  O16  1  0.50000000  0.50000000  0.26649400  1
  O  O17  1  0.00000000  0.50000000  0.01649400  1
  O  O18  1  0.00000000  0.50000000  0.48350600  1
  O  O19  1  0.00000000  0.00000000  0.23350600  1
  O  O20  1  0.00000000  0.00000000  0.76649400  1
  O  O21  1  0.50000000  0.00000000  0.51649400  1
  O  O22  1  0.50000000  0.00000000  0.98350600  1
  O  O23  1  0.50000000  0.50000000  0.73350600  1
