# generated using pymatgen
data_Yb2Se3
_symmetry_space_group_name_H-M   'P 1'
_cell_length_a   8.81841200
_cell_length_b   8.81841200
_cell_length_c   27.42696200
_cell_angle_alpha   90.00000000
_cell_angle_beta   90.00000000
_cell_angle_gamma   90.00000000
_symmetry_Int_Tables_number   1
_chemical_formula_structural   Yb2Se3
_chemical_formula_sum   'Yb32 Se48'
_cell_volume   2132.84097502
_cell_formula_units_Z   16
loop_
 _symmetry_equiv_pos_site_id
 _symmetry_equiv_pos_as_xyz
  1  'x, y, z'
loop_
 _atom_site_type_symbol
 _atom_site_label
 _atom_site_symmetry_multiplicity
 _atom_site_fract_x
 _atom_site_fract_y
 _atom_site_fract_z
 _atom_site_occupancy
  Yb  Yb0  1  0.88307450  0.77849850  0.46099650  1
  Yb  Yb1  1  0.11692550  0.22150150  0.46099650  1
  Yb  Yb2  1  0.50000000  0.00000000  0.40981400  1
  Yb  Yb3  1  0.75000000  0.36251900  0.37500000  1
  Yb  Yb4  1  0.38307450  0.22150150  0.28900350  1
  Yb  Yb5  1  0.00000000  0.00000000  0.34018600  1
  Yb  Yb6  1  0.61692550  0.77849850  0.28900350  1
  Yb  Yb7  1  0.25000000  0.63748100  0.37500000  1
  Yb  Yb8  1  0.27849850  0.88307450  0.21099650  1
  Yb  Yb9  1  0.86251900  0.75000000  0.12500000  1
  Yb  Yb10  1  0.50000000  0.50000000  0.15981400  1
  Yb  Yb11  1  0.13748100  0.25000000  0.12500000  1
  Yb  Yb12  1  0.72150150  0.11692550  0.21099650  1
  Yb  Yb13  1  0.50000000  0.00000000  0.09018600  1
  Yb  Yb14  1  0.72150150  0.38307450  0.03900350  1
  Yb  Yb15  1  0.27849850  0.61692550  0.03900350  1
  Yb  Yb16  1  0.38307450  0.27849850  0.96099650  1
  Yb  Yb17  1  0.61692550  0.72150150  0.96099650  1
  Yb  Yb18  1  0.00000000  0.50000000  0.90981400  1
  Yb  Yb19  1  0.25000000  0.86251900  0.87500000  1
  Yb  Yb20  1  0.88307450  0.72150150  0.78900350  1
  Yb  Yb21  1  0.50000000  0.50000000  0.84018600  1
  Yb  Yb22  1  0.11692550  0.27849850  0.78900350  1
  Yb  Yb23  1  0.75000000  0.13748100  0.87500000  1
  Yb  Yb24  1  0.77849850  0.38307450  0.71099650  1
  Yb  Yb25  1  0.36251900  0.25000000  0.62500000  1
  Yb  Yb26  1  0.00000000  0.00000000  0.65981400  1
  Yb  Yb27  1  0.63748100  0.75000000  0.62500000  1
  Yb  Yb28  1  0.22150150  0.61692550  0.71099650  1
  Yb  Yb29  1  0.00000000  0.50000000  0.59018600  1
  Yb  Yb30  1  0.22150150  0.88307450  0.53900350  1
  Yb  Yb31  1  0.77849850  0.11692550  0.53900350  1
  Se  Se32  1  0.18181700  0.90887100  0.43336000  1
  Se  Se33  1  0.62949600  0.67482700  0.39711600  1
  Se  Se34  1  0.81818300  0.09112900  0.43336000  1
  Se  Se35  1  0.68181700  0.09112900  0.31664000  1
  Se  Se36  1  0.31818300  0.90887100  0.31664000  1
  Se  Se37  1  0.37050400  0.32517300  0.39711600  1
  Se  Se38  1  0.87050400  0.67482700  0.35288400  1
  Se  Se39  1  0.62810000  0.45147900  0.26553500  1
  Se  Se40  1  0.12949600  0.32517300  0.35288400  1
  Se  Se41  1  0.04852100  0.12810000  0.23446500  1
  Se  Se42  1  0.37190000  0.54852100  0.26553500  1
  Se  Se43  1  0.17482700  0.62949600  0.14711600  1
  Se  Se44  1  0.82517300  0.37050400  0.14711600  1
  Se  Se45  1  0.95147900  0.87190000  0.23446500  1
  Se  Se46  1  0.40887100  0.18181700  0.18336000  1
  Se  Se47  1  0.17482700  0.87050400  0.10288400  1
  Se  Se48  1  0.59112900  0.81818300  0.18336000  1
  Se  Se49  1  0.59112900  0.68181700  0.06664000  1
  Se  Se50  1  0.82517300  0.12949600  0.10288400  1
  Se  Se51  1  0.12810000  0.54852100  0.48446500  1
  Se  Se52  1  0.87190000  0.45147900  0.48446500  1
  Se  Se53  1  0.40887100  0.31818300  0.06664000  1
  Se  Se54  1  0.95147900  0.62810000  0.01553500  1
  Se  Se55  1  0.04852100  0.37190000  0.01553500  1
  Se  Se56  1  0.68181700  0.40887100  0.93336000  1
  Se  Se57  1  0.12949600  0.17482700  0.89711600  1
  Se  Se58  1  0.31818300  0.59112900  0.93336000  1
  Se  Se59  1  0.18181700  0.59112900  0.81664000  1
  Se  Se60  1  0.81818300  0.40887100  0.81664000  1
  Se  Se61  1  0.87050400  0.82517300  0.89711600  1
  Se  Se62  1  0.37050400  0.17482700  0.85288400  1
  Se  Se63  1  0.12810000  0.95147900  0.76553500  1
  Se  Se64  1  0.62949600  0.82517300  0.85288400  1
  Se  Se65  1  0.54852100  0.62810000  0.73446500  1
  Se  Se66  1  0.87190000  0.04852100  0.76553500  1
  Se  Se67  1  0.67482700  0.12949600  0.64711600  1
  Se  Se68  1  0.32517300  0.87050400  0.64711600  1
  Se  Se69  1  0.45147900  0.37190000  0.73446500  1
  Se  Se70  1  0.90887100  0.68181700  0.68336000  1
  Se  Se71  1  0.67482700  0.37050400  0.60288400  1
  Se  Se72  1  0.09112900  0.31818300  0.68336000  1
  Se  Se73  1  0.09112900  0.18181700  0.56664000  1
  Se  Se74  1  0.32517300  0.62949600  0.60288400  1
  Se  Se75  1  0.62810000  0.04852100  0.98446500  1
  Se  Se76  1  0.37190000  0.95147900  0.98446500  1
  Se  Se77  1  0.90887100  0.81818300  0.56664000  1
  Se  Se78  1  0.45147900  0.12810000  0.51553500  1
  Se  Se79  1  0.54852100  0.87190000  0.51553500  1
