# generated using pymatgen
data_NaZr2SN2Cl
_symmetry_space_group_name_H-M   'P 1'
_cell_length_a   6.40568000
_cell_length_b   7.36522600
_cell_length_c   10.23341514
_cell_angle_alpha   90.00000000
_cell_angle_beta   101.77696180
_cell_angle_gamma   90.00000000
_symmetry_Int_Tables_number   1
_chemical_formula_structural   NaZr2SN2Cl
_chemical_formula_sum   'Na4 Zr8 S4 N8 Cl4'
_cell_volume   472.64189435
_cell_formula_units_Z   4
loop_
 _symmetry_equiv_pos_site_id
 _symmetry_equiv_pos_as_xyz
  1  'x, y, z'
loop_
 _atom_site_type_symbol
 _atom_site_label
 _atom_site_symmetry_multiplicity
 _atom_site_fract_x
 _atom_site_fract_y
 _atom_site_fract_z
 _atom_site_occupancy
  Na  Na0  1  0.24079100  0.37495600  0.99486400  1
  Na  Na1  1  0.74079100  0.12504400  0.99486400  1
  Na  Na2  1  0.25920900  0.87495600  0.00513600  1
  Na  Na3  1  0.75920900  0.62504400  0.00513600  1
  Zr  Zr4  1  0.97258100  0.13339600  0.63163900  1
  Zr  Zr5  1  0.05416900  0.38097600  0.37394400  1
  Zr  Zr6  1  0.44583100  0.88097600  0.62605600  1
  Zr  Zr7  1  0.55416900  0.11902400  0.37394400  1
  Zr  Zr8  1  0.94583100  0.61902400  0.62605600  1
  Zr  Zr9  1  0.02741900  0.86660400  0.36836100  1
  Zr  Zr10  1  0.47258100  0.36660400  0.63163900  1
  Zr  Zr11  1  0.52741900  0.63339600  0.36836100  1
  S  S12  1  0.85300500  0.37728100  0.80853700  1
  S  S13  1  0.35300500  0.12271900  0.80853700  1
  S  S14  1  0.64699500  0.87728100  0.19146300  1
  S  S15  1  0.14699500  0.62271900  0.19146300  1
  N  N16  1  0.40196400  0.36667800  0.41198300  1
  N  N17  1  0.90196400  0.13332200  0.41198300  1
  N  N18  1  0.37356700  0.88513300  0.41302700  1
  N  N19  1  0.87356700  0.61486700  0.41302700  1
  N  N20  1  0.62643300  0.11486700  0.58697300  1
  N  N21  1  0.09803600  0.86667800  0.58801700  1
  N  N22  1  0.59803600  0.63332200  0.58801700  1
  N  N23  1  0.12643300  0.38513300  0.58697300  1
  Cl  Cl24  1  0.63979800  0.37168700  0.17269700  1
  Cl  Cl25  1  0.13979800  0.12831300  0.17269700  1
  Cl  Cl26  1  0.86020200  0.87168700  0.82730300  1
  Cl  Cl27  1  0.36020200  0.62831300  0.82730300  1
