# generated using pymatgen
data_LiNd2Tl(MoO4)4
_symmetry_space_group_name_H-M   'P 1'
_cell_length_a   5.38936400
_cell_length_b   13.12652600
_cell_length_c   20.04557277
_cell_angle_alpha   90.00000000
_cell_angle_beta   93.06526518
_cell_angle_gamma   90.00000000
_symmetry_Int_Tables_number   1
_chemical_formula_structural   LiNd2Tl(MoO4)4
_chemical_formula_sum   'Li4 Nd8 Tl4 Mo16 O64'
_cell_volume   1416.06760547
_cell_formula_units_Z   4
loop_
 _symmetry_equiv_pos_site_id
 _symmetry_equiv_pos_as_xyz
  1  'x, y, z'
loop_
 _atom_site_type_symbol
 _atom_site_label
 _atom_site_symmetry_multiplicity
 _atom_site_fract_x
 _atom_site_fract_y
 _atom_site_fract_z
 _atom_site_occupancy
  Li  Li0  1  0.00000000  0.68582700  0.75000000  1
  Li  Li1  1  0.50000000  0.81417300  0.25000000  1
  Li  Li2  1  0.50000000  0.18582700  0.75000000  1
  Li  Li3  1  0.00000000  0.31417300  0.25000000  1
  Nd  Nd4  1  0.50040550  0.64613750  0.03371800  1
  Nd  Nd5  1  0.49959450  0.64613750  0.46628200  1
  Nd  Nd6  1  0.99959450  0.85386250  0.96628200  1
  Nd  Nd7  1  0.00040550  0.85386250  0.53371800  1
  Nd  Nd8  1  0.00040550  0.14613750  0.03371800  1
  Nd  Nd9  1  0.99959450  0.14613750  0.46628200  1
  Nd  Nd10  1  0.49959450  0.35386250  0.96628200  1
  Nd  Nd11  1  0.50040550  0.35386250  0.53371800  1
  Tl  Tl12  1  0.00000000  0.96854400  0.75000000  1
  Tl  Tl13  1  0.50000000  0.53145600  0.25000000  1
  Tl  Tl14  1  0.50000000  0.46854400  0.75000000  1
  Tl  Tl15  1  0.00000000  0.03145600  0.25000000  1
  Mo  Mo16  1  0.98967950  0.74411950  0.35204700  1
  Mo  Mo17  1  0.51032050  0.75588050  0.64795300  1
  Mo  Mo18  1  0.01032050  0.74411950  0.14795300  1
  Mo  Mo19  1  0.01329000  0.56382100  0.59213400  1
  Mo  Mo20  1  0.48967950  0.75588050  0.85204700  1
  Mo  Mo21  1  0.98671000  0.56382100  0.90786600  1
  Mo  Mo22  1  0.51329000  0.93617900  0.09213400  1
  Mo  Mo23  1  0.48671000  0.93617900  0.40786600  1
  Mo  Mo24  1  0.48967950  0.24411950  0.35204700  1
  Mo  Mo25  1  0.01032050  0.25588050  0.64795300  1
  Mo  Mo26  1  0.51032050  0.24411950  0.14795300  1
  Mo  Mo27  1  0.51329000  0.06382100  0.59213400  1
  Mo  Mo28  1  0.98967950  0.25588050  0.85204700  1
  Mo  Mo29  1  0.48671000  0.06382100  0.90786600  1
  Mo  Mo30  1  0.01329000  0.43617900  0.09213400  1
  Mo  Mo31  1  0.98671000  0.43617900  0.40786600  1
  O  O32  1  0.83166800  0.75974600  0.43235200  1
  O  O33  1  0.87015200  0.85833500  0.17309000  1
  O  O34  1  0.25996600  0.52178700  0.96037200  1
  O  O35  1  0.34722300  0.83169500  0.45646200  1
  O  O36  1  0.12984800  0.85833500  0.32691000  1
  O  O37  1  0.73744050  0.84815250  0.86667300  1
  O  O38  1  0.74003400  0.52178700  0.53962800  1
  O  O39  1  0.23744050  0.65184750  0.36667300  1
  O  O40  1  0.84722300  0.66830500  0.95646200  1
  O  O41  1  0.27416650  0.95946450  0.89970000  1
  O  O42  1  0.75996600  0.97821300  0.46037200  1
  O  O43  1  0.23370900  0.70702800  0.21162300  1
  O  O44  1  0.60443750  0.90597550  0.32991500  1
  O  O45  1  0.16833200  0.75974600  0.06764800  1
  O  O46  1  0.73370900  0.79297200  0.71162300  1
  O  O47  1  0.89556250  0.59402450  0.67008500  1
  O  O48  1  0.72583350  0.95946450  0.60030000  1
  O  O49  1  0.24003400  0.97821300  0.03962800  1
  O  O50  1  0.33166800  0.74025400  0.93235200  1
  O  O51  1  0.76629100  0.70702800  0.28837700  1
  O  O52  1  0.37015200  0.64166500  0.67309000  1
  O  O53  1  0.62984800  0.64166500  0.82691000  1
  O  O54  1  0.66833200  0.74025400  0.56764800  1
  O  O55  1  0.26629100  0.79297200  0.78837700  1
  O  O56  1  0.77416650  0.54053550  0.39970000  1
  O  O57  1  0.26255950  0.84815250  0.63332700  1
  O  O58  1  0.22583350  0.54053550  0.10030000  1
  O  O59  1  0.15277700  0.66830500  0.54353800  1
  O  O60  1  0.39556250  0.90597550  0.17008500  1
  O  O61  1  0.76255950  0.65184750  0.13332700  1
  O  O62  1  0.65277700  0.83169500  0.04353800  1
  O  O63  1  0.10443750  0.59402450  0.82991500  1
  O  O64  1  0.33166800  0.25974600  0.43235200  1
  O  O65  1  0.37015200  0.35833500  0.17309000  1
  O  O66  1  0.75996600  0.02178700  0.96037200  1
  O  O67  1  0.84722300  0.33169500  0.45646200  1
  O  O68  1  0.62984800  0.35833500  0.32691000  1
  O  O69  1  0.23744050  0.34815250  0.86667300  1
  O  O70  1  0.24003400  0.02178700  0.53962800  1
  O  O71  1  0.73744050  0.15184750  0.36667300  1
  O  O72  1  0.34722300  0.16830500  0.95646200  1
  O  O73  1  0.77416650  0.45946450  0.89970000  1
  O  O74  1  0.25996600  0.47821300  0.46037200  1
  O  O75  1  0.73370900  0.20702800  0.21162300  1
  O  O76  1  0.10443750  0.40597550  0.32991500  1
  O  O77  1  0.66833200  0.25974600  0.06764800  1
  O  O78  1  0.23370900  0.29297200  0.71162300  1
  O  O79  1  0.39556250  0.09402450  0.67008500  1
  O  O80  1  0.22583350  0.45946450  0.60030000  1
  O  O81  1  0.74003400  0.47821300  0.03962800  1
  O  O82  1  0.83166800  0.24025400  0.93235200  1
  O  O83  1  0.26629100  0.20702800  0.28837700  1
  O  O84  1  0.87015200  0.14166500  0.67309000  1
  O  O85  1  0.12984800  0.14166500  0.82691000  1
  O  O86  1  0.16833200  0.24025400  0.56764800  1
  O  O87  1  0.76629100  0.29297200  0.78837700  1
  O  O88  1  0.27416650  0.04053550  0.39970000  1
  O  O89  1  0.76255950  0.34815250  0.63332700  1
  O  O90  1  0.72583350  0.04053550  0.10030000  1
  O  O91  1  0.65277700  0.16830500  0.54353800  1
  O  O92  1  0.89556250  0.40597550  0.17008500  1
  O  O93  1  0.26255950  0.15184750  0.13332700  1
  O  O94  1  0.15277700  0.33169500  0.04353800  1
  O  O95  1  0.60443750  0.09402450  0.82991500  1
