# generated using pymatgen
data_TlGaSe2
_symmetry_space_group_name_H-M   'P 1'
_cell_length_a   10.96633800
_cell_length_b   10.96483400
_cell_length_c   15.89755644
_cell_angle_alpha   90.00000000
_cell_angle_beta   100.09709911
_cell_angle_gamma   90.00000000
_symmetry_Int_Tables_number   1
_chemical_formula_structural   TlGaSe2
_chemical_formula_sum   'Tl16 Ga16 Se32'
_cell_volume   1881.98043170
_cell_formula_units_Z   16
loop_
 _symmetry_equiv_pos_site_id
 _symmetry_equiv_pos_as_xyz
  1  'x, y, z'
loop_
 _atom_site_type_symbol
 _atom_site_label
 _atom_site_symmetry_multiplicity
 _atom_site_fract_x
 _atom_site_fract_y
 _atom_site_fract_z
 _atom_site_occupancy
  Tl  Tl0  1  0.24219650  0.93716550  0.23943200  1
  Tl  Tl1  1  0.48621850  0.81012650  0.72948100  1
  Tl  Tl2  1  0.80932250  0.06000150  0.00624200  1
  Tl  Tl3  1  0.55972300  0.18736100  0.51345100  1
  Tl  Tl4  1  0.24219650  0.06283450  0.73943200  1
  Tl  Tl5  1  0.48621850  0.18987350  0.22948100  1
  Tl  Tl6  1  0.55972300  0.81263900  0.01345100  1
  Tl  Tl7  1  0.80932250  0.93999850  0.50624200  1
  Tl  Tl8  1  0.74219650  0.43716550  0.23943200  1
  Tl  Tl9  1  0.98621850  0.31012650  0.72948100  1
  Tl  Tl10  1  0.30932250  0.56000150  0.00624200  1
  Tl  Tl11  1  0.05972300  0.68736100  0.51345100  1
  Tl  Tl12  1  0.74219650  0.56283450  0.73943200  1
  Tl  Tl13  1  0.98621850  0.68987350  0.22948100  1
  Tl  Tl14  1  0.05972300  0.31263900  0.01345100  1
  Tl  Tl15  1  0.30932250  0.43999850  0.50624200  1
  Ga  Ga16  1  0.63038600  0.18620900  0.78649400  1
  Ga  Ga17  1  0.88070800  0.06345100  0.28608800  1
  Ga  Ga18  1  0.42676250  0.80982650  0.46111700  1
  Ga  Ga19  1  0.17284000  0.06435400  0.46229600  1
  Ga  Ga20  1  0.17284000  0.93564600  0.96229600  1
  Ga  Ga21  1  0.42676250  0.19017350  0.96111700  1
  Ga  Ga22  1  0.63038600  0.81379100  0.28649400  1
  Ga  Ga23  1  0.88070800  0.93654900  0.78608800  1
  Ga  Ga24  1  0.13038600  0.68620900  0.78649400  1
  Ga  Ga25  1  0.38070800  0.56345100  0.28608800  1
  Ga  Ga26  1  0.92676250  0.30982650  0.46111700  1
  Ga  Ga27  1  0.67284000  0.56435400  0.46229600  1
  Ga  Ga28  1  0.67284000  0.43564600  0.96229600  1
  Ga  Ga29  1  0.92676250  0.69017350  0.96111700  1
  Ga  Ga30  1  0.13038600  0.31379100  0.28649400  1
  Ga  Ga31  1  0.38070800  0.43654900  0.78608800  1
  Se  Se32  1  0.57290500  0.31335200  0.05865000  1
  Se  Se33  1  0.48111100  0.68955300  0.19201900  1
  Se  Se34  1  0.73514300  0.93437500  0.19108300  1
  Se  Se35  1  0.52588650  0.42751450  0.37544500  1
  Se  Se36  1  0.52915600  0.94888600  0.37518000  1
  Se  Se37  1  0.76619400  0.18647800  0.37404300  1
  Se  Se38  1  0.32632100  0.06076600  0.05407800  1
  Se  Se39  1  0.73514300  0.06562500  0.69108300  1
  Se  Se40  1  0.28772750  0.81030450  0.87580100  1
  Se  Se41  1  0.28772750  0.18969550  0.37580100  1
  Se  Se42  1  0.32632100  0.93923400  0.55407800  1
  Se  Se43  1  0.52915600  0.05111400  0.87518000  1
  Se  Se44  1  0.52588650  0.57248550  0.87544500  1
  Se  Se45  1  0.48111100  0.31044700  0.69201900  1
  Se  Se46  1  0.57290500  0.68664800  0.55865000  1
  Se  Se47  1  0.76619400  0.81352200  0.87404300  1
  Se  Se48  1  0.07290500  0.81335200  0.05865000  1
  Se  Se49  1  0.98111100  0.18955300  0.19201900  1
  Se  Se50  1  0.23514300  0.43437500  0.19108300  1
  Se  Se51  1  0.02588650  0.92751450  0.37544500  1
  Se  Se52  1  0.02915600  0.44888600  0.37518000  1
  Se  Se53  1  0.26619400  0.68647800  0.37404300  1
  Se  Se54  1  0.82632100  0.56076600  0.05407800  1
  Se  Se55  1  0.23514300  0.56562500  0.69108300  1
  Se  Se56  1  0.78772750  0.31030450  0.87580100  1
  Se  Se57  1  0.78772750  0.68969550  0.37580100  1
  Se  Se58  1  0.82632100  0.43923400  0.55407800  1
  Se  Se59  1  0.02915600  0.55111400  0.87518000  1
  Se  Se60  1  0.02588650  0.07248550  0.87544500  1
  Se  Se61  1  0.98111100  0.81044700  0.69201900  1
  Se  Se62  1  0.07290500  0.18664800  0.55865000  1
  Se  Se63  1  0.26619400  0.31352200  0.87404300  1
