# generated using pymatgen
data_KLi3Ca7Ti2Si12(O18F)2
_symmetry_space_group_name_H-M   'P 1'
_cell_length_a   17.10839000
_cell_length_b   9.85136800
_cell_length_c   21.09820408
_cell_angle_alpha   90.00000000
_cell_angle_beta   112.55663910
_cell_angle_gamma   90.00000000
_symmetry_Int_Tables_number   1
_chemical_formula_structural   KLi3Ca7Ti2Si12(O18F)2
_chemical_formula_sum   'K4 Li12 Ca28 Ti8 Si48 O144 F8'
_cell_volume   3283.88879247
_cell_formula_units_Z   4
loop_
 _symmetry_equiv_pos_site_id
 _symmetry_equiv_pos_as_xyz
  1  'x, y, z'
loop_
 _atom_site_type_symbol
 _atom_site_label
 _atom_site_symmetry_multiplicity
 _atom_site_fract_x
 _atom_site_fract_y
 _atom_site_fract_z
 _atom_site_occupancy
  K  K0  1  0.50000000  0.57087000  0.75000000  1
  K  K1  1  0.50000000  0.42913000  0.25000000  1
  K  K2  1  0.00000000  0.07087000  0.75000000  1
  K  K3  1  0.00000000  0.92913000  0.25000000  1
  Li  Li4  1  0.75366150  0.31810250  0.75125600  1
  Li  Li5  1  0.74633850  0.81810250  0.74874400  1
  Li  Li6  1  0.50000000  0.08249400  0.75000000  1
  Li  Li7  1  0.25366150  0.18189750  0.25125600  1
  Li  Li8  1  0.24633850  0.68189750  0.24874400  1
  Li  Li9  1  0.50000000  0.91750600  0.25000000  1
  Li  Li10  1  0.25366150  0.81810250  0.75125600  1
  Li  Li11  1  0.24633850  0.31810250  0.74874400  1
  Li  Li12  1  0.00000000  0.58249400  0.75000000  1
  Li  Li13  1  0.75366150  0.68189750  0.25125600  1
  Li  Li14  1  0.74633850  0.18189750  0.24874400  1
  Li  Li15  1  0.00000000  0.41750600  0.25000000  1
  Ca  Ca16  1  0.07278050  0.63843150  0.00005300  1
  Ca  Ca17  1  0.57278050  0.86156850  0.50005300  1
  Ca  Ca18  1  0.14502850  0.28312250  0.00662600  1
  Ca  Ca19  1  0.72001700  0.57251400  0.51262800  1
  Ca  Ca20  1  0.77998300  0.07251400  0.98737200  1
  Ca  Ca21  1  0.92721950  0.36156850  0.99994700  1
  Ca  Ca22  1  0.00000000  0.00000000  0.00000000  1
  Ca  Ca23  1  0.85497150  0.71687750  0.99337400  1
  Ca  Ca24  1  0.64502850  0.21687750  0.50662600  1
  Ca  Ca25  1  0.42721950  0.13843150  0.49994700  1
  Ca  Ca26  1  0.22001700  0.92748600  0.01262800  1
  Ca  Ca27  1  0.27998300  0.42748600  0.48737200  1
  Ca  Ca28  1  0.50000000  0.50000000  0.50000000  1
  Ca  Ca29  1  0.35497150  0.78312250  0.49337400  1
  Ca  Ca30  1  0.57278050  0.13843150  0.00005300  1
  Ca  Ca31  1  0.07278050  0.36156850  0.50005300  1
  Ca  Ca32  1  0.64502850  0.78312250  0.00662600  1
  Ca  Ca33  1  0.22001700  0.07251400  0.51262800  1
  Ca  Ca34  1  0.27998300  0.57251400  0.98737200  1
  Ca  Ca35  1  0.42721950  0.86156850  0.99994700  1
  Ca  Ca36  1  0.50000000  0.50000000  0.00000000  1
  Ca  Ca37  1  0.35497150  0.21687750  0.99337400  1
  Ca  Ca38  1  0.14502850  0.71687750  0.50662600  1
  Ca  Ca39  1  0.92721950  0.63843150  0.49994700  1
  Ca  Ca40  1  0.72001700  0.42748600  0.01262800  1
  Ca  Ca41  1  0.77998300  0.92748600  0.48737200  1
  Ca  Ca42  1  0.00000000  0.00000000  0.50000000  1
  Ca  Ca43  1  0.85497150  0.28312250  0.49337400  1
  Ti  Ti44  1  0.33445950  0.92966850  0.25164900  1
  Ti  Ti45  1  0.16554050  0.42966850  0.24835100  1
  Ti  Ti46  1  0.66554050  0.07033150  0.74835100  1
  Ti  Ti47  1  0.83445950  0.57033150  0.75164900  1
  Ti  Ti48  1  0.83445950  0.42966850  0.25164900  1
  Ti  Ti49  1  0.66554050  0.92966850  0.24835100  1
  Ti  Ti50  1  0.16554050  0.57033150  0.74835100  1
  Ti  Ti51  1  0.33445950  0.07033150  0.75164900  1
  Si  Si52  1  0.38574150  0.26531050  0.63928100  1
  Si  Si53  1  0.43110000  0.32353700  0.86026600  1
  Si  Si54  1  0.86914100  0.13524200  0.85988200  1
  Si  Si55  1  0.23862550  0.99188750  0.36239400  1
  Si  Si56  1  0.13085900  0.86475800  0.14011800  1
  Si  Si57  1  0.56890000  0.67646300  0.13973400  1
  Si  Si58  1  0.61425850  0.73468950  0.36071900  1
  Si  Si59  1  0.63085900  0.63524200  0.64011800  1
  Si  Si60  1  0.32590200  0.18477900  0.14047800  1
  Si  Si61  1  0.49130450  0.87966050  0.86072900  1
  Si  Si62  1  0.76137450  0.00811250  0.63760600  1
  Si  Si63  1  0.26137450  0.49188750  0.13760600  1
  Si  Si64  1  0.67409800  0.18477900  0.35952200  1
  Si  Si65  1  0.50869550  0.87966050  0.63927100  1
  Si  Si66  1  0.32590200  0.81522100  0.64047800  1
  Si  Si67  1  0.56890000  0.32353700  0.63973400  1
  Si  Si68  1  0.73862550  0.50811250  0.86239400  1
  Si  Si69  1  0.61425850  0.26531050  0.86071900  1
  Si  Si70  1  0.36914100  0.36475800  0.35988200  1
  Si  Si71  1  0.43110000  0.67646300  0.36026600  1
  Si  Si72  1  0.50869550  0.12033950  0.13927100  1
  Si  Si73  1  0.49130450  0.12033950  0.36072900  1
  Si  Si74  1  0.67409800  0.81522100  0.85952200  1
  Si  Si75  1  0.38574150  0.73468950  0.13928100  1
  Si  Si76  1  0.88574150  0.76531050  0.63928100  1
  Si  Si77  1  0.93110000  0.82353700  0.86026600  1
  Si  Si78  1  0.36914100  0.63524200  0.85988200  1
  Si  Si79  1  0.73862550  0.49188750  0.36239400  1
  Si  Si80  1  0.63085900  0.36475800  0.14011800  1
  Si  Si81  1  0.06890000  0.17646300  0.13973400  1
  Si  Si82  1  0.11425850  0.23468950  0.36071900  1
  Si  Si83  1  0.13085900  0.13524200  0.64011800  1
  Si  Si84  1  0.82590200  0.68477900  0.14047800  1
  Si  Si85  1  0.99130450  0.37966050  0.86072900  1
  Si  Si86  1  0.26137450  0.50811250  0.63760600  1
  Si  Si87  1  0.76137450  0.99188750  0.13760600  1
  Si  Si88  1  0.17409800  0.68477900  0.35952200  1
  Si  Si89  1  0.00869550  0.37966050  0.63927100  1
  Si  Si90  1  0.82590200  0.31522100  0.64047800  1
  Si  Si91  1  0.06890000  0.82353700  0.63973400  1
  Si  Si92  1  0.23862550  0.00811250  0.86239400  1
  Si  Si93  1  0.11425850  0.76531050  0.86071900  1
  Si  Si94  1  0.86914100  0.86475800  0.35988200  1
  Si  Si95  1  0.93110000  0.17646300  0.36026600  1
  Si  Si96  1  0.00869550  0.62033950  0.13927100  1
  Si  Si97  1  0.99130450  0.62033950  0.36072900  1
  Si  Si98  1  0.17409800  0.31522100  0.85952200  1
  Si  Si99  1  0.88574150  0.23468950  0.13928100  1
  O  O100  1  0.42686650  0.74882550  0.84088000  1
  O  O101  1  0.64704200  0.23957600  0.69427000  1
  O  O102  1  0.34121850  0.40219250  0.65468600  1
  O  O103  1  0.80115800  0.49935900  0.94348900  1
  O  O104  1  0.87911350  0.15056050  0.93951200  1
  O  O105  1  0.33986700  0.22363200  0.55832300  1
  O  O106  1  0.34121850  0.59780750  0.15468600  1
  O  O107  1  0.28565550  0.02317750  0.31032500  1
  O  O108  1  0.04664850  0.21662750  0.05970000  1
  O  O109  1  0.19884200  0.50064100  0.05651100  1
  O  O110  1  0.33986700  0.77636800  0.05832300  1
  O  O111  1  0.55148550  0.99586650  0.19127600  1
  O  O112  1  0.42721050  0.17929650  0.15446200  1
  O  O113  1  0.38721700  0.14460600  0.69183600  1
  O  O114  1  0.85295800  0.73957600  0.80573000  1
  O  O115  1  0.62088650  0.65056050  0.56048800  1
  O  O116  1  0.91059950  0.98827850  0.85179600  1
  O  O117  1  0.47877800  0.08063600  0.05796500  1
  O  O118  1  0.54664850  0.28337250  0.55970000  1
  O  O119  1  0.41059950  0.51172150  0.35179600  1
  O  O120  1  0.30496600  0.09333600  0.19571500  1
  O  O121  1  0.47877800  0.91936400  0.55796500  1
  O  O122  1  0.44851450  0.99586650  0.30872400  1
  O  O123  1  0.65878150  0.40219250  0.84531400  1
  O  O124  1  0.57278950  0.17929650  0.34553800  1
  O  O125  1  0.42686650  0.25117450  0.34088000  1
  O  O126  1  0.27361300  0.34710100  0.30433900  1
  O  O127  1  0.55148550  0.00413350  0.69127600  1
  O  O128  1  0.77361300  0.15289900  0.80433900  1
  O  O129  1  0.30744100  0.34272700  0.15532900  1
  O  O130  1  0.57278950  0.82070350  0.84553800  1
  O  O131  1  0.37911350  0.34943950  0.43951200  1
  O  O132  1  0.66013300  0.77636800  0.44167700  1
  O  O133  1  0.69503400  0.90666400  0.80428500  1
  O  O134  1  0.52122200  0.91936400  0.94203500  1
  O  O135  1  0.45335150  0.71662750  0.44030000  1
  O  O136  1  0.27087950  0.14688750  0.06047200  1
  O  O137  1  0.77087950  0.35311250  0.56047200  1
  O  O138  1  0.22638700  0.84710100  0.19566100  1
  O  O139  1  0.69884200  0.99935900  0.55651100  1
  O  O140  1  0.78565550  0.47682250  0.81032500  1
  O  O141  1  0.71434450  0.97682250  0.68967500  1
  O  O142  1  0.21434450  0.52317750  0.18967500  1
  O  O143  1  0.95335150  0.78337250  0.94030000  1
  O  O144  1  0.61278300  0.85539400  0.30816400  1
  O  O145  1  0.48507650  0.69056250  0.15919700  1
  O  O146  1  0.66013300  0.22363200  0.94167700  1
  O  O147  1  0.51492350  0.30943750  0.84080300  1
  O  O148  1  0.65878150  0.59780750  0.34531400  1
  O  O149  1  0.58940050  0.48827850  0.64820400  1
  O  O150  1  0.22912050  0.64688750  0.43952800  1
  O  O151  1  0.19255900  0.84272700  0.34467100  1
  O  O152  1  0.72912050  0.85311250  0.93952800  1
  O  O153  1  0.44851450  0.00413350  0.80872400  1
  O  O154  1  0.72638700  0.65289900  0.69566100  1
  O  O155  1  0.57313350  0.74882550  0.65912000  1
  O  O156  1  0.48507650  0.30943750  0.65919700  1
  O  O157  1  0.19503400  0.59333600  0.30428500  1
  O  O158  1  0.42721050  0.82070350  0.65446200  1
  O  O159  1  0.30115800  0.00064100  0.44348900  1
  O  O160  1  0.51492350  0.69056250  0.34080300  1
  O  O161  1  0.52122200  0.08063600  0.44203500  1
  O  O162  1  0.38721700  0.85539400  0.19183600  1
  O  O163  1  0.61278300  0.14460600  0.80816400  1
  O  O164  1  0.08940050  0.01172150  0.14820400  1
  O  O165  1  0.35295800  0.76042400  0.30573000  1
  O  O166  1  0.57313350  0.25117450  0.15912000  1
  O  O167  1  0.14704200  0.26042400  0.19427000  1
  O  O168  1  0.12088650  0.84943950  0.06048800  1
  O  O169  1  0.69255900  0.65727300  0.84467100  1
  O  O170  1  0.80496600  0.40666400  0.69571500  1
  O  O171  1  0.80744100  0.15727300  0.65532900  1
  O  O172  1  0.92686650  0.24882550  0.84088000  1
  O  O173  1  0.14704200  0.73957600  0.69427000  1
  O  O174  1  0.84121850  0.90219250  0.65468600  1
  O  O175  1  0.30115800  0.99935900  0.94348900  1
  O  O176  1  0.37911350  0.65056050  0.93951200  1
  O  O177  1  0.83986700  0.72363200  0.55832300  1
  O  O178  1  0.84121850  0.09780750  0.15468600  1
  O  O179  1  0.78565550  0.52317750  0.31032500  1
  O  O180  1  0.54664850  0.71662750  0.05970000  1
  O  O181  1  0.69884200  0.00064100  0.05651100  1
  O  O182  1  0.83986700  0.27636800  0.05832300  1
  O  O183  1  0.05148550  0.49586650  0.19127600  1
  O  O184  1  0.92721050  0.67929650  0.15446200  1
  O  O185  1  0.88721700  0.64460600  0.69183600  1
  O  O186  1  0.35295800  0.23957600  0.80573000  1
  O  O187  1  0.12088650  0.15056050  0.56048800  1
  O  O188  1  0.41059950  0.48827850  0.85179600  1
  O  O189  1  0.97877800  0.58063600  0.05796500  1
  O  O190  1  0.04664850  0.78337250  0.55970000  1
  O  O191  1  0.91059950  0.01172150  0.35179600  1
  O  O192  1  0.80496600  0.59333600  0.19571500  1
  O  O193  1  0.97877800  0.41936400  0.55796500  1
  O  O194  1  0.94851450  0.49586650  0.30872400  1
  O  O195  1  0.15878150  0.90219250  0.84531400  1
  O  O196  1  0.07278950  0.67929650  0.34553800  1
  O  O197  1  0.92686650  0.75117450  0.34088000  1
  O  O198  1  0.77361300  0.84710100  0.30433900  1
  O  O199  1  0.05148550  0.50413350  0.69127600  1
  O  O200  1  0.27361300  0.65289900  0.80433900  1
  O  O201  1  0.80744100  0.84272700  0.15532900  1
  O  O202  1  0.07278950  0.32070350  0.84553800  1
  O  O203  1  0.87911350  0.84943950  0.43951200  1
  O  O204  1  0.16013300  0.27636800  0.44167700  1
  O  O205  1  0.19503400  0.40666400  0.80428500  1
  O  O206  1  0.02122200  0.41936400  0.94203500  1
  O  O207  1  0.95335150  0.21662750  0.44030000  1
  O  O208  1  0.77087950  0.64688750  0.06047200  1
  O  O209  1  0.27087950  0.85311250  0.56047200  1
  O  O210  1  0.72638700  0.34710100  0.19566100  1
  O  O211  1  0.19884200  0.49935900  0.55651100  1
  O  O212  1  0.28565550  0.97682250  0.81032500  1
  O  O213  1  0.21434450  0.47682250  0.68967500  1
  O  O214  1  0.71434450  0.02317750  0.18967500  1
  O  O215  1  0.45335150  0.28337250  0.94030000  1
  O  O216  1  0.11278300  0.35539400  0.30816400  1
  O  O217  1  0.98507650  0.19056250  0.15919700  1
  O  O218  1  0.16013300  0.72363200  0.94167700  1
  O  O219  1  0.01492350  0.80943750  0.84080300  1
  O  O220  1  0.15878150  0.09780750  0.34531400  1
  O  O221  1  0.08940050  0.98827850  0.64820400  1
  O  O222  1  0.72912050  0.14688750  0.43952800  1
  O  O223  1  0.69255900  0.34272700  0.34467100  1
  O  O224  1  0.22912050  0.35311250  0.93952800  1
  O  O225  1  0.94851450  0.50413350  0.80872400  1
  O  O226  1  0.22638700  0.15289900  0.69566100  1
  O  O227  1  0.07313350  0.24882550  0.65912000  1
  O  O228  1  0.98507650  0.80943750  0.65919700  1
  O  O229  1  0.69503400  0.09333600  0.30428500  1
  O  O230  1  0.92721050  0.32070350  0.65446200  1
  O  O231  1  0.80115800  0.50064100  0.44348900  1
  O  O232  1  0.01492350  0.19056250  0.34080300  1
  O  O233  1  0.02122200  0.58063600  0.44203500  1
  O  O234  1  0.88721700  0.35539400  0.19183600  1
  O  O235  1  0.11278300  0.64460600  0.80816400  1
  O  O236  1  0.58940050  0.51172150  0.14820400  1
  O  O237  1  0.85295800  0.26042400  0.30573000  1
  O  O238  1  0.07313350  0.75117450  0.15912000  1
  O  O239  1  0.64704200  0.76042400  0.19427000  1
  O  O240  1  0.62088650  0.34943950  0.06048800  1
  O  O241  1  0.19255900  0.15727300  0.84467100  1
  O  O242  1  0.30496600  0.90666400  0.69571500  1
  O  O243  1  0.30744100  0.65727300  0.65532900  1
  F  F244  1  0.60406750  0.43065550  0.46352900  1
  F  F245  1  0.39593250  0.43065550  0.03647100  1
  F  F246  1  0.60406750  0.56934450  0.96352900  1
  F  F247  1  0.39593250  0.56934450  0.53647100  1
  F  F248  1  0.10406750  0.93065550  0.46352900  1
  F  F249  1  0.89593250  0.93065550  0.03647100  1
  F  F250  1  0.10406750  0.06934450  0.96352900  1
  F  F251  1  0.89593250  0.06934450  0.53647100  1
