# generated using pymatgen
data_TaTlO3
_symmetry_space_group_name_H-M   'P 1'
_cell_length_a   13.17272000
_cell_length_b   7.62190000
_cell_length_c   13.17109641
_cell_angle_alpha   90.00000000
_cell_angle_beta   109.68741805
_cell_angle_gamma   90.00000000
_symmetry_Int_Tables_number   1
_chemical_formula_structural   TaTlO3
_chemical_formula_sum   'Ta16 Tl16 O48'
_cell_volume   1245.09218760
_cell_formula_units_Z   16
loop_
 _symmetry_equiv_pos_site_id
 _symmetry_equiv_pos_as_xyz
  1  'x, y, z'
loop_
 _atom_site_type_symbol
 _atom_site_label
 _atom_site_symmetry_multiplicity
 _atom_site_fract_x
 _atom_site_fract_y
 _atom_site_fract_z
 _atom_site_occupancy
  Ta  Ta0  1  0.75000000  0.25000000  0.50000000  1
  Ta  Ta1  1  0.50000000  0.00000000  0.50000000  1
  Ta  Ta2  1  0.00000000  0.00000000  0.00000000  1
  Ta  Ta3  1  0.00000000  0.00000000  0.50000000  1
  Ta  Ta4  1  0.00000000  0.75129500  0.25000000  1
  Ta  Ta5  1  0.75000000  0.75000000  0.00000000  1
  Ta  Ta6  1  0.50000000  0.74870500  0.75000000  1
  Ta  Ta7  1  0.00000000  0.50000000  0.00000000  1
  Ta  Ta8  1  0.25000000  0.75000000  0.50000000  1
  Ta  Ta9  1  0.00000000  0.50000000  0.50000000  1
  Ta  Ta10  1  0.50000000  0.50000000  0.00000000  1
  Ta  Ta11  1  0.50000000  0.50000000  0.50000000  1
  Ta  Ta12  1  0.50000000  0.25129500  0.25000000  1
  Ta  Ta13  1  0.25000000  0.25000000  0.00000000  1
  Ta  Ta14  1  0.00000000  0.24870500  0.75000000  1
  Ta  Ta15  1  0.50000000  0.00000000  0.00000000  1
  Tl  Tl16  1  0.73848250  0.94782750  0.26122100  1
  Tl  Tl17  1  0.75000000  0.75000000  0.50000000  1
  Tl  Tl18  1  0.50000000  0.74421300  0.25000000  1
  Tl  Tl19  1  0.23848250  0.55217250  0.76122100  1
  Tl  Tl20  1  0.25000000  0.75000000  0.00000000  1
  Tl  Tl21  1  0.26151750  0.94782750  0.23877900  1
  Tl  Tl22  1  0.00000000  0.75578700  0.75000000  1
  Tl  Tl23  1  0.76151750  0.55217250  0.73877900  1
  Tl  Tl24  1  0.23848250  0.44782750  0.26122100  1
  Tl  Tl25  1  0.25000000  0.25000000  0.50000000  1
  Tl  Tl26  1  0.00000000  0.24421300  0.25000000  1
  Tl  Tl27  1  0.73848250  0.05217250  0.76122100  1
  Tl  Tl28  1  0.75000000  0.25000000  0.00000000  1
  Tl  Tl29  1  0.76151750  0.44782750  0.23877900  1
  Tl  Tl30  1  0.50000000  0.25578700  0.75000000  1
  Tl  Tl31  1  0.26151750  0.05217250  0.73877900  1
  O  O32  1  0.84454800  0.74784800  0.15545700  1
  O  O33  1  0.84562750  0.06663450  0.47047300  1
  O  O34  1  0.84395750  0.43552850  0.46819600  1
  O  O35  1  0.52930400  0.06676700  0.15454100  1
  O  O36  1  0.47015550  0.74971550  0.02985600  1
  O  O37  1  0.84454800  0.25215200  0.65545700  1
  O  O38  1  0.84395750  0.56447150  0.96819600  1
  O  O39  1  0.47069600  0.06676700  0.34545900  1
  O  O40  1  0.03190750  0.93564050  0.15582000  1
  O  O41  1  0.52984450  0.74971550  0.47014400  1
  O  O42  1  0.34562750  0.43336550  0.97047300  1
  O  O43  1  0.96809250  0.93564050  0.34418000  1
  O  O44  1  0.15437250  0.06663450  0.02952700  1
  O  O45  1  0.53190750  0.56435950  0.65582000  1
  O  O46  1  0.97015550  0.75028450  0.52985600  1
  O  O47  1  0.46809250  0.56435950  0.84418000  1
  O  O48  1  0.02930400  0.43323300  0.65454100  1
  O  O49  1  0.65604250  0.93552850  0.03180400  1
  O  O50  1  0.02984450  0.75028450  0.97014400  1
  O  O51  1  0.65545200  0.24784800  0.34454300  1
  O  O52  1  0.97069600  0.43323300  0.84545900  1
  O  O53  1  0.65604250  0.06447150  0.53180400  1
  O  O54  1  0.65437250  0.43336550  0.52952700  1
  O  O55  1  0.65545200  0.75215200  0.84454300  1
  O  O56  1  0.34454800  0.24784800  0.15545700  1
  O  O57  1  0.34562750  0.56663450  0.47047300  1
  O  O58  1  0.34395750  0.93552850  0.46819600  1
  O  O59  1  0.02930400  0.56676700  0.15454100  1
  O  O60  1  0.97015550  0.24971550  0.02985600  1
  O  O61  1  0.34454800  0.75215200  0.65545700  1
  O  O62  1  0.34395750  0.06447150  0.96819600  1
  O  O63  1  0.97069600  0.56676700  0.34545900  1
  O  O64  1  0.53190750  0.43564050  0.15582000  1
  O  O65  1  0.02984450  0.24971550  0.47014400  1
  O  O66  1  0.84562750  0.93336550  0.97047300  1
  O  O67  1  0.46809250  0.43564050  0.34418000  1
  O  O68  1  0.65437250  0.56663450  0.02952700  1
  O  O69  1  0.03190750  0.06435950  0.65582000  1
  O  O70  1  0.47015550  0.25028450  0.52985600  1
  O  O71  1  0.96809250  0.06435950  0.84418000  1
  O  O72  1  0.52930400  0.93323300  0.65454100  1
  O  O73  1  0.15604250  0.43552850  0.03180400  1
  O  O74  1  0.52984450  0.25028450  0.97014400  1
  O  O75  1  0.15545200  0.74784800  0.34454300  1
  O  O76  1  0.47069600  0.93323300  0.84545900  1
  O  O77  1  0.15604250  0.56447150  0.53180400  1
  O  O78  1  0.15437250  0.93336550  0.52952700  1
  O  O79  1  0.15545200  0.25215200  0.84454300  1
