# generated using pymatgen
data_CdH6C(BrN)3
_symmetry_space_group_name_H-M   'P 1'
_cell_length_a   7.67197800
_cell_length_b   16.25287400
_cell_length_c   7.60467110
_cell_angle_alpha   90.00000000
_cell_angle_beta   108.40388989
_cell_angle_gamma   90.00000000
_symmetry_Int_Tables_number   1
_chemical_formula_structural   CdH6C(BrN)3
_chemical_formula_sum   'Cd4 H24 C4 Br12 N12'
_cell_volume   899.74120694
_cell_formula_units_Z   4
loop_
 _symmetry_equiv_pos_site_id
 _symmetry_equiv_pos_as_xyz
  1  'x, y, z'
loop_
 _atom_site_type_symbol
 _atom_site_label
 _atom_site_symmetry_multiplicity
 _atom_site_fract_x
 _atom_site_fract_y
 _atom_site_fract_z
 _atom_site_occupancy
  Cd  Cd0  1  0.50000000  0.54915500  0.25000000  1
  Cd  Cd1  1  0.00000000  0.95084500  0.75000000  1
  Cd  Cd2  1  0.00000000  0.04915500  0.25000000  1
  Cd  Cd3  1  0.50000000  0.45084500  0.75000000  1
  H  H4  1  0.93724900  0.58991900  0.08582000  1
  H  H5  1  0.06275100  0.58991900  0.41418000  1
  H  H6  1  0.95941300  0.68144800  0.97152600  1
  H  H7  1  0.04058700  0.68144800  0.52847400  1
  H  H8  1  0.46603500  0.69299500  0.62920600  1
  H  H9  1  0.53396500  0.69299500  0.87079400  1
  H  H10  1  0.96603500  0.80700500  0.12920600  1
  H  H11  1  0.03396500  0.80700500  0.37079400  1
  H  H12  1  0.45941300  0.81855200  0.47152600  1
  H  H13  1  0.54058700  0.81855200  0.02847400  1
  H  H14  1  0.43724900  0.91008100  0.58582000  1
  H  H15  1  0.56275100  0.91008100  0.91418000  1
  H  H16  1  0.43724900  0.08991900  0.08582000  1
  H  H17  1  0.56275100  0.08991900  0.41418000  1
  H  H18  1  0.45941300  0.18144800  0.97152600  1
  H  H19  1  0.54058700  0.18144800  0.52847400  1
  H  H20  1  0.96603500  0.19299500  0.62920600  1
  H  H21  1  0.03396500  0.19299500  0.87079400  1
  H  H22  1  0.46603500  0.30700500  0.12920600  1
  H  H23  1  0.53396500  0.30700500  0.37079400  1
  H  H24  1  0.95941300  0.31855200  0.47152600  1
  H  H25  1  0.04058700  0.31855200  0.02847400  1
  H  H26  1  0.93724900  0.41008100  0.58582000  1
  H  H27  1  0.06275100  0.41008100  0.91418000  1
  C  C28  1  0.00000000  0.69278200  0.25000000  1
  C  C29  1  0.50000000  0.80721800  0.75000000  1
  C  C30  1  0.50000000  0.19278200  0.25000000  1
  C  C31  1  0.00000000  0.30721800  0.75000000  1
  Br  Br32  1  0.73704550  0.54075750  0.63574700  1
  Br  Br33  1  0.26295450  0.54075750  0.86425300  1
  Br  Br34  1  0.50000000  0.71073200  0.25000000  1
  Br  Br35  1  0.00000000  0.78926800  0.75000000  1
  Br  Br36  1  0.23704550  0.95924250  0.13574700  1
  Br  Br37  1  0.76295450  0.95924250  0.36425300  1
  Br  Br38  1  0.23704550  0.04075750  0.63574700  1
  Br  Br39  1  0.76295450  0.04075750  0.86425300  1
  Br  Br40  1  0.00000000  0.21073200  0.25000000  1
  Br  Br41  1  0.50000000  0.28926800  0.75000000  1
  Br  Br42  1  0.73704550  0.45924250  0.13574700  1
  Br  Br43  1  0.26295450  0.45924250  0.36425300  1
  N  N44  1  0.95914150  0.65186250  0.08981400  1
  N  N45  1  0.04085850  0.65186250  0.41018600  1
  N  N46  1  0.50000000  0.72498900  0.75000000  1
  N  N47  1  0.00000000  0.77501100  0.25000000  1
  N  N48  1  0.45914150  0.84813750  0.58981400  1
  N  N49  1  0.54085850  0.84813750  0.91018600  1
  N  N50  1  0.45914150  0.15186250  0.08981400  1
  N  N51  1  0.54085850  0.15186250  0.41018600  1
  N  N52  1  0.00000000  0.22498900  0.75000000  1
  N  N53  1  0.50000000  0.27501100  0.25000000  1
  N  N54  1  0.95914150  0.34813750  0.58981400  1
  N  N55  1  0.04085850  0.34813750  0.91018600  1
