# generated using pymatgen
data_CaCu(Si2O5)2
_symmetry_space_group_name_H-M   'P 1'
_cell_length_a   7.37657100
_cell_length_b   7.37657100
_cell_length_c   15.43472300
_cell_angle_alpha   90.00000000
_cell_angle_beta   90.00000000
_cell_angle_gamma   90.00000000
_symmetry_Int_Tables_number   1
_chemical_formula_structural   CaCu(Si2O5)2
_chemical_formula_sum   'Ca4 Cu4 Si16 O40'
_cell_volume   839.86192603
_cell_formula_units_Z   4
loop_
 _symmetry_equiv_pos_site_id
 _symmetry_equiv_pos_as_xyz
  1  'x, y, z'
loop_
 _atom_site_type_symbol
 _atom_site_label
 _atom_site_symmetry_multiplicity
 _atom_site_fract_x
 _atom_site_fract_y
 _atom_site_fract_z
 _atom_site_occupancy
  Ca  Ca0  1  0.50000000  0.50000000  0.50000000  1
  Ca  Ca1  1  0.00000000  0.00000000  0.50000000  1
  Ca  Ca2  1  0.00000000  0.00000000  0.00000000  1
  Ca  Ca3  1  0.50000000  0.50000000  0.00000000  1
  Cu  Cu4  1  0.50000000  0.00000000  0.58390100  1
  Cu  Cu5  1  0.00000000  0.50000000  0.91609900  1
  Cu  Cu6  1  0.00000000  0.50000000  0.41609900  1
  Cu  Cu7  1  0.50000000  0.00000000  0.08390100  1
  Si  Si8  1  0.17607000  0.25189200  0.64798000  1
  Si  Si9  1  0.82393000  0.74810800  0.64798000  1
  Si  Si10  1  0.25189200  0.17607000  0.85202000  1
  Si  Si11  1  0.75189200  0.32393000  0.64798000  1
  Si  Si12  1  0.24810800  0.67607000  0.64798000  1
  Si  Si13  1  0.32393000  0.75189200  0.85202000  1
  Si  Si14  1  0.67607000  0.24810800  0.85202000  1
  Si  Si15  1  0.74810800  0.82393000  0.85202000  1
  Si  Si16  1  0.32393000  0.24810800  0.35202000  1
  Si  Si17  1  0.67607000  0.75189200  0.35202000  1
  Si  Si18  1  0.24810800  0.32393000  0.14798000  1
  Si  Si19  1  0.74810800  0.17607000  0.35202000  1
  Si  Si20  1  0.25189200  0.82393000  0.35202000  1
  Si  Si21  1  0.17607000  0.74810800  0.14798000  1
  Si  Si22  1  0.82393000  0.25189200  0.14798000  1
  Si  Si23  1  0.75189200  0.67607000  0.14798000  1
  O  O24  1  0.25491800  0.10116300  0.58270400  1
  O  O25  1  0.74508200  0.89883700  0.58270400  1
  O  O26  1  0.10116300  0.25491800  0.91729600  1
  O  O27  1  0.60116300  0.24508200  0.58270400  1
  O  O28  1  0.39883700  0.75491800  0.58270400  1
  O  O29  1  0.24508200  0.60116300  0.91729600  1
  O  O30  1  0.75491800  0.39883700  0.91729600  1
  O  O31  1  0.89883700  0.74508200  0.91729600  1
  O  O32  1  0.24508200  0.39883700  0.41729600  1
  O  O33  1  0.75491800  0.60116300  0.41729600  1
  O  O34  1  0.39883700  0.24508200  0.08270400  1
  O  O35  1  0.89883700  0.25491800  0.41729600  1
  O  O36  1  0.10116300  0.74508200  0.41729600  1
  O  O37  1  0.25491800  0.89883700  0.08270400  1
  O  O38  1  0.74508200  0.10116300  0.08270400  1
  O  O39  1  0.24724500  0.04349800  0.37304500  1
  O  O40  1  0.60116300  0.75491800  0.08270400  1
  O  O41  1  0.74724500  0.54349800  0.62695500  1
  O  O42  1  0.45650200  0.25275500  0.87304500  1
  O  O43  1  0.95650200  0.24724500  0.62695500  1
  O  O44  1  0.04349800  0.75275500  0.62695500  1
  O  O45  1  0.24724500  0.95650200  0.87304500  1
  O  O46  1  0.75275500  0.04349800  0.87304500  1
  O  O47  1  0.54349800  0.74724500  0.87304500  1
  O  O48  1  0.71015900  0.71015900  0.25000000  1
  O  O49  1  0.78984100  0.21015900  0.25000000  1
  O  O50  1  0.21015900  0.78984100  0.25000000  1
  O  O51  1  0.28984100  0.28984100  0.25000000  1
  O  O52  1  0.78984100  0.78984100  0.75000000  1
  O  O53  1  0.71015900  0.28984100  0.75000000  1
  O  O54  1  0.28984100  0.71015900  0.75000000  1
  O  O55  1  0.21015900  0.21015900  0.75000000  1
  O  O56  1  0.95650200  0.75275500  0.12695500  1
  O  O57  1  0.74724500  0.45650200  0.12695500  1
  O  O58  1  0.25275500  0.54349800  0.12695500  1
  O  O59  1  0.45650200  0.74724500  0.37304500  1
  O  O60  1  0.54349800  0.25275500  0.37304500  1
  O  O61  1  0.04349800  0.24724500  0.12695500  1
  O  O62  1  0.75275500  0.95650200  0.37304500  1
  O  O63  1  0.25275500  0.45650200  0.62695500  1
