# generated using pymatgen
data_Cs2MnTe2
_symmetry_space_group_name_H-M   'P 1'
_cell_length_a   7.28899000
_cell_length_b   8.03620200
_cell_length_c   15.45515400
_cell_angle_alpha   90.00000000
_cell_angle_beta   90.00000000
_cell_angle_gamma   90.00000000
_symmetry_Int_Tables_number   1
_chemical_formula_structural   Cs2MnTe2
_chemical_formula_sum   'Cs8 Mn4 Te8'
_cell_volume   905.29794810
_cell_formula_units_Z   4
loop_
 _symmetry_equiv_pos_site_id
 _symmetry_equiv_pos_as_xyz
  1  'x, y, z'
loop_
 _atom_site_type_symbol
 _atom_site_label
 _atom_site_symmetry_multiplicity
 _atom_site_fract_x
 _atom_site_fract_y
 _atom_site_fract_z
 _atom_site_occupancy
  Cs  Cs0  1  0.00000000  0.32660600  0.35417600  1
  Cs  Cs1  1  0.00000000  0.82660600  0.14582400  1
  Cs  Cs2  1  0.50000000  0.67339400  0.35417600  1
  Cs  Cs3  1  0.50000000  0.17339400  0.14582400  1
  Cs  Cs4  1  0.50000000  0.82660600  0.85417600  1
  Cs  Cs5  1  0.50000000  0.32660600  0.64582400  1
  Cs  Cs6  1  0.00000000  0.17339400  0.85417600  1
  Cs  Cs7  1  0.00000000  0.67339400  0.64582400  1
  Mn  Mn8  1  0.75000000  0.50000000  0.00000000  1
  Mn  Mn9  1  0.25000000  0.50000000  0.00000000  1
  Mn  Mn10  1  0.25000000  0.00000000  0.50000000  1
  Mn  Mn11  1  0.75000000  0.00000000  0.50000000  1
  Te  Te12  1  0.50000000  0.67808850  0.09817450  1
  Te  Te13  1  0.00000000  0.32191150  0.09817450  1
  Te  Te14  1  0.50000000  0.17808850  0.40182550  1
  Te  Te15  1  0.00000000  0.82191150  0.40182550  1
  Te  Te16  1  0.00000000  0.17808850  0.59817450  1
  Te  Te17  1  0.50000000  0.82191150  0.59817450  1
  Te  Te18  1  0.00000000  0.67808850  0.90182550  1
  Te  Te19  1  0.50000000  0.32191150  0.90182550  1
