# generated using pymatgen
data_H8PtO6
_symmetry_space_group_name_H-M   'P 1'
_cell_length_a   5.59898200
_cell_length_b   5.65291118
_cell_length_c   7.40608401
_cell_angle_alpha   88.37080081
_cell_angle_beta   86.07286704
_cell_angle_gamma   81.53932514
_symmetry_Int_Tables_number   1
_chemical_formula_structural   H8PtO6
_chemical_formula_sum   'H16 Pt2 O12'
_cell_volume   231.27116604
_cell_formula_units_Z   2
loop_
 _symmetry_equiv_pos_site_id
 _symmetry_equiv_pos_as_xyz
  1  'x, y, z'
loop_
 _atom_site_type_symbol
 _atom_site_label
 _atom_site_symmetry_multiplicity
 _atom_site_fract_x
 _atom_site_fract_y
 _atom_site_fract_z
 _atom_site_occupancy
  H  H0  1  0.72373900  0.12554100  0.74810800  1
  H  H1  1  0.42241500  0.20680100  0.87931000  1
  H  H2  1  0.08707500  0.37809300  0.67388100  1
  H  H3  1  0.40137400  0.10099600  0.16173300  1
  H  H4  1  0.51658000  0.82040200  0.17017200  1
  H  H5  1  0.14929500  0.44741800  0.34253400  1
  H  H6  1  0.86729900  0.59286800  0.35176200  1
  H  H7  1  0.62760800  0.74899500  0.91575400  1
  H  H8  1  0.45626800  0.44769600  0.49246100  1
  H  H9  1  0.46192200  0.44739900  0.99872400  1
  H  H10  1  0.73990400  0.60110600  0.60579400  1
  H  H11  1  0.12649000  0.80921200  0.80051700  1
  H  H12  1  0.17530400  0.75021100  0.50965100  1
  H  H13  1  0.85233200  0.13891200  0.22614400  1
  H  H14  1  0.97458600  0.00866200  0.02204700  1
  H  H15  1  0.94418400  0.04477200  0.47757900  1
  Pt  Pt16  1  0.49846500  0.00256200  0.49994600  1
  Pt  Pt17  1  0.99180200  0.47748100  0.00337500  1
  O  O18  1  0.57844900  0.04287600  0.75807300  1
  O  O19  1  0.93148800  0.40323700  0.74947600  1
  O  O20  1  0.40904800  0.95349400  0.24041500  1
  O  O21  1  0.02886800  0.56256800  0.27039300  1
  O  O22  1  0.64235000  0.63357900  0.01953800  1
  O  O23  1  0.32475400  0.34445600  0.49252000  1
  O  O24  1  0.34990500  0.31689500  0.99211900  1
  O  O25  1  0.65836600  0.65467700  0.49278200  1
  O  O26  1  0.10853600  0.78856600  0.93573900  1
  O  O27  1  0.17672000  0.89188800  0.58214300  1
  O  O28  1  0.87219400  0.16082900  0.08076400  1
  O  O29  1  0.80419800  0.13060800  0.41245600  1
