# generated using pymatgen
data_Cs4Re6S13
_symmetry_space_group_name_H-M   'P 1'
_cell_length_a   10.12698600
_cell_length_b   17.34243400
_cell_length_c   13.91795613
_cell_angle_alpha   90.00000000
_cell_angle_beta   100.75040917
_cell_angle_gamma   90.00000000
_symmetry_Int_Tables_number   1
_chemical_formula_structural   Cs4Re6S13
_chemical_formula_sum   'Cs16 Re24 S52'
_cell_volume   2401.46226777
_cell_formula_units_Z   4
loop_
 _symmetry_equiv_pos_site_id
 _symmetry_equiv_pos_as_xyz
  1  'x, y, z'
loop_
 _atom_site_type_symbol
 _atom_site_label
 _atom_site_symmetry_multiplicity
 _atom_site_fract_x
 _atom_site_fract_y
 _atom_site_fract_z
 _atom_site_occupancy
  Cs  Cs0  1  0.78044800  0.12416800  0.58671500  1
  Cs  Cs1  1  0.21955200  0.87583200  0.41328500  1
  Cs  Cs2  1  0.21955200  0.12416800  0.91328500  1
  Cs  Cs3  1  0.78044800  0.87583200  0.08671500  1
  Cs  Cs4  1  0.29528750  0.97896550  0.71544000  1
  Cs  Cs5  1  0.29528750  0.02103450  0.21544000  1
  Cs  Cs6  1  0.70471250  0.97896550  0.78456000  1
  Cs  Cs7  1  0.70471250  0.02103450  0.28456000  1
  Cs  Cs8  1  0.28044800  0.62416800  0.58671500  1
  Cs  Cs9  1  0.71955200  0.37583200  0.41328500  1
  Cs  Cs10  1  0.71955200  0.62416800  0.91328500  1
  Cs  Cs11  1  0.28044800  0.37583200  0.08671500  1
  Cs  Cs12  1  0.79528750  0.47896550  0.71544000  1
  Cs  Cs13  1  0.79528750  0.52103450  0.21544000  1
  Cs  Cs14  1  0.20471250  0.47896550  0.78456000  1
  Cs  Cs15  1  0.20471250  0.52103450  0.28456000  1
  Re  Re16  1  0.34657450  0.65708650  0.02290300  1
  Re  Re17  1  0.65342550  0.65708650  0.47709700  1
  Re  Re18  1  0.64028650  0.20520150  0.89066500  1
  Re  Re19  1  0.36830150  0.21667450  0.42134300  1
  Re  Re20  1  0.64028650  0.79479850  0.39066500  1
  Re  Re21  1  0.35971350  0.20520150  0.60933500  1
  Re  Re22  1  0.35971350  0.79479850  0.10933500  1
  Re  Re23  1  0.63169850  0.21667450  0.07865700  1
  Re  Re24  1  0.36830150  0.78332550  0.92134300  1
  Re  Re25  1  0.34657450  0.34291350  0.52290300  1
  Re  Re26  1  0.63169850  0.78332550  0.57865700  1
  Re  Re27  1  0.65342550  0.34291350  0.97709700  1
  Re  Re28  1  0.84657450  0.15708650  0.02290300  1
  Re  Re29  1  0.15342550  0.15708650  0.47709700  1
  Re  Re30  1  0.14028650  0.70520150  0.89066500  1
  Re  Re31  1  0.86830150  0.71667450  0.42134300  1
  Re  Re32  1  0.14028650  0.29479850  0.39066500  1
  Re  Re33  1  0.85971350  0.70520150  0.60933500  1
  Re  Re34  1  0.85971350  0.29479850  0.10933500  1
  Re  Re35  1  0.13169850  0.71667450  0.07865700  1
  Re  Re36  1  0.86830150  0.28332550  0.92134300  1
  Re  Re37  1  0.84657450  0.84291350  0.52290300  1
  Re  Re38  1  0.13169850  0.28332550  0.57865700  1
  Re  Re39  1  0.15342550  0.84291350  0.97709700  1
  S  S40  1  0.45880450  0.81652550  0.67434700  1
  S  S41  1  0.50000000  0.86073700  0.25000000  1
  S  S42  1  0.51384950  0.53404350  0.43772300  1
  S  S43  1  0.62842850  0.09280350  0.99489300  1
  S  S44  1  0.65141150  0.34386450  0.15074900  1
  S  S45  1  0.37157150  0.09280350  0.50510700  1
  S  S46  1  0.45880450  0.18347450  0.17434700  1
  S  S47  1  0.34858850  0.65613550  0.84925100  1
  S  S48  1  0.65141150  0.65613550  0.65074900  1
  S  S49  1  0.62842850  0.90719650  0.49489300  1
  S  S50  1  0.51384950  0.46595650  0.93772300  1
  S  S51  1  0.45394600  0.73637100  0.44892700  1
  S  S52  1  0.54605400  0.26362900  0.55107300  1
  S  S53  1  0.54119550  0.18347450  0.32565300  1
  S  S54  1  0.34858850  0.34386450  0.34925100  1
  S  S55  1  0.48615050  0.46595650  0.56227700  1
  S  S56  1  0.54119550  0.81652550  0.82565300  1
  S  S57  1  0.33141350  0.67687350  0.19305300  1
  S  S58  1  0.33141350  0.32312650  0.69305300  1
  S  S59  1  0.37157150  0.90719650  0.00510700  1
  S  S60  1  0.50000000  0.13926300  0.75000000  1
  S  S61  1  0.66858650  0.32312650  0.80694700  1
  S  S62  1  0.66858650  0.67687350  0.30694700  1
  S  S63  1  0.54605400  0.73637100  0.05107300  1
  S  S64  1  0.48615050  0.53404350  0.06227700  1
  S  S65  1  0.45394600  0.26362900  0.94892700  1
  S  S66  1  0.95880450  0.31652550  0.67434700  1
  S  S67  1  0.00000000  0.36073700  0.25000000  1
  S  S68  1  0.01384950  0.03404350  0.43772300  1
  S  S69  1  0.12842850  0.59280350  0.99489300  1
  S  S70  1  0.15141150  0.84386450  0.15074900  1
  S  S71  1  0.87157150  0.59280350  0.50510700  1
  S  S72  1  0.95880450  0.68347450  0.17434700  1
  S  S73  1  0.84858850  0.15613550  0.84925100  1
  S  S74  1  0.15141150  0.15613550  0.65074900  1
  S  S75  1  0.12842850  0.40719650  0.49489300  1
  S  S76  1  0.01384950  0.96595650  0.93772300  1
  S  S77  1  0.95394600  0.23637100  0.44892700  1
  S  S78  1  0.04605400  0.76362900  0.55107300  1
  S  S79  1  0.04119550  0.68347450  0.32565300  1
  S  S80  1  0.84858850  0.84386450  0.34925100  1
  S  S81  1  0.98615050  0.96595650  0.56227700  1
  S  S82  1  0.04119550  0.31652550  0.82565300  1
  S  S83  1  0.83141350  0.17687350  0.19305300  1
  S  S84  1  0.83141350  0.82312650  0.69305300  1
  S  S85  1  0.87157150  0.40719650  0.00510700  1
  S  S86  1  0.00000000  0.63926300  0.75000000  1
  S  S87  1  0.16858650  0.82312650  0.80694700  1
  S  S88  1  0.16858650  0.17687350  0.30694700  1
  S  S89  1  0.04605400  0.23637100  0.05107300  1
  S  S90  1  0.98615050  0.03404350  0.06227700  1
  S  S91  1  0.95394600  0.76362900  0.94892700  1
