# generated using pymatgen
data_Nb2O5
_symmetry_space_group_name_H-M   'P 1'
_cell_length_a   12.97668000
_cell_length_b   4.98169000
_cell_length_c   5.68564406
_cell_angle_alpha   90.00000000
_cell_angle_beta   103.88284929
_cell_angle_gamma   90.00000000
_symmetry_Int_Tables_number   1
_chemical_formula_structural   Nb2O5
_chemical_formula_sum   'Nb8 O20'
_cell_volume   356.81616129
_cell_formula_units_Z   4
loop_
 _symmetry_equiv_pos_site_id
 _symmetry_equiv_pos_as_xyz
  1  'x, y, z'
loop_
 _atom_site_type_symbol
 _atom_site_label
 _atom_site_symmetry_multiplicity
 _atom_site_fract_x
 _atom_site_fract_y
 _atom_site_fract_z
 _atom_site_occupancy
  Nb  Nb0  1  0.35873500  0.74237000  0.74697800  1
  Nb  Nb1  1  0.14126500  0.24237000  0.75302200  1
  Nb  Nb2  1  0.14126500  0.75763000  0.25302200  1
  Nb  Nb3  1  0.35873500  0.25763000  0.24697800  1
  Nb  Nb4  1  0.85873500  0.24237000  0.74697800  1
  Nb  Nb5  1  0.64126500  0.74237000  0.75302200  1
  Nb  Nb6  1  0.64126500  0.25763000  0.25302200  1
  Nb  Nb7  1  0.85873500  0.75763000  0.24697800  1
  O  O8  1  0.20534200  0.93135000  0.62801600  1
  O  O9  1  0.29465800  0.43135000  0.87198400  1
  O  O10  1  0.29465800  0.56865000  0.37198400  1
  O  O11  1  0.20534200  0.06865000  0.12801600  1
  O  O12  1  0.00000000  0.88846800  0.25000000  1
  O  O13  1  0.00000000  0.11153200  0.75000000  1
  O  O14  1  0.11151400  0.44852100  0.47981400  1
  O  O15  1  0.38848600  0.94852100  0.02018600  1
  O  O16  1  0.38848600  0.05147900  0.52018600  1
  O  O17  1  0.11151400  0.55147900  0.97981400  1
  O  O18  1  0.70534200  0.43135000  0.62801600  1
  O  O19  1  0.79465800  0.93135000  0.87198400  1
  O  O20  1  0.79465800  0.06865000  0.37198400  1
  O  O21  1  0.70534200  0.56865000  0.12801600  1
  O  O22  1  0.50000000  0.38846800  0.25000000  1
  O  O23  1  0.50000000  0.61153200  0.75000000  1
  O  O24  1  0.61151400  0.94852100  0.47981400  1
  O  O25  1  0.88848600  0.44852100  0.02018600  1
  O  O26  1  0.88848600  0.55147900  0.52018600  1
  O  O27  1  0.61151400  0.05147900  0.97981400  1
