# generated using pymatgen
data_CsU2H3(C2O7)2
_symmetry_space_group_name_H-M   'P 1'
_cell_length_a   5.57192600
_cell_length_b   13.70993200
_cell_length_c   9.67392809
_cell_angle_alpha   90.00000000
_cell_angle_beta   97.51284389
_cell_angle_gamma   90.00000000
_symmetry_Int_Tables_number   1
_chemical_formula_structural   CsU2H3(C2O7)2
_chemical_formula_sum   'Cs2 U4 H6 C8 O28'
_cell_volume   732.65452081
_cell_formula_units_Z   2
loop_
 _symmetry_equiv_pos_site_id
 _symmetry_equiv_pos_as_xyz
  1  'x, y, z'
loop_
 _atom_site_type_symbol
 _atom_site_label
 _atom_site_symmetry_multiplicity
 _atom_site_fract_x
 _atom_site_fract_y
 _atom_site_fract_z
 _atom_site_occupancy
  Cs  Cs0  1  0.54049200  0.25000000  0.63942700  1
  Cs  Cs1  1  0.45950800  0.75000000  0.36057300  1
  U  U2  1  0.21850000  0.41130100  0.23864000  1
  U  U3  1  0.21850000  0.08869900  0.23864000  1
  U  U4  1  0.78150000  0.91130100  0.76136000  1
  U  U5  1  0.78150000  0.58869900  0.76136000  1
  H  H6  1  0.14084700  0.19518700  0.86695700  1
  H  H7  1  0.93744100  0.25000000  0.13673700  1
  H  H8  1  0.06255900  0.75000000  0.86326300  1
  H  H9  1  0.85915300  0.80481300  0.13304300  1
  H  H10  1  0.85915300  0.69518700  0.13304300  1
  H  H11  1  0.14084700  0.30481300  0.86695700  1
  C  C12  1  0.51592500  0.95135800  0.03962800  1
  C  C13  1  0.48407500  0.04864200  0.96037200  1
  C  C14  1  0.96291900  0.05155700  0.52005200  1
  C  C15  1  0.51592500  0.54864200  0.03962800  1
  C  C16  1  0.03708100  0.94844300  0.47994800  1
  C  C17  1  0.03708100  0.55155700  0.47994800  1
  C  C18  1  0.96291900  0.44844300  0.52005200  1
  C  C19  1  0.48407500  0.45135800  0.96037200  1
  O  O20  1  0.42953800  0.55386300  0.15375000  1
  O  O21  1  0.50108400  0.37293400  0.33593900  1
  O  O22  1  0.06771100  0.55348600  0.85787900  1
  O  O23  1  0.16677700  0.94324900  0.38223700  1
  O  O24  1  0.50108400  0.12706600  0.33593900  1
  O  O25  1  0.09365600  0.25000000  0.19515900  1
  O  O26  1  0.03942800  0.37861800  0.45239000  1
  O  O27  1  0.37358000  0.11612700  0.01628700  1
  O  O28  1  0.57046200  0.05386300  0.84625000  1
  O  O29  1  0.05573700  0.25000000  0.81815000  1
  O  O30  1  0.42953800  0.94613700  0.15375000  1
  O  O31  1  0.93228900  0.05348600  0.14212100  1
  O  O32  1  0.83322300  0.44324900  0.61776300  1
  O  O33  1  0.96057200  0.62138200  0.54761000  1
  O  O34  1  0.62642000  0.61612700  0.98371300  1
  O  O35  1  0.62642000  0.88387300  0.98371300  1
  O  O36  1  0.96057200  0.87861800  0.54761000  1
  O  O37  1  0.06771100  0.94651400  0.85787900  1
  O  O38  1  0.90634400  0.75000000  0.80484100  1
  O  O39  1  0.83322300  0.05675100  0.61776300  1
  O  O40  1  0.49891600  0.87293400  0.66406100  1
  O  O41  1  0.57046200  0.44613700  0.84625000  1
  O  O42  1  0.37358000  0.38387300  0.01628700  1
  O  O43  1  0.94426300  0.75000000  0.18185000  1
  O  O44  1  0.03942800  0.12138200  0.45239000  1
  O  O45  1  0.93228900  0.44651400  0.14212100  1
  O  O46  1  0.16677700  0.55675100  0.38223700  1
  O  O47  1  0.49891600  0.62706600  0.66406100  1
