# generated using pymatgen
data_In5Br7
_symmetry_space_group_name_H-M   'P 1'
_cell_length_a   18.94919400
_cell_length_b   18.93145400
_cell_length_c   19.67025407
_cell_angle_alpha   90.00000000
_cell_angle_beta   104.04615370
_cell_angle_gamma   90.00000000
_symmetry_Int_Tables_number   1
_chemical_formula_structural   In5Br7
_chemical_formula_sum   'In80 Br112'
_cell_volume   6845.44091480
_cell_formula_units_Z   16
loop_
 _symmetry_equiv_pos_site_id
 _symmetry_equiv_pos_as_xyz
  1  'x, y, z'
loop_
 _atom_site_type_symbol
 _atom_site_label
 _atom_site_symmetry_multiplicity
 _atom_site_fract_x
 _atom_site_fract_y
 _atom_site_fract_z
 _atom_site_occupancy
  In  In0  1  0.24277650  0.41932550  0.55946200  1
  In  In1  1  0.04703200  0.24109600  0.61480200  1
  In  In2  1  0.80342800  0.57282900  0.22199200  1
  In  In3  1  0.69144700  0.58081300  0.89134200  1
  In  In4  1  0.16668150  0.43662550  0.22474700  1
  In  In5  1  0.16668150  0.56337450  0.72474700  1
  In  In6  1  0.95405400  0.83447500  0.61609800  1
  In  In7  1  0.35962350  0.41015450  0.88806200  1
  In  In8  1  0.05535850  0.25836450  0.34188800  1
  In  In9  1  0.98740750  0.45297750  0.37693000  1
  In  In10  1  0.05535850  0.74163550  0.84188800  1
  In  In11  1  0.14606500  0.33984800  0.84149900  1
  In  In12  1  0.00858450  0.29149950  0.84312000  1
  In  In13  1  0.80159950  0.30538850  0.23135200  1
  In  In14  1  0.99841800  0.62080700  0.11184000  1
  In  In15  1  0.80342800  0.42717100  0.72199200  1
  In  In16  1  0.09044450  0.21323050  0.11004100  1
  In  In17  1  0.27954100  0.27963800  0.07829500  1
  In  In18  1  0.27954100  0.72036200  0.57829500  1
  In  In19  1  0.69144700  0.41918700  0.39134200  1
  In  In20  1  0.80159950  0.69461150  0.73135200  1
  In  In21  1  0.09044450  0.78676950  0.61004100  1
  In  In22  1  0.60600700  0.45506600  0.07644200  1
  In  In23  1  0.00858450  0.70850050  0.34312000  1
  In  In24  1  0.99841800  0.37919300  0.61184000  1
  In  In25  1  0.14606500  0.66015200  0.34149900  1
  In  In26  1  0.82043100  0.21396100  0.88142600  1
  In  In27  1  0.10486950  0.87934850  0.84235100  1
  In  In28  1  0.60600700  0.54493400  0.57644200  1
  In  In29  1  0.95405400  0.16552500  0.11609800  1
  In  In30  1  0.43453000  0.56188200  0.73140300  1
  In  In31  1  0.90744100  0.58073000  0.56478400  1
  In  In32  1  0.82043100  0.78603900  0.38142600  1
  In  In33  1  0.43453000  0.43811800  0.23140300  1
  In  In34  1  0.04703200  0.75890400  0.11480200  1
  In  In35  1  0.35962350  0.58984550  0.38806200  1
  In  In36  1  0.24277650  0.58067450  0.05946200  1
  In  In37  1  0.90744100  0.41927000  0.06478400  1
  In  In38  1  0.98740750  0.54702250  0.87693000  1
  In  In39  1  0.10486950  0.12065150  0.34235100  1
  In  In40  1  0.74277650  0.91932550  0.55946200  1
  In  In41  1  0.54703200  0.74109600  0.61480200  1
  In  In42  1  0.30342800  0.07282900  0.22199200  1
  In  In43  1  0.19144700  0.08081300  0.89134200  1
  In  In44  1  0.66668150  0.93662550  0.22474700  1
  In  In45  1  0.66668150  0.06337450  0.72474700  1
  In  In46  1  0.45405400  0.33447500  0.61609800  1
  In  In47  1  0.85962350  0.91015450  0.88806200  1
  In  In48  1  0.55535850  0.75836450  0.34188800  1
  In  In49  1  0.48740750  0.95297750  0.37693000  1
  In  In50  1  0.55535850  0.24163550  0.84188800  1
  In  In51  1  0.64606500  0.83984800  0.84149900  1
  In  In52  1  0.50858450  0.79149950  0.84312000  1
  In  In53  1  0.30159950  0.80538850  0.23135200  1
  In  In54  1  0.49841800  0.12080700  0.11184000  1
  In  In55  1  0.30342800  0.92717100  0.72199200  1
  In  In56  1  0.59044450  0.71323050  0.11004100  1
  In  In57  1  0.77954100  0.77963800  0.07829500  1
  In  In58  1  0.77954100  0.22036200  0.57829500  1
  In  In59  1  0.19144700  0.91918700  0.39134200  1
  In  In60  1  0.30159950  0.19461150  0.73135200  1
  In  In61  1  0.59044450  0.28676950  0.61004100  1
  In  In62  1  0.10600700  0.95506600  0.07644200  1
  In  In63  1  0.50858450  0.20850050  0.34312000  1
  In  In64  1  0.49841800  0.87919300  0.61184000  1
  In  In65  1  0.64606500  0.16015200  0.34149900  1
  In  In66  1  0.32043100  0.71396100  0.88142600  1
  In  In67  1  0.60486950  0.37934850  0.84235100  1
  In  In68  1  0.10600700  0.04493400  0.57644200  1
  In  In69  1  0.45405400  0.66552500  0.11609800  1
  In  In70  1  0.93453000  0.06188200  0.73140300  1
  In  In71  1  0.40744100  0.08073000  0.56478400  1
  In  In72  1  0.32043100  0.28603900  0.38142600  1
  In  In73  1  0.93453000  0.93811800  0.23140300  1
  In  In74  1  0.54703200  0.25890400  0.11480200  1
  In  In75  1  0.85962350  0.08984550  0.38806200  1
  In  In76  1  0.74277650  0.08067450  0.05946200  1
  In  In77  1  0.40744100  0.91927000  0.06478400  1
  In  In78  1  0.48740750  0.04702250  0.87693000  1
  In  In79  1  0.60486950  0.62065150  0.34235100  1
  Br  Br80  1  0.19234550  0.37379250  0.73063000  1
  Br  Br81  1  0.14440500  0.78638500  0.04661000  1
  Br  Br82  1  0.84755850  0.25063750  0.05603900  1
  Br  Br83  1  0.53238050  0.47169950  0.89995000  1
  Br  Br84  1  0.18685650  0.54690150  0.41536700  1
  Br  Br85  1  0.73599250  0.59763550  0.41586000  1
  Br  Br86  1  0.77806050  0.56302650  0.62998700  1
  Br  Br87  1  0.61083500  0.45460000  0.73214500  1
  Br  Br88  1  0.86665300  0.40214900  0.53820400  1
  Br  Br89  1  0.84755850  0.74936250  0.55603900  1
  Br  Br90  1  0.73599250  0.40236450  0.91586000  1
  Br  Br91  1  0.10841650  0.82624650  0.23156700  1
  Br  Br92  1  0.32352600  0.44060600  0.32853000  1
  Br  Br93  1  0.99714750  0.17578950  0.90991600  1
  Br  Br94  1  0.15488150  0.64571950  0.88889600  1
  Br  Br95  1  0.82061750  0.43892050  0.32859600  1
  Br  Br96  1  0.25317650  0.25446650  0.90124400  1
  Br  Br97  1  0.18957750  0.75094550  0.72420700  1
  Br  Br98  1  0.14440500  0.21361500  0.54661000  1
  Br  Br99  1  0.98822500  0.67329400  0.72704200  1
  Br  Br100  1  0.90929500  0.87125400  0.72710600  1
  Br  Br101  1  0.91006000  0.25761700  0.72758600  1
  Br  Br102  1  0.98822500  0.32670600  0.22704200  1
  Br  Br103  1  0.10062950  0.32665150  0.04038900  1
  Br  Br104  1  0.18685650  0.45309850  0.91536700  1
  Br  Br105  1  0.94591550  0.14737150  0.56320900  1
  Br  Br106  1  0.95950200  0.71579400  0.91267300  1
  Br  Br107  1  0.61083500  0.54540000  0.23214500  1
  Br  Br108  1  0.77806050  0.43697350  0.12998700  1
  Br  Br109  1  0.27886600  0.56250100  0.62882800  1
  Br  Br110  1  0.15488150  0.35428050  0.38889600  1
  Br  Br111  1  0.91006000  0.74238300  0.22758600  1
  Br  Br112  1  0.27886600  0.43749900  0.12882800  1
  Br  Br113  1  0.53238050  0.52830050  0.39995000  1
  Br  Br114  1  0.95950200  0.28420600  0.41267300  1
  Br  Br115  1  0.41285550  0.44636350  0.53971900  1
  Br  Br116  1  0.82061750  0.56107950  0.82859600  1
  Br  Br117  1  0.99714750  0.82421050  0.40991600  1
  Br  Br118  1  0.94591550  0.85262850  0.06320900  1
  Br  Br119  1  0.92602600  0.37882900  0.89311800  1
  Br  Br120  1  0.10841650  0.17375350  0.73156700  1
  Br  Br121  1  0.19234550  0.62620750  0.23063000  1
  Br  Br122  1  0.67251400  0.37776700  0.56294100  1
  Br  Br123  1  0.90929500  0.12874600  0.22710600  1
  Br  Br124  1  0.06773700  0.46922700  0.54924000  1
  Br  Br125  1  0.06773700  0.53077300  0.04924000  1
  Br  Br126  1  0.92602600  0.62117100  0.39311800  1
  Br  Br127  1  0.10062950  0.67334850  0.54038900  1
  Br  Br128  1  0.86665300  0.59785100  0.03820400  1
  Br  Br129  1  0.18957750  0.24905450  0.22420700  1
  Br  Br130  1  0.67251400  0.62223300  0.06294100  1
  Br  Br131  1  0.99150600  0.54568800  0.22232300  1
  Br  Br132  1  0.41285550  0.55363650  0.03971900  1
  Br  Br133  1  0.99150600  0.45431200  0.72232300  1
  Br  Br134  1  0.25317650  0.74553350  0.40124400  1
  Br  Br135  1  0.32352600  0.55939400  0.82853000  1
  Br  Br136  1  0.69234550  0.87379250  0.73063000  1
  Br  Br137  1  0.64440500  0.28638500  0.04661000  1
  Br  Br138  1  0.34755850  0.75063750  0.05603900  1
  Br  Br139  1  0.03238050  0.97169950  0.89995000  1
  Br  Br140  1  0.68685650  0.04690150  0.41536700  1
  Br  Br141  1  0.23599250  0.09763550  0.41586000  1
  Br  Br142  1  0.27806050  0.06302650  0.62998700  1
  Br  Br143  1  0.11083500  0.95460000  0.73214500  1
  Br  Br144  1  0.36665300  0.90214900  0.53820400  1
  Br  Br145  1  0.34755850  0.24936250  0.55603900  1
  Br  Br146  1  0.23599250  0.90236450  0.91586000  1
  Br  Br147  1  0.60841650  0.32624650  0.23156700  1
  Br  Br148  1  0.82352600  0.94060600  0.32853000  1
  Br  Br149  1  0.49714750  0.67578950  0.90991600  1
  Br  Br150  1  0.65488150  0.14571950  0.88889600  1
  Br  Br151  1  0.32061750  0.93892050  0.32859600  1
  Br  Br152  1  0.75317650  0.75446650  0.90124400  1
  Br  Br153  1  0.68957750  0.25094550  0.72420700  1
  Br  Br154  1  0.64440500  0.71361500  0.54661000  1
  Br  Br155  1  0.48822500  0.17329400  0.72704200  1
  Br  Br156  1  0.40929500  0.37125400  0.72710600  1
  Br  Br157  1  0.41006000  0.75761700  0.72758600  1
  Br  Br158  1  0.48822500  0.82670600  0.22704200  1
  Br  Br159  1  0.60062950  0.82665150  0.04038900  1
  Br  Br160  1  0.68685650  0.95309850  0.91536700  1
  Br  Br161  1  0.44591550  0.64737150  0.56320900  1
  Br  Br162  1  0.45950200  0.21579400  0.91267300  1
  Br  Br163  1  0.11083500  0.04540000  0.23214500  1
  Br  Br164  1  0.27806050  0.93697350  0.12998700  1
  Br  Br165  1  0.77886600  0.06250100  0.62882800  1
  Br  Br166  1  0.65488150  0.85428050  0.38889600  1
  Br  Br167  1  0.41006000  0.24238300  0.22758600  1
  Br  Br168  1  0.77886600  0.93749900  0.12882800  1
  Br  Br169  1  0.03238050  0.02830050  0.39995000  1
  Br  Br170  1  0.45950200  0.78420600  0.41267300  1
  Br  Br171  1  0.91285550  0.94636350  0.53971900  1
  Br  Br172  1  0.32061750  0.06107950  0.82859600  1
  Br  Br173  1  0.49714750  0.32421050  0.40991600  1
  Br  Br174  1  0.44591550  0.35262850  0.06320900  1
  Br  Br175  1  0.42602600  0.87882900  0.89311800  1
  Br  Br176  1  0.60841650  0.67375350  0.73156700  1
  Br  Br177  1  0.69234550  0.12620750  0.23063000  1
  Br  Br178  1  0.17251400  0.87776700  0.56294100  1
  Br  Br179  1  0.40929500  0.62874600  0.22710600  1
  Br  Br180  1  0.56773700  0.96922700  0.54924000  1
  Br  Br181  1  0.56773700  0.03077300  0.04924000  1
  Br  Br182  1  0.42602600  0.12117100  0.39311800  1
  Br  Br183  1  0.60062950  0.17334850  0.54038900  1
  Br  Br184  1  0.36665300  0.09785100  0.03820400  1
  Br  Br185  1  0.68957750  0.74905450  0.22420700  1
  Br  Br186  1  0.17251400  0.12223300  0.06294100  1
  Br  Br187  1  0.49150600  0.04568800  0.22232300  1
  Br  Br188  1  0.91285550  0.05363650  0.03971900  1
  Br  Br189  1  0.49150600  0.95431200  0.72232300  1
  Br  Br190  1  0.75317650  0.24553350  0.40124400  1
  Br  Br191  1  0.82352600  0.05939400  0.82853000  1
