# generated using pymatgen
data_CuH12(IN)4
_symmetry_space_group_name_H-M   'P 1'
_cell_length_a   11.99654800
_cell_length_b   9.13724400
_cell_length_c   6.64450315
_cell_angle_alpha   90.00000000
_cell_angle_beta   110.91639621
_cell_angle_gamma   90.00000000
_symmetry_Int_Tables_number   1
_chemical_formula_structural   CuH12(IN)4
_chemical_formula_sum   'Cu2 H24 I8 N8'
_cell_volume   680.34389851
_cell_formula_units_Z   2
loop_
 _symmetry_equiv_pos_site_id
 _symmetry_equiv_pos_as_xyz
  1  'x, y, z'
loop_
 _atom_site_type_symbol
 _atom_site_label
 _atom_site_symmetry_multiplicity
 _atom_site_fract_x
 _atom_site_fract_y
 _atom_site_fract_z
 _atom_site_occupancy
  Cu  Cu0  1  0.50000000  0.00000000  0.00000000  1
  Cu  Cu1  1  0.00000000  0.50000000  0.00000000  1
  H  H2  1  0.39069800  0.87221800  0.63326600  1
  H  H3  1  0.39069800  0.12778200  0.63326600  1
  H  H4  1  0.60930200  0.12778200  0.36673400  1
  H  H5  1  0.60930200  0.87221800  0.36673400  1
  H  H6  1  0.32786150  0.82070750  0.80629500  1
  H  H7  1  0.32786150  0.17929250  0.80629500  1
  H  H8  1  0.67213850  0.17929250  0.19370500  1
  H  H9  1  0.67213850  0.82070750  0.19370500  1
  H  H10  1  0.45403350  0.74425950  0.81215300  1
  H  H11  1  0.45403350  0.25574050  0.81215300  1
  H  H12  1  0.54596650  0.25574050  0.18784700  1
  H  H13  1  0.54596650  0.74425950  0.18784700  1
  H  H14  1  0.89069800  0.37221800  0.63326600  1
  H  H15  1  0.89069800  0.62778200  0.63326600  1
  H  H16  1  0.10930200  0.62778200  0.36673400  1
  H  H17  1  0.10930200  0.37221800  0.36673400  1
  H  H18  1  0.82786150  0.32070750  0.80629500  1
  H  H19  1  0.82786150  0.67929250  0.80629500  1
  H  H20  1  0.17213850  0.67929250  0.19370500  1
  H  H21  1  0.17213850  0.32070750  0.19370500  1
  H  H22  1  0.95403350  0.24425950  0.81215300  1
  H  H23  1  0.95403350  0.75574050  0.81215300  1
  H  H24  1  0.04596650  0.75574050  0.18784700  1
  H  H25  1  0.04596650  0.24425950  0.18784700  1
  I  I26  1  0.08857700  0.00000000  0.71896300  1
  I  I27  1  0.91142300  0.00000000  0.28103700  1
  I  I28  1  0.29391300  0.00000000  0.21500900  1
  I  I29  1  0.70608700  0.00000000  0.78499100  1
  I  I30  1  0.58857700  0.50000000  0.71896300  1
  I  I31  1  0.41142300  0.50000000  0.28103700  1
  I  I32  1  0.79391300  0.50000000  0.21500900  1
  I  I33  1  0.20608700  0.50000000  0.78499100  1
  N  N34  1  0.40850100  0.84160000  0.79008800  1
  N  N35  1  0.40850100  0.15840000  0.79008800  1
  N  N36  1  0.59149900  0.15840000  0.20991200  1
  N  N37  1  0.59149900  0.84160000  0.20991200  1
  N  N38  1  0.90850100  0.34160000  0.79008800  1
  N  N39  1  0.90850100  0.65840000  0.79008800  1
  N  N40  1  0.09149900  0.65840000  0.20991200  1
  N  N41  1  0.09149900  0.34160000  0.20991200  1
