# generated using pymatgen
data_BaCdGaF7
_symmetry_space_group_name_H-M   'P 1'
_cell_length_a   14.13793800
_cell_length_b   5.45189000
_cell_length_c   15.24153973
_cell_angle_alpha   90.00000000
_cell_angle_beta   91.60232496
_cell_angle_gamma   90.00000000
_symmetry_Int_Tables_number   1
_chemical_formula_structural   BaCdGaF7
_chemical_formula_sum   'Ba8 Cd8 Ga8 F56'
_cell_volume   1174.33539102
_cell_formula_units_Z   8
loop_
 _symmetry_equiv_pos_site_id
 _symmetry_equiv_pos_as_xyz
  1  'x, y, z'
loop_
 _atom_site_type_symbol
 _atom_site_label
 _atom_site_symmetry_multiplicity
 _atom_site_fract_x
 _atom_site_fract_y
 _atom_site_fract_z
 _atom_site_occupancy
  Ba  Ba0  1  0.80907200  0.03550500  0.37684200  1
  Ba  Ba1  1  0.69092800  0.53550500  0.12315800  1
  Ba  Ba2  1  0.80907200  0.96449500  0.87684200  1
  Ba  Ba3  1  0.69092800  0.46449500  0.62315800  1
  Ba  Ba4  1  0.30907200  0.53550500  0.37684200  1
  Ba  Ba5  1  0.19092800  0.03550500  0.12315800  1
  Ba  Ba6  1  0.30907200  0.46449500  0.87684200  1
  Ba  Ba7  1  0.19092800  0.96449500  0.62315800  1
  Cd  Cd8  1  0.00000000  0.54429800  0.25000000  1
  Cd  Cd9  1  0.00000000  0.45570200  0.75000000  1
  Cd  Cd10  1  0.00000000  0.50000000  0.50000000  1
  Cd  Cd11  1  0.00000000  0.50000000  0.00000000  1
  Cd  Cd12  1  0.50000000  0.04429800  0.25000000  1
  Cd  Cd13  1  0.50000000  0.95570200  0.75000000  1
  Cd  Cd14  1  0.50000000  0.00000000  0.50000000  1
  Cd  Cd15  1  0.50000000  0.00000000  0.00000000  1
  Ga  Ga16  1  0.62267550  0.48950250  0.37482800  1
  Ga  Ga17  1  0.87732450  0.01049750  0.62517200  1
  Ga  Ga18  1  0.62267550  0.51049750  0.87482800  1
  Ga  Ga19  1  0.87732450  0.98950250  0.12517200  1
  Ga  Ga20  1  0.12267550  0.98950250  0.37482800  1
  Ga  Ga21  1  0.37732450  0.51049750  0.62517200  1
  Ga  Ga22  1  0.12267550  0.01049750  0.87482800  1
  Ga  Ga23  1  0.37732450  0.48950250  0.12517200  1
  F  F24  1  0.50384750  0.61435050  0.65331600  1
  F  F25  1  0.66302000  0.71743900  0.77796200  1
  F  F26  1  0.63637550  0.19738950  0.45046100  1
  F  F27  1  0.83698000  0.78256100  0.22203800  1
  F  F28  1  0.75111650  0.44610450  0.90716800  1
  F  F29  1  0.91205500  0.15782600  0.01987000  1
  F  F30  1  0.62271500  0.23172300  0.79975200  1
  F  F31  1  0.87728500  0.26827700  0.20024800  1
  F  F32  1  0.83698000  0.21743900  0.72203800  1
  F  F33  1  0.86362450  0.69738950  0.04953900  1
  F  F34  1  0.56267250  0.10157050  0.62869400  1
  F  F35  1  0.58794500  0.65782600  0.48013000  1
  F  F36  1  0.91205500  0.84217400  0.51987000  1
  F  F37  1  0.93732750  0.39842950  0.37130600  1
  F  F38  1  0.99615250  0.88564950  0.34668400  1
  F  F39  1  0.74888350  0.94610450  0.59283200  1
  F  F40  1  0.74888350  0.05389550  0.09283200  1
  F  F41  1  0.66302000  0.28256100  0.27796200  1
  F  F42  1  0.58794500  0.34217400  0.98013000  1
  F  F43  1  0.56267250  0.89842950  0.12869400  1
  F  F44  1  0.62271500  0.76827700  0.29975200  1
  F  F45  1  0.75111650  0.55389550  0.40716800  1
  F  F46  1  0.63637550  0.80261050  0.95046100  1
  F  F47  1  0.93732750  0.60157050  0.87130600  1
  F  F48  1  0.50384750  0.38564950  0.15331600  1
  F  F49  1  0.87728500  0.73172300  0.70024800  1
  F  F50  1  0.86362450  0.30261050  0.54953900  1
  F  F51  1  0.99615250  0.11435050  0.84668400  1
  F  F52  1  0.00384750  0.11435050  0.65331600  1
  F  F53  1  0.16302000  0.21743900  0.77796200  1
  F  F54  1  0.13637550  0.69738950  0.45046100  1
  F  F55  1  0.33698000  0.28256100  0.22203800  1
  F  F56  1  0.25111650  0.94610450  0.90716800  1
  F  F57  1  0.41205500  0.65782600  0.01987000  1
  F  F58  1  0.12271500  0.73172300  0.79975200  1
  F  F59  1  0.37728500  0.76827700  0.20024800  1
  F  F60  1  0.33698000  0.71743900  0.72203800  1
  F  F61  1  0.36362450  0.19738950  0.04953900  1
  F  F62  1  0.06267250  0.60157050  0.62869400  1
  F  F63  1  0.08794500  0.15782600  0.48013000  1
  F  F64  1  0.41205500  0.34217400  0.51987000  1
  F  F65  1  0.43732750  0.89842950  0.37130600  1
  F  F66  1  0.49615250  0.38564950  0.34668400  1
  F  F67  1  0.24888350  0.44610450  0.59283200  1
  F  F68  1  0.24888350  0.55389550  0.09283200  1
  F  F69  1  0.16302000  0.78256100  0.27796200  1
  F  F70  1  0.08794500  0.84217400  0.98013000  1
  F  F71  1  0.06267250  0.39842950  0.12869400  1
  F  F72  1  0.12271500  0.26827700  0.29975200  1
  F  F73  1  0.25111650  0.05389550  0.40716800  1
  F  F74  1  0.13637550  0.30261050  0.95046100  1
  F  F75  1  0.43732750  0.10157050  0.87130600  1
  F  F76  1  0.00384750  0.88564950  0.15331600  1
  F  F77  1  0.37728500  0.23172300  0.70024800  1
  F  F78  1  0.36362450  0.80261050  0.54953900  1
  F  F79  1  0.49615250  0.61435050  0.84668400  1
