# generated using pymatgen
data_KH18OsN6(ClO2)4
_symmetry_space_group_name_H-M   'P 1'
_cell_length_a   7.29240600
_cell_length_b   7.35194611
_cell_length_c   10.21770282
_cell_angle_alpha   90.70536750
_cell_angle_beta   109.98042713
_cell_angle_gamma   116.64808058
_symmetry_Int_Tables_number   1
_chemical_formula_structural   KH18OsN6(ClO2)4
_chemical_formula_sum   'K1 H18 Os1 N6 Cl4 O8'
_cell_volume   451.11919271
_cell_formula_units_Z   1
loop_
 _symmetry_equiv_pos_site_id
 _symmetry_equiv_pos_as_xyz
  1  'x, y, z'
loop_
 _atom_site_type_symbol
 _atom_site_label
 _atom_site_symmetry_multiplicity
 _atom_site_fract_x
 _atom_site_fract_y
 _atom_site_fract_z
 _atom_site_occupancy
  K  K0  1  0.96058700  0.47712800  0.44858800  1
  H  H1  1  0.67507600  0.69603000  0.76872300  1
  H  H2  1  0.14333400  0.98920000  0.78583600  1
  H  H3  1  0.63559700  0.98957800  0.80800700  1
  H  H4  1  0.33984700  0.20054500  0.91465200  1
  H  H5  1  0.76645900  0.59372600  0.90849600  1
  H  H6  1  0.78502100  0.21872300  0.92650900  1
  H  H7  1  0.46777100  0.68752600  0.10640300  1
  H  H8  1  0.78538300  0.78394000  0.15240900  1
  H  H9  1  0.77218200  0.00352900  0.15140300  1
  H  H10  1  0.99894500  0.00269300  0.25541400  1
  H  H11  1  0.44917200  0.65364000  0.03142500  1
  H  H12  1  0.14197700  0.73141000  0.83184400  1
  H  H13  1  0.36040500  0.39561400  0.11472800  1
  H  H14  1  0.35685700  0.94480400  0.12078000  1
  H  H15  1  0.13636900  0.39907300  0.11755200  1
  H  H16  1  0.13820500  0.74339300  0.13285900  1
  H  H17  1  0.26810400  0.96687000  0.24253900  1
  H  H18  1  0.26487800  0.30258600  0.23492200  1
  Os  Os19  1  0.99878300  0.00674600  0.98623900  1
  N  N20  1  0.78198300  0.08528700  0.89154200  1
  N  N21  1  0.79140300  0.72714100  0.86897700  1
  N  N22  1  0.18766600  0.06978000  0.88361700  1
  N  N23  1  0.87309900  0.93975700  0.15554900  1
  N  N24  1  0.21497500  0.30956400  0.12915700  1
  N  N25  1  0.21374100  0.90115400  0.13751600  1
  Cl  Cl26  1  0.36981000  0.18580400  0.56242300  1
  Cl  Cl27  1  0.78778100  0.41604600  0.11386800  1
  Cl  Cl28  1  0.13683700  0.56000000  0.79278500  1
  Cl  Cl29  1  0.62001600  0.81158400  0.42686600  1
  O  O30  1  0.27840300  0.14085700  0.40412400  1
  O  O31  1  0.37646300  0.69294300  0.37683100  1
  O  O32  1  0.69766900  0.68475000  0.37346900  1
  O  O33  1  0.68025500  0.00181900  0.36691300  1
  O  O34  1  0.28865700  0.31217100  0.60951000  1
  O  O35  1  0.29530700  0.98963300  0.61283700  1
  O  O36  1  0.61094500  0.29723600  0.61448800  1
  O  O37  1  0.71964100  0.86352300  0.58060100  1
