# generated using pymatgen
data_LiFeP2O7
_symmetry_space_group_name_H-M   'P 1'
_cell_length_a   15.66329800
_cell_length_b   4.99489000
_cell_length_c   8.81214565
_cell_angle_alpha   90.00000000
_cell_angle_beta   112.56149329
_cell_angle_gamma   90.00000000
_symmetry_Int_Tables_number   1
_chemical_formula_structural   LiFeP2O7
_chemical_formula_sum   'Li4 Fe4 P8 O28'
_cell_volume   636.66765837
_cell_formula_units_Z   4
loop_
 _symmetry_equiv_pos_site_id
 _symmetry_equiv_pos_as_xyz
  1  'x, y, z'
loop_
 _atom_site_type_symbol
 _atom_site_label
 _atom_site_symmetry_multiplicity
 _atom_site_fract_x
 _atom_site_fract_y
 _atom_site_fract_z
 _atom_site_occupancy
  Li  Li0  1  0.19639950  0.66225950  0.54898300  1
  Li  Li1  1  0.19639950  0.33774050  0.04898300  1
  Li  Li2  1  0.69639950  0.16225950  0.54898300  1
  Li  Li3  1  0.69639950  0.83774050  0.04898300  1
  Fe  Fe4  1  0.49477700  0.99486100  0.50281200  1
  Fe  Fe5  1  0.49477700  0.00513900  0.00281200  1
  Fe  Fe6  1  0.99477700  0.49486100  0.50281200  1
  Fe  Fe7  1  0.99477700  0.50513900  0.00281200  1
  P  P8  1  0.09645350  0.13386650  0.31267800  1
  P  P9  1  0.39776800  0.63183100  0.18849400  1
  P  P10  1  0.39776800  0.36816900  0.68849400  1
  P  P11  1  0.09645350  0.86613350  0.81267800  1
  P  P12  1  0.59645350  0.63386650  0.31267800  1
  P  P13  1  0.89776800  0.13183100  0.18849400  1
  P  P14  1  0.89776800  0.86816900  0.68849400  1
  P  P15  1  0.59645350  0.36613350  0.81267800  1
  O  O16  1  0.40364950  0.21891750  0.84405500  1
  O  O17  1  0.49754550  0.46602650  0.25202200  1
  O  O18  1  0.09099550  0.65502250  0.93578800  1
  O  O19  1  0.40556700  0.16951600  0.56099700  1
  O  O20  1  0.40556700  0.83048400  0.06099700  1
  O  O21  1  0.49754550  0.53397350  0.75202200  1
  O  O22  1  0.17139300  0.93398100  0.38177200  1
  O  O23  1  0.40364950  0.78108250  0.34405500  1
  O  O24  1  0.17139300  0.06601900  0.88177200  1
  O  O25  1  0.32150000  0.56707400  0.62585800  1
  O  O26  1  0.09099550  0.34497750  0.43578800  1
  O  O27  1  0.09568950  0.28523650  0.15669500  1
  O  O28  1  0.32150000  0.43292600  0.12585800  1
  O  O29  1  0.09568950  0.71476350  0.65669500  1
  O  O30  1  0.90364950  0.71891750  0.84405500  1
  O  O31  1  0.99754550  0.96602650  0.25202200  1
  O  O32  1  0.59099550  0.15502250  0.93578800  1
  O  O33  1  0.90556700  0.66951600  0.56099700  1
  O  O34  1  0.90556700  0.33048400  0.06099700  1
  O  O35  1  0.99754550  0.03397350  0.75202200  1
  O  O36  1  0.67139300  0.43398100  0.38177200  1
  O  O37  1  0.90364950  0.28108250  0.34405500  1
  O  O38  1  0.67139300  0.56601900  0.88177200  1
  O  O39  1  0.82150000  0.06707400  0.62585800  1
  O  O40  1  0.59099550  0.84497750  0.43578800  1
  O  O41  1  0.59568950  0.78523650  0.15669500  1
  O  O42  1  0.82150000  0.93292600  0.12585800  1
  O  O43  1  0.59568950  0.21476350  0.65669500  1
