# generated using pymatgen
data_Li11TiAs5
_symmetry_space_group_name_H-M   'P 1'
_cell_length_a   14.22405600
_cell_length_b   4.24839200
_cell_length_c   10.60160110
_cell_angle_alpha   90.00000000
_cell_angle_beta   117.83138277
_cell_angle_gamma   90.00000000
_symmetry_Int_Tables_number   1
_chemical_formula_structural   Li11TiAs5
_chemical_formula_sum   'Li22 Ti2 As10'
_cell_volume   566.54131739
_cell_formula_units_Z   2
loop_
 _symmetry_equiv_pos_site_id
 _symmetry_equiv_pos_as_xyz
  1  'x, y, z'
loop_
 _atom_site_type_symbol
 _atom_site_label
 _atom_site_symmetry_multiplicity
 _atom_site_fract_x
 _atom_site_fract_y
 _atom_site_fract_z
 _atom_site_occupancy
  Li  Li0  1  0.69835600  0.50000000  0.07708900  1
  Li  Li1  1  0.60177800  0.00000000  0.15207700  1
  Li  Li2  1  0.10770000  0.50000000  0.65147300  1
  Li  Li3  1  0.10384100  0.50000000  0.90279900  1
  Li  Li4  1  0.98965500  0.00000000  0.74390700  1
  Li  Li5  1  0.01991700  0.00000000  0.25985200  1
  Li  Li6  1  0.91673100  0.50000000  0.35932500  1
  Li  Li7  1  0.38326500  0.00000000  0.83093900  1
  Li  Li8  1  0.89366400  0.50000000  0.08118100  1
  Li  Li9  1  0.29632100  0.50000000  0.92215000  1
  Li  Li10  1  0.19493800  0.00000000  0.56502200  1
  Li  Li11  1  0.19835600  0.00000000  0.07708900  1
  Li  Li12  1  0.10177800  0.50000000  0.15207700  1
  Li  Li13  1  0.60770000  0.00000000  0.65147300  1
  Li  Li14  1  0.60384100  0.00000000  0.90279900  1
  Li  Li15  1  0.48965500  0.50000000  0.74390700  1
  Li  Li16  1  0.51991700  0.50000000  0.25985200  1
  Li  Li17  1  0.41673100  0.00000000  0.35932500  1
  Li  Li18  1  0.88326500  0.50000000  0.83093900  1
  Li  Li19  1  0.39366400  0.00000000  0.08118100  1
  Li  Li20  1  0.79632100  0.00000000  0.92215000  1
  Li  Li21  1  0.69493800  0.50000000  0.56502200  1
  Ti  Ti22  1  0.79666900  0.00000000  0.44149700  1
  Ti  Ti23  1  0.29666900  0.50000000  0.44149700  1
  As  As24  1  0.49511600  0.50000000  0.99700000  1
  As  As25  1  0.88823100  0.50000000  0.58071400  1
  As  As26  1  0.80859300  0.00000000  0.21515500  1
  As  As27  1  0.19081400  0.00000000  0.81666300  1
  As  As28  1  0.11441200  0.50000000  0.40315600  1
  As  As29  1  0.99511600  0.00000000  0.99700000  1
  As  As30  1  0.38823100  0.00000000  0.58071400  1
  As  As31  1  0.30859300  0.50000000  0.21515500  1
  As  As32  1  0.69081400  0.50000000  0.81666300  1
  As  As33  1  0.61441200  0.00000000  0.40315600  1
