# generated using pymatgen
data_H7BrO3
_symmetry_space_group_name_H-M   'P 1'
_cell_length_a   11.91505000
_cell_length_b   5.98814200
_cell_length_c   6.30582224
_cell_angle_alpha   90.00000000
_cell_angle_beta   93.29052088
_cell_angle_gamma   90.00000000
_symmetry_Int_Tables_number   1
_chemical_formula_structural   H7BrO3
_chemical_formula_sum   'H28 Br4 O12'
_cell_volume   449.17242105
_cell_formula_units_Z   4
loop_
 _symmetry_equiv_pos_site_id
 _symmetry_equiv_pos_as_xyz
  1  'x, y, z'
loop_
 _atom_site_type_symbol
 _atom_site_label
 _atom_site_symmetry_multiplicity
 _atom_site_fract_x
 _atom_site_fract_y
 _atom_site_fract_z
 _atom_site_occupancy
  H  H0  1  0.65052650  0.11146750  0.52530000  1
  H  H1  1  0.65530950  0.37222950  0.48598000  1
  H  H2  1  0.65052650  0.88853250  0.02530000  1
  H  H3  1  0.65530950  0.62777050  0.98598000  1
  H  H4  1  0.50971900  0.19607400  0.27586400  1
  H  H5  1  0.89360950  0.59541450  0.17193900  1
  H  H6  1  0.89862250  0.83646250  0.73476200  1
  H  H7  1  0.97614050  0.76280550  0.95994400  1
  H  H8  1  0.53252500  0.29818200  0.71021000  1
  H  H9  1  0.89862250  0.16353750  0.23476200  1
  H  H10  1  0.97614050  0.23719450  0.45994400  1
  H  H11  1  0.53252500  0.70181800  0.21021000  1
  H  H12  1  0.89360950  0.40458550  0.67193900  1
  H  H13  1  0.50971900  0.80392600  0.77586400  1
  H  H14  1  0.15052650  0.61146750  0.52530000  1
  H  H15  1  0.15530950  0.87222950  0.48598000  1
  H  H16  1  0.15052650  0.38853250  0.02530000  1
  H  H17  1  0.15530950  0.12777050  0.98598000  1
  H  H18  1  0.00971900  0.69607400  0.27586400  1
  H  H19  1  0.39360950  0.09541450  0.17193900  1
  H  H20  1  0.39862250  0.33646250  0.73476200  1
  H  H21  1  0.47614050  0.26280550  0.95994400  1
  H  H22  1  0.03252500  0.79818200  0.71021000  1
  H  H23  1  0.39862250  0.66353750  0.23476200  1
  H  H24  1  0.47614050  0.73719450  0.45994400  1
  H  H25  1  0.03252500  0.20181800  0.21021000  1
  H  H26  1  0.39360950  0.90458550  0.67193900  1
  H  H27  1  0.00971900  0.30392600  0.77586400  1
  Br  Br28  1  0.75614350  0.74251250  0.53016500  1
  Br  Br29  1  0.75614350  0.25748750  0.03016500  1
  Br  Br30  1  0.25614350  0.24251250  0.53016500  1
  Br  Br31  1  0.25614350  0.75748750  0.03016500  1
  O  O32  1  0.60333300  0.24681300  0.51060200  1
  O  O33  1  0.60333300  0.75318700  0.01060200  1
  O  O34  1  0.97129000  0.63635900  0.14365900  1
  O  O35  1  0.97490850  0.85691550  0.81267100  1
  O  O36  1  0.97490850  0.14308450  0.31267100  1
  O  O37  1  0.97129000  0.36364100  0.64365900  1
  O  O38  1  0.10333300  0.74681300  0.51060200  1
  O  O39  1  0.10333300  0.25318700  0.01060200  1
  O  O40  1  0.47129000  0.13635900  0.14365900  1
  O  O41  1  0.47490850  0.35691550  0.81267100  1
  O  O42  1  0.47490850  0.64308450  0.31267100  1
  O  O43  1  0.47129000  0.86364100  0.64365900  1
