# generated using pymatgen
data_Ca(H8O5)2
_symmetry_space_group_name_H-M   'P 1'
_cell_length_a   8.83664000
_cell_length_b   8.78550600
_cell_length_c   10.89226346
_cell_angle_alpha   90.00000000
_cell_angle_beta   90.12387318
_cell_angle_gamma   90.00000000
_symmetry_Int_Tables_number   1
_chemical_formula_structural   Ca(H8O5)2
_chemical_formula_sum   'Ca4 H64 O40'
_cell_volume   845.61185791
_cell_formula_units_Z   4
loop_
 _symmetry_equiv_pos_site_id
 _symmetry_equiv_pos_as_xyz
  1  'x, y, z'
loop_
 _atom_site_type_symbol
 _atom_site_label
 _atom_site_symmetry_multiplicity
 _atom_site_fract_x
 _atom_site_fract_y
 _atom_site_fract_z
 _atom_site_occupancy
  Ca  Ca0  1  0.50018550  0.49591650  0.75164900  1
  Ca  Ca1  1  0.50018550  0.50408350  0.25164900  1
  Ca  Ca2  1  0.00018550  0.99591650  0.75164900  1
  Ca  Ca3  1  0.00018550  0.00408350  0.25164900  1
  H  H4  1  0.32075300  0.94233100  0.65751700  1
  H  H5  1  0.21793500  0.91523900  0.54049200  1
  H  H6  1  0.76154250  0.20320850  0.63147900  1
  H  H7  1  0.66902050  0.05059750  0.64545900  1
  H  H8  1  0.29406200  0.25975900  0.63202800  1
  H  H9  1  0.44826800  0.17120000  0.64686100  1
  H  H10  1  0.55508300  0.82188000  0.65675600  1
  H  H11  1  0.58406300  0.71792300  0.54010600  1
  H  H12  1  0.55508300  0.17812000  0.15675600  1
  H  H13  1  0.58406300  0.28207700  0.04010600  1
  H  H14  1  0.44826800  0.82880000  0.14686100  1
  H  H15  1  0.29406200  0.74024100  0.13202800  1
  H  H16  1  0.32075300  0.05766900  0.15751700  1
  H  H17  1  0.21793500  0.08476100  0.04049200  1
  H  H18  1  0.66902050  0.94940250  0.14545900  1
  H  H19  1  0.76154250  0.79679150  0.13147900  1
  H  H20  1  0.68000750  0.05544050  0.34349400  1
  H  H21  1  0.78187450  0.08459750  0.46040500  1
  H  H22  1  0.23775300  0.79683400  0.36883200  1
  H  H23  1  0.33064900  0.94863200  0.35552700  1
  H  H24  1  0.70643950  0.73861150  0.36994100  1
  H  H25  1  0.55265300  0.82875900  0.35489100  1
  H  H26  1  0.44694450  0.16994750  0.35399800  1
  H  H27  1  0.41550600  0.28393000  0.46424600  1
  H  H28  1  0.44694450  0.83005250  0.85399800  1
  H  H29  1  0.41550600  0.71607000  0.96424600  1
  H  H30  1  0.70643950  0.26138850  0.86994100  1
  H  H31  1  0.55265300  0.17124100  0.85489100  1
  H  H32  1  0.68000750  0.94455950  0.84349400  1
  H  H33  1  0.78187450  0.91540250  0.96040500  1
  H  H34  1  0.33064900  0.05136800  0.85552700  1
  H  H35  1  0.23775300  0.20316600  0.86883200  1
  H  H36  1  0.82075300  0.44233100  0.65751700  1
  H  H37  1  0.71793500  0.41523900  0.54049200  1
  H  H38  1  0.26154250  0.70320850  0.63147900  1
  H  H39  1  0.16902050  0.55059750  0.64545900  1
  H  H40  1  0.79406200  0.75975900  0.63202800  1
  H  H41  1  0.94826800  0.67120000  0.64686100  1
  H  H42  1  0.05508300  0.32188000  0.65675600  1
  H  H43  1  0.08406300  0.21792300  0.54010600  1
  H  H44  1  0.05508300  0.67812000  0.15675600  1
  H  H45  1  0.08406300  0.78207700  0.04010600  1
  H  H46  1  0.94826800  0.32880000  0.14686100  1
  H  H47  1  0.79406200  0.24024100  0.13202800  1
  H  H48  1  0.82075300  0.55766900  0.15751700  1
  H  H49  1  0.71793500  0.58476100  0.04049200  1
  H  H50  1  0.16902050  0.44940250  0.14545900  1
  H  H51  1  0.26154250  0.29679150  0.13147900  1
  H  H52  1  0.18000750  0.55544050  0.34349400  1
  H  H53  1  0.28187450  0.58459750  0.46040500  1
  H  H54  1  0.73775300  0.29683400  0.36883200  1
  H  H55  1  0.83064900  0.44863200  0.35552700  1
  H  H56  1  0.20643950  0.23861150  0.36994100  1
  H  H57  1  0.05265300  0.32875900  0.35489100  1
  H  H58  1  0.94694450  0.66994750  0.35399800  1
  H  H59  1  0.91550600  0.78393000  0.46424600  1
  H  H60  1  0.94694450  0.33005250  0.85399800  1
  H  H61  1  0.91550600  0.21607000  0.96424600  1
  H  H62  1  0.20643950  0.76138850  0.86994100  1
  H  H63  1  0.05265300  0.67124100  0.85489100  1
  H  H64  1  0.18000750  0.44455950  0.84349400  1
  H  H65  1  0.28187450  0.41540250  0.96040500  1
  H  H66  1  0.83064900  0.55136800  0.85552700  1
  H  H67  1  0.73775300  0.70316600  0.86883200  1
  O  O68  1  0.49813700  0.99755000  0.68375800  1
  O  O69  1  0.49813700  0.00245000  0.18375800  1
  O  O70  1  0.50224350  0.99869750  0.32070700  1
  O  O71  1  0.50224350  0.00130250  0.82070700  1
  O  O72  1  0.22019700  0.89872800  0.63124700  1
  O  O73  1  0.77378500  0.09065700  0.62241100  1
  O  O74  1  0.40567650  0.27545750  0.62439100  1
  O  O75  1  0.59683050  0.71942150  0.63161900  1
  O  O76  1  0.59683050  0.28057850  0.13161900  1
  O  O77  1  0.40567650  0.72454250  0.12439100  1
  O  O78  1  0.22019700  0.10127200  0.13124700  1
  O  O79  1  0.77378500  0.90934300  0.12241100  1
  O  O80  1  0.78061650  0.09939950  0.36936400  1
  O  O81  1  0.22564450  0.90908050  0.37788100  1
  O  O82  1  0.59494300  0.72446700  0.37870400  1
  O  O83  1  0.40600800  0.27505500  0.37299200  1
  O  O84  1  0.40600800  0.72494500  0.87299200  1
  O  O85  1  0.59494300  0.27553300  0.87870400  1
  O  O86  1  0.78061650  0.90060050  0.86936400  1
  O  O87  1  0.22564450  0.09091950  0.87788100  1
  O  O88  1  0.99813700  0.49755000  0.68375800  1
  O  O89  1  0.99813700  0.50245000  0.18375800  1
  O  O90  1  0.00224350  0.49869750  0.32070700  1
  O  O91  1  0.00224350  0.50130250  0.82070700  1
  O  O92  1  0.72019700  0.39872800  0.63124700  1
  O  O93  1  0.27378500  0.59065700  0.62241100  1
  O  O94  1  0.90567650  0.77545750  0.62439100  1
  O  O95  1  0.09683050  0.21942150  0.63161900  1
  O  O96  1  0.09683050  0.78057850  0.13161900  1
  O  O97  1  0.90567650  0.22454250  0.12439100  1
  O  O98  1  0.72019700  0.60127200  0.13124700  1
  O  O99  1  0.27378500  0.40934300  0.12241100  1
  O  O100  1  0.28061650  0.59939950  0.36936400  1
  O  O101  1  0.72564450  0.40908050  0.37788100  1
  O  O102  1  0.09494300  0.22446700  0.37870400  1
  O  O103  1  0.90600800  0.77505500  0.37299200  1
  O  O104  1  0.90600800  0.22494500  0.87299200  1
  O  O105  1  0.09494300  0.77553300  0.87870400  1
  O  O106  1  0.28061650  0.40060050  0.86936400  1
  O  O107  1  0.72564450  0.59091950  0.87788100  1
