# generated using pymatgen
data_PbI2
_symmetry_space_group_name_H-M   'P 1'
_cell_length_a   4.65690817
_cell_length_b   4.65690817
_cell_length_c   67.56777370
_cell_angle_alpha   90.00000000
_cell_angle_beta   90.00000000
_cell_angle_gamma   120.00000000
_symmetry_Int_Tables_number   1
_chemical_formula_structural   PbI2
_chemical_formula_sum   'Pb9 I18'
_cell_volume   1269.01159052
_cell_formula_units_Z   9
loop_
 _symmetry_equiv_pos_site_id
 _symmetry_equiv_pos_as_xyz
  1  'x, y, z'
loop_
 _atom_site_type_symbol
 _atom_site_label
 _atom_site_symmetry_multiplicity
 _atom_site_fract_x
 _atom_site_fract_y
 _atom_site_fract_z
 _atom_site_occupancy
  Pb  Pb0  1  0.33333333  0.66666667  0.11114967  1
  Pb  Pb1  1  0.00000000  0.00000000  0.00000000  1
  Pb  Pb2  1  0.33333333  0.66666667  0.22218367  1
  Pb  Pb3  1  0.00000000  0.00000000  0.44448300  1
  Pb  Pb4  1  0.66666667  0.33333333  0.33333333  1
  Pb  Pb5  1  0.00000000  0.00000000  0.55551700  1
  Pb  Pb6  1  0.66666667  0.33333333  0.77781633  1
  Pb  Pb7  1  0.33333333  0.66666667  0.66666667  1
  Pb  Pb8  1  0.66666667  0.33333333  0.88885033  1
  I  I9  1  0.33333333  0.66666667  0.02789867  1
  I  I10  1  0.33333333  0.66666667  0.30543467  1
  I  I11  1  0.00000000  0.00000000  0.13904400  1
  I  I12  1  0.66666667  0.33333333  0.19428933  1
  I  I13  1  0.00000000  0.00000000  0.25011900  1
  I  I14  1  0.66666667  0.33333333  0.08321433  1
  I  I15  1  0.00000000  0.00000000  0.36123200  1
  I  I16  1  0.00000000  0.00000000  0.63876800  1
  I  I17  1  0.66666667  0.33333333  0.47237733  1
  I  I18  1  0.33333333  0.66666667  0.52762267  1
  I  I19  1  0.66666667  0.33333333  0.58345233  1
  I  I20  1  0.33333333  0.66666667  0.41654767  1
  I  I21  1  0.66666667  0.33333333  0.69456533  1
  I  I22  1  0.66666667  0.33333333  0.97210133  1
  I  I23  1  0.33333333  0.66666667  0.80571067  1
  I  I24  1  0.00000000  0.00000000  0.86095600  1
  I  I25  1  0.33333333  0.66666667  0.91678567  1
  I  I26  1  0.00000000  0.00000000  0.74988100  1
