# generated using pymatgen
data_Bi2(PbS2)3
_symmetry_space_group_name_H-M   'P 1'
_cell_length_a   13.77297600
_cell_length_b   4.12867800
_cell_length_c   21.06577611
_cell_angle_alpha   90.00000000
_cell_angle_beta   92.37413041
_cell_angle_gamma   90.00000000
_symmetry_Int_Tables_number   1
_chemical_formula_structural   Bi2(PbS2)3
_chemical_formula_sum   'Bi8 Pb12 S24'
_cell_volume   1196.85992346
_cell_formula_units_Z   4
loop_
 _symmetry_equiv_pos_site_id
 _symmetry_equiv_pos_as_xyz
  1  'x, y, z'
loop_
 _atom_site_type_symbol
 _atom_site_label
 _atom_site_symmetry_multiplicity
 _atom_site_fract_x
 _atom_site_fract_y
 _atom_site_fract_z
 _atom_site_occupancy
  Bi  Bi0  1  0.90366900  0.50000000  0.86497800  1
  Bi  Bi1  1  0.86091100  0.00000000  0.44995800  1
  Bi  Bi2  1  0.63908900  0.50000000  0.55004200  1
  Bi  Bi3  1  0.59633100  0.00000000  0.13502200  1
  Bi  Bi4  1  0.40366900  0.00000000  0.86497800  1
  Bi  Bi5  1  0.36091100  0.50000000  0.44995800  1
  Bi  Bi6  1  0.13908900  0.00000000  0.55004200  1
  Bi  Bi7  1  0.09633100  0.50000000  0.13502200  1
  Pb  Pb8  1  0.58205400  0.00000000  0.36569100  1
  Pb  Pb9  1  0.91794600  0.50000000  0.63430900  1
  Pb  Pb10  1  0.86548600  0.00000000  0.04592700  1
  Pb  Pb11  1  0.67345200  0.00000000  0.76160800  1
  Pb  Pb12  1  0.63451400  0.50000000  0.95407300  1
  Pb  Pb13  1  0.82654800  0.50000000  0.23839200  1
  Pb  Pb14  1  0.08205400  0.50000000  0.36569100  1
  Pb  Pb15  1  0.41794600  0.00000000  0.63430900  1
  Pb  Pb16  1  0.36548600  0.50000000  0.04592700  1
  Pb  Pb17  1  0.17345200  0.50000000  0.76160800  1
  Pb  Pb18  1  0.13451400  0.00000000  0.95407300  1
  Pb  Pb19  1  0.32654800  0.00000000  0.23839200  1
  S  S20  1  0.81514900  0.50000000  0.74957500  1
  S  S21  1  0.76711000  0.00000000  0.89861300  1
  S  S22  1  0.76486500  0.00000000  0.58467000  1
  S  S23  1  0.94145800  0.00000000  0.33658500  1
  S  S24  1  0.68485100  0.00000000  0.25042500  1
  S  S25  1  0.73513500  0.50000000  0.41533000  1
  S  S26  1  0.00000000  0.50000000  0.00000000  1
  S  S27  1  0.73289000  0.50000000  0.10138700  1
  S  S28  1  0.55854200  0.50000000  0.66341500  1
  S  S29  1  0.53464900  0.50000000  0.83556400  1
  S  S30  1  0.00000000  0.50000000  0.50000000  1
  S  S31  1  0.96535100  0.00000000  0.16443600  1
  S  S32  1  0.31514900  0.00000000  0.74957500  1
  S  S33  1  0.26711000  0.50000000  0.89861300  1
  S  S34  1  0.26486500  0.50000000  0.58467000  1
  S  S35  1  0.44145800  0.50000000  0.33658500  1
  S  S36  1  0.18485100  0.50000000  0.25042500  1
  S  S37  1  0.23513500  0.00000000  0.41533000  1
  S  S38  1  0.50000000  0.00000000  0.00000000  1
  S  S39  1  0.23289000  0.00000000  0.10138700  1
  S  S40  1  0.05854200  0.00000000  0.66341500  1
  S  S41  1  0.03464900  0.00000000  0.83556400  1
  S  S42  1  0.50000000  0.00000000  0.50000000  1
  S  S43  1  0.46535100  0.50000000  0.16443600  1
