# generated using pymatgen
data_CaAlSiO4F
_symmetry_space_group_name_H-M   'P 1'
_cell_length_a   6.52705000
_cell_length_b   8.58127600
_cell_length_c   7.03941995
_cell_angle_alpha   90.00000000
_cell_angle_beta   115.14290845
_cell_angle_gamma   90.00000000
_symmetry_Int_Tables_number   1
_chemical_formula_structural   CaAlSiO4F
_chemical_formula_sum   'Ca4 Al4 Si4 O16 F4'
_cell_volume   356.92308100
_cell_formula_units_Z   4
loop_
 _symmetry_equiv_pos_site_id
 _symmetry_equiv_pos_as_xyz
  1  'x, y, z'
loop_
 _atom_site_type_symbol
 _atom_site_label
 _atom_site_symmetry_multiplicity
 _atom_site_fract_x
 _atom_site_fract_y
 _atom_site_fract_z
 _atom_site_occupancy
  Ca  Ca0  1  0.50000000  0.66436700  0.25000000  1
  Ca  Ca1  1  0.50000000  0.33563300  0.75000000  1
  Ca  Ca2  1  0.00000000  0.16436700  0.25000000  1
  Ca  Ca3  1  0.00000000  0.83563300  0.75000000  1
  Al  Al4  1  0.50000000  0.00000000  0.00000000  1
  Al  Al5  1  0.50000000  0.00000000  0.50000000  1
  Al  Al6  1  0.00000000  0.50000000  0.00000000  1
  Al  Al7  1  0.00000000  0.50000000  0.50000000  1
  Si  Si8  1  0.50000000  0.31453700  0.25000000  1
  Si  Si9  1  0.50000000  0.68546300  0.75000000  1
  Si  Si10  1  0.00000000  0.81453700  0.25000000  1
  Si  Si11  1  0.00000000  0.18546300  0.75000000  1
  O  O12  1  0.40315650  0.20563650  0.38879800  1
  O  O13  1  0.59684350  0.20563650  0.11120200  1
  O  O14  1  0.59684350  0.79436350  0.61120200  1
  O  O15  1  0.40315650  0.79436350  0.88879800  1
  O  O16  1  0.19624250  0.93548650  0.40500700  1
  O  O17  1  0.80375750  0.06451350  0.59499300  1
  O  O18  1  0.80375750  0.93548650  0.09499300  1
  O  O19  1  0.19624250  0.06451350  0.90500700  1
  O  O20  1  0.90315650  0.70563650  0.38879800  1
  O  O21  1  0.09684350  0.70563650  0.11120200  1
  O  O22  1  0.09684350  0.29436350  0.61120200  1
  O  O23  1  0.90315650  0.29436350  0.88879800  1
  O  O24  1  0.69624250  0.43548650  0.40500700  1
  O  O25  1  0.30375750  0.56451350  0.59499300  1
  O  O26  1  0.30375750  0.43548650  0.09499300  1
  O  O27  1  0.69624250  0.56451350  0.90500700  1
  F  F28  1  0.50000000  0.93222200  0.25000000  1
  F  F29  1  0.50000000  0.06777800  0.75000000  1
  F  F30  1  0.00000000  0.43222200  0.25000000  1
  F  F31  1  0.00000000  0.56777800  0.75000000  1
