# generated using pymatgen
data_Na4CaFe4(PO4)6
_symmetry_space_group_name_H-M   'P 1'
_cell_length_a   12.62290400
_cell_length_b   14.05871200
_cell_length_c   7.21487830
_cell_angle_alpha   90.00000000
_cell_angle_beta   116.21895084
_cell_angle_gamma   90.00000000
_symmetry_Int_Tables_number   1
_chemical_formula_structural   Na4CaFe4(PO4)6
_chemical_formula_sum   'Na8 Ca2 Fe8 P12 O48'
_cell_volume   1148.63125674
_cell_formula_units_Z   2
loop_
 _symmetry_equiv_pos_site_id
 _symmetry_equiv_pos_as_xyz
  1  'x, y, z'
loop_
 _atom_site_type_symbol
 _atom_site_label
 _atom_site_symmetry_multiplicity
 _atom_site_fract_x
 _atom_site_fract_y
 _atom_site_fract_z
 _atom_site_occupancy
  Na  Na0  1  0.46708350  0.05205350  0.20606800  1
  Na  Na1  1  0.50000000  0.50375400  0.50000000  1
  Na  Na2  1  0.50000000  0.86332600  0.50000000  1
  Na  Na3  1  0.53291650  0.05205350  0.79393200  1
  Na  Na4  1  0.96708350  0.55205350  0.20606800  1
  Na  Na5  1  0.00000000  0.00375400  0.50000000  1
  Na  Na6  1  0.00000000  0.36332600  0.50000000  1
  Na  Na7  1  0.03291650  0.55205350  0.79393200  1
  Ca  Ca8  1  0.50000000  0.26623000  0.00000000  1
  Ca  Ca9  1  0.00000000  0.76623000  0.00000000  1
  Fe  Fe10  1  0.78784750  0.87793850  0.13503100  1
  Fe  Fe11  1  0.21215250  0.87793850  0.86496900  1
  Fe  Fe12  1  0.82840900  0.15364400  0.70710700  1
  Fe  Fe13  1  0.17159100  0.15364400  0.29289300  1
  Fe  Fe14  1  0.28784750  0.37793850  0.13503100  1
  Fe  Fe15  1  0.71215250  0.37793850  0.86496900  1
  Fe  Fe16  1  0.32840900  0.65364400  0.70710700  1
  Fe  Fe17  1  0.67159100  0.65364400  0.29289300  1
  P  P18  1  0.38352250  0.72305150  0.15976600  1
  P  P19  1  0.50000000  0.47973200  0.00000000  1
  P  P20  1  0.61647750  0.72305150  0.84023400  1
  P  P21  1  0.23904200  0.17039200  0.67322700  1
  P  P22  1  0.50000000  0.28761100  0.50000000  1
  P  P23  1  0.76095800  0.17039200  0.32677300  1
  P  P24  1  0.88352250  0.22305150  0.15976600  1
  P  P25  1  0.00000000  0.97973200  0.00000000  1
  P  P26  1  0.11647750  0.22305150  0.84023400  1
  P  P27  1  0.73904200  0.67039200  0.67322700  1
  P  P28  1  0.00000000  0.78761100  0.50000000  1
  P  P29  1  0.26095800  0.67039200  0.32677300  1
  O  O30  1  0.68903550  0.77886250  0.73536600  1
  O  O31  1  0.30669750  0.73158950  0.92489600  1
  O  O32  1  0.48797450  0.74853250  0.75163900  1
  O  O33  1  0.66052100  0.94559700  0.02877800  1
  O  O34  1  0.41408600  0.41026300  0.03948500  1
  O  O35  1  0.36001250  0.15235450  0.84688400  1
  O  O36  1  0.63998750  0.15235450  0.15311600  1
  O  O37  1  0.58591400  0.41026300  0.96051500  1
  O  O38  1  0.33947900  0.94559700  0.97122200  1
  O  O39  1  0.86145150  0.12173650  0.24890300  1
  O  O40  1  0.51202550  0.74853250  0.24836100  1
  O  O41  1  0.69330250  0.73158950  0.07510400  1
  O  O42  1  0.38899500  0.35731100  0.43132600  1
  O  O43  1  0.48463750  0.22901050  0.30966600  1
  O  O44  1  0.31096450  0.77886250  0.26463400  1
  O  O45  1  0.69722150  0.05315250  0.55471600  1
  O  O46  1  0.93699600  0.04164700  0.80564200  1
  O  O47  1  0.38877550  0.99903750  0.44375500  1
  O  O48  1  0.61122450  0.99903750  0.55624500  1
  O  O49  1  0.06300400  0.04164700  0.19435800  1
  O  O50  1  0.30277850  0.05315250  0.44528400  1
  O  O51  1  0.51536250  0.22901050  0.69033400  1
  O  O52  1  0.61100500  0.35731100  0.56867400  1
  O  O53  1  0.13854850  0.12173650  0.75109700  1
  O  O54  1  0.18903550  0.27886250  0.73536600  1
  O  O55  1  0.80669750  0.23158950  0.92489600  1
  O  O56  1  0.98797450  0.24853250  0.75163900  1
  O  O57  1  0.16052100  0.44559700  0.02877800  1
  O  O58  1  0.91408600  0.91026300  0.03948500  1
  O  O59  1  0.86001250  0.65235450  0.84688400  1
  O  O60  1  0.13998750  0.65235450  0.15311600  1
  O  O61  1  0.08591400  0.91026300  0.96051500  1
  O  O62  1  0.83947900  0.44559700  0.97122200  1
  O  O63  1  0.36145150  0.62173650  0.24890300  1
  O  O64  1  0.01202550  0.24853250  0.24836100  1
  O  O65  1  0.19330250  0.23158950  0.07510400  1
  O  O66  1  0.88899500  0.85731100  0.43132600  1
  O  O67  1  0.98463750  0.72901050  0.30966600  1
  O  O68  1  0.81096450  0.27886250  0.26463400  1
  O  O69  1  0.19722150  0.55315250  0.55471600  1
  O  O70  1  0.43699600  0.54164700  0.80564200  1
  O  O71  1  0.88877550  0.49903750  0.44375500  1
  O  O72  1  0.11122450  0.49903750  0.55624500  1
  O  O73  1  0.56300400  0.54164700  0.19435800  1
  O  O74  1  0.80277850  0.55315250  0.44528400  1
  O  O75  1  0.01536250  0.72901050  0.69033400  1
  O  O76  1  0.11100500  0.85731100  0.56867400  1
  O  O77  1  0.63854850  0.62173650  0.75109700  1
