# generated using pymatgen
data_CaZnSiH2O5
_symmetry_space_group_name_H-M   'P 1'
_cell_length_a   5.16595400
_cell_length_b   16.10071600
_cell_length_c   5.47397212
_cell_angle_alpha   90.00000000
_cell_angle_beta   103.27782497
_cell_angle_gamma   90.00000000
_symmetry_Int_Tables_number   1
_chemical_formula_structural   CaZnSiH2O5
_chemical_formula_sum   'Ca4 Zn4 Si4 H8 O20'
_cell_volume   443.12951419
_cell_formula_units_Z   4
loop_
 _symmetry_equiv_pos_site_id
 _symmetry_equiv_pos_as_xyz
  1  'x, y, z'
loop_
 _atom_site_type_symbol
 _atom_site_label
 _atom_site_symmetry_multiplicity
 _atom_site_fract_x
 _atom_site_fract_y
 _atom_site_fract_z
 _atom_site_occupancy
  Ca  Ca0  1  0.35172950  0.42821650  0.14441900  1
  Ca  Ca1  1  0.85172950  0.07178350  0.64441900  1
  Ca  Ca2  1  0.85172950  0.92821650  0.14441900  1
  Ca  Ca3  1  0.35172950  0.57178350  0.64441900  1
  Zn  Zn4  1  0.50816500  0.25034600  0.50316400  1
  Zn  Zn5  1  0.00816500  0.24965400  0.00316400  1
  Zn  Zn6  1  0.00816500  0.75034600  0.50316400  1
  Zn  Zn7  1  0.50816500  0.74965400  0.00316400  1
  Si  Si8  1  0.51662700  0.13779800  0.02339800  1
  Si  Si9  1  0.01662700  0.36220200  0.52339800  1
  Si  Si10  1  0.01662700  0.63779800  0.02339800  1
  Si  Si11  1  0.51662700  0.86220200  0.52339800  1
  H  H12  1  0.15517050  0.08287950  0.22682200  1
  H  H13  1  0.65517050  0.41712050  0.72682200  1
  H  H14  1  0.32416700  0.01195100  0.40144800  1
  H  H15  1  0.82416700  0.48804900  0.90144800  1
  H  H16  1  0.65517050  0.58287950  0.22682200  1
  H  H17  1  0.15517050  0.91712050  0.72682200  1
  H  H18  1  0.82416700  0.51195100  0.40144800  1
  H  H19  1  0.32416700  0.98804900  0.90144800  1
  O  O20  1  0.14535500  0.04147200  0.36057600  1
  O  O21  1  0.64535500  0.45852800  0.86057600  1
  O  O22  1  0.68841000  0.35669300  0.45686700  1
  O  O23  1  0.18841000  0.14330700  0.95686700  1
  O  O24  1  0.64287350  0.20661550  0.85137500  1
  O  O25  1  0.14287350  0.29338450  0.35137500  1
  O  O26  1  0.63384000  0.15865800  0.32196600  1
  O  O27  1  0.13384000  0.34134200  0.82196600  1
  O  O28  1  0.10626250  0.45479550  0.44996400  1
  O  O29  1  0.60626250  0.04520450  0.94996400  1
  O  O30  1  0.64535500  0.54147200  0.36057600  1
  O  O31  1  0.14535500  0.95852800  0.86057600  1
  O  O32  1  0.18841000  0.85669300  0.45686700  1
  O  O33  1  0.68841000  0.64330700  0.95686700  1
  O  O34  1  0.14287350  0.70661550  0.85137500  1
  O  O35  1  0.64287350  0.79338450  0.35137500  1
  O  O36  1  0.13384000  0.65865800  0.32196600  1
  O  O37  1  0.63384000  0.84134200  0.82196600  1
  O  O38  1  0.60626250  0.95479550  0.44996400  1
  O  O39  1  0.10626250  0.54520450  0.94996400  1
