# generated using pymatgen
data_Y2Se3
_symmetry_space_group_name_H-M   'P 1'
_cell_length_a   8.72141000
_cell_length_b   8.72141000
_cell_length_c   26.14471800
_cell_angle_alpha   90.00000000
_cell_angle_beta   90.00000000
_cell_angle_gamma   90.00000000
_symmetry_Int_Tables_number   1
_chemical_formula_structural   Y2Se3
_chemical_formula_sum   'Y32 Se48'
_cell_volume   1988.64548622
_cell_formula_units_Z   16
loop_
 _symmetry_equiv_pos_site_id
 _symmetry_equiv_pos_as_xyz
  1  'x, y, z'
loop_
 _atom_site_type_symbol
 _atom_site_label
 _atom_site_symmetry_multiplicity
 _atom_site_fract_x
 _atom_site_fract_y
 _atom_site_fract_z
 _atom_site_occupancy
  Y  Y0  1  0.00000000  0.50000000  0.08250200  1
  Y  Y1  1  0.38198800  0.75000000  0.12500000  1
  Y  Y2  1  0.25866700  0.36619600  0.21031800  1
  Y  Y3  1  0.00000000  0.00000000  0.16749800  1
  Y  Y4  1  0.74133300  0.63380400  0.21031800  1
  Y  Y5  1  0.61801200  0.25000000  0.12500000  1
  Y  Y6  1  0.86619600  0.24133300  0.28968200  1
  Y  Y7  1  0.75000000  0.88198800  0.37500000  1
  Y  Y8  1  0.50000000  0.50000000  0.33250200  1
  Y  Y9  1  0.13380400  0.75866700  0.28968200  1
  Y  Y10  1  0.25000000  0.11801200  0.37500000  1
  Y  Y11  1  0.00000000  0.50000000  0.41749800  1
  Y  Y12  1  0.36619600  0.75866700  0.46031800  1
  Y  Y13  1  0.74133300  0.86619600  0.03968200  1
  Y  Y14  1  0.63380400  0.24133300  0.46031800  1
  Y  Y15  1  0.25866700  0.13380400  0.03968200  1
  Y  Y16  1  0.50000000  0.00000000  0.58250200  1
  Y  Y17  1  0.88198800  0.25000000  0.62500000  1
  Y  Y18  1  0.75866700  0.86619600  0.71031800  1
  Y  Y19  1  0.50000000  0.50000000  0.66749800  1
  Y  Y20  1  0.24133300  0.13380400  0.71031800  1
  Y  Y21  1  0.11801200  0.75000000  0.62500000  1
  Y  Y22  1  0.36619600  0.74133300  0.78968200  1
  Y  Y23  1  0.25000000  0.38198800  0.87500000  1
  Y  Y24  1  0.00000000  0.00000000  0.83250200  1
  Y  Y25  1  0.63380400  0.25866700  0.78968200  1
  Y  Y26  1  0.75000000  0.61801200  0.87500000  1
  Y  Y27  1  0.50000000  0.00000000  0.91749800  1
  Y  Y28  1  0.86619600  0.25866700  0.96031800  1
  Y  Y29  1  0.24133300  0.36619600  0.53968200  1
  Y  Y30  1  0.13380400  0.74133300  0.96031800  1
  Y  Y31  1  0.75866700  0.63380400  0.53968200  1
  Se  Se32  1  0.93330050  0.17890950  0.06565850  1
  Se  Se33  1  0.68288550  0.57014950  0.10462550  1
  Se  Se34  1  0.06669950  0.82109050  0.06565850  1
  Se  Se35  1  0.06669950  0.67890950  0.18434150  1
  Se  Se36  1  0.93330050  0.32109050  0.18434150  1
  Se  Se37  1  0.31711450  0.42985050  0.10462550  1
  Se  Se38  1  0.42053200  0.67551400  0.23254100  1
  Se  Se39  1  0.31711450  0.07014950  0.14537450  1
  Se  Se40  1  0.17551400  0.07946800  0.26745900  1
  Se  Se41  1  0.57946800  0.32448600  0.23254100  1
  Se  Se42  1  0.68288550  0.92985050  0.14537450  1
  Se  Se43  1  0.57014950  0.18288550  0.35462550  1
  Se  Se44  1  0.42985050  0.81711450  0.35462550  1
  Se  Se45  1  0.82448600  0.92053200  0.26745900  1
  Se  Se46  1  0.92985050  0.18288550  0.39537450  1
  Se  Se47  1  0.82109050  0.56669950  0.31565850  1
  Se  Se48  1  0.67890950  0.56669950  0.43434150  1
  Se  Se49  1  0.07014950  0.81711450  0.39537450  1
  Se  Se50  1  0.17890950  0.43330050  0.31565850  1
  Se  Se51  1  0.57946800  0.17551400  0.01745900  1
  Se  Se52  1  0.42053200  0.82448600  0.01745900  1
  Se  Se53  1  0.32109050  0.43330050  0.43434150  1
  Se  Se54  1  0.32448600  0.07946800  0.48254100  1
  Se  Se55  1  0.67551400  0.92053200  0.48254100  1
  Se  Se56  1  0.43330050  0.67890950  0.56565850  1
  Se  Se57  1  0.18288550  0.07014950  0.60462550  1
  Se  Se58  1  0.56669950  0.32109050  0.56565850  1
  Se  Se59  1  0.56669950  0.17890950  0.68434150  1
  Se  Se60  1  0.43330050  0.82109050  0.68434150  1
  Se  Se61  1  0.81711450  0.92985050  0.60462550  1
  Se  Se62  1  0.92053200  0.17551400  0.73254100  1
  Se  Se63  1  0.81711450  0.57014950  0.64537450  1
  Se  Se64  1  0.67551400  0.57946800  0.76745900  1
  Se  Se65  1  0.07946800  0.82448600  0.73254100  1
  Se  Se66  1  0.18288550  0.42985050  0.64537450  1
  Se  Se67  1  0.07014950  0.68288550  0.85462550  1
  Se  Se68  1  0.92985050  0.31711450  0.85462550  1
  Se  Se69  1  0.32448600  0.42053200  0.76745900  1
  Se  Se70  1  0.42985050  0.68288550  0.89537450  1
  Se  Se71  1  0.32109050  0.06669950  0.81565850  1
  Se  Se72  1  0.17890950  0.06669950  0.93434150  1
  Se  Se73  1  0.57014950  0.31711450  0.89537450  1
  Se  Se74  1  0.67890950  0.93330050  0.81565850  1
  Se  Se75  1  0.07946800  0.67551400  0.51745900  1
  Se  Se76  1  0.92053200  0.32448600  0.51745900  1
  Se  Se77  1  0.82109050  0.93330050  0.93434150  1
  Se  Se78  1  0.82448600  0.57946800  0.98254100  1
  Se  Se79  1  0.17551400  0.42053200  0.98254100  1
