# generated using pymatgen
data_SiO2
_symmetry_space_group_name_H-M   'P 1'
_cell_length_a   9.07968600
_cell_length_b   19.48969800
_cell_length_c   10.44715300
_cell_angle_alpha   90.00000000
_cell_angle_beta   90.00000000
_cell_angle_gamma   90.00000000
_symmetry_Int_Tables_number   1
_chemical_formula_structural   SiO2
_chemical_formula_sum   'Si32 O64'
_cell_volume   1848.73172680
_cell_formula_units_Z   32
loop_
 _symmetry_equiv_pos_site_id
 _symmetry_equiv_pos_as_xyz
  1  'x, y, z'
loop_
 _atom_site_type_symbol
 _atom_site_label
 _atom_site_symmetry_multiplicity
 _atom_site_fract_x
 _atom_site_fract_y
 _atom_site_fract_z
 _atom_site_occupancy
  Si  Si0  1  0.67533900  0.95461600  0.38293100  1
  Si  Si1  1  0.17533900  0.54538400  0.61706900  1
  Si  Si2  1  0.82466100  0.95461600  0.11706900  1
  Si  Si3  1  0.32466100  0.54538400  0.88293100  1
  Si  Si4  1  0.82466100  0.54538400  0.61706900  1
  Si  Si5  1  0.32466100  0.95461600  0.38293100  1
  Si  Si6  1  0.67533900  0.54538400  0.88293100  1
  Si  Si7  1  0.17533900  0.95461600  0.11706900  1
  Si  Si8  1  0.82375700  0.79303300  0.11510800  1
  Si  Si9  1  0.32375700  0.70696700  0.88489200  1
  Si  Si10  1  0.67624300  0.79303300  0.38489200  1
  Si  Si11  1  0.17624300  0.70696700  0.61510800  1
  Si  Si12  1  0.67624300  0.70696700  0.88489200  1
  Si  Si13  1  0.17624300  0.79303300  0.11510800  1
  Si  Si14  1  0.82375700  0.70696700  0.61510800  1
  Si  Si15  1  0.32375700  0.79303300  0.38489200  1
  Si  Si16  1  0.17533900  0.45461600  0.38293100  1
  Si  Si17  1  0.67533900  0.04538400  0.61706900  1
  Si  Si18  1  0.32466100  0.45461600  0.11706900  1
  Si  Si19  1  0.82466100  0.04538400  0.88293100  1
  Si  Si20  1  0.32466100  0.04538400  0.61706900  1
  Si  Si21  1  0.82466100  0.45461600  0.38293100  1
  Si  Si22  1  0.17533900  0.04538400  0.88293100  1
  Si  Si23  1  0.67533900  0.45461600  0.11706900  1
  Si  Si24  1  0.32375700  0.29303300  0.11510800  1
  Si  Si25  1  0.82375700  0.20696700  0.88489200  1
  Si  Si26  1  0.17624300  0.29303300  0.38489200  1
  Si  Si27  1  0.67624300  0.20696700  0.61510800  1
  Si  Si28  1  0.17624300  0.20696700  0.88489200  1
  Si  Si29  1  0.67624300  0.29303300  0.11510800  1
  Si  Si30  1  0.32375700  0.20696700  0.61510800  1
  Si  Si31  1  0.82375700  0.29303300  0.38489200  1
  O  O32  1  0.74213600  0.00000000  0.50000000  1
  O  O33  1  0.75786400  0.00000000  0.00000000  1
  O  O34  1  0.25786400  0.00000000  0.50000000  1
  O  O35  1  0.24213600  0.00000000  0.00000000  1
  O  O36  1  0.75000000  0.97939100  0.25000000  1
  O  O37  1  0.25000000  0.52060900  0.75000000  1
  O  O38  1  0.75000000  0.52060900  0.75000000  1
  O  O39  1  0.25000000  0.97939100  0.25000000  1
  O  O40  1  0.70951700  0.87404500  0.41012500  1
  O  O41  1  0.20951700  0.62595500  0.58987500  1
  O  O42  1  0.79048300  0.87404500  0.08987500  1
  O  O43  1  0.29048300  0.62595500  0.91012500  1
  O  O44  1  0.79048300  0.62595500  0.58987500  1
  O  O45  1  0.29048300  0.87404500  0.41012500  1
  O  O46  1  0.70951700  0.62595500  0.91012500  1
  O  O47  1  0.20951700  0.87404500  0.08987500  1
  O  O48  1  0.50000000  0.96774700  0.37062100  1
  O  O49  1  0.00000000  0.53225300  0.62937900  1
  O  O50  1  0.00000000  0.96774700  0.12937900  1
  O  O51  1  0.50000000  0.53225300  0.87062100  1
  O  O52  1  0.75000000  0.76918400  0.25000000  1
  O  O53  1  0.25000000  0.73081600  0.75000000  1
  O  O54  1  0.75000000  0.73081600  0.75000000  1
  O  O55  1  0.25000000  0.76918400  0.25000000  1
  O  O56  1  0.75000000  0.75000000  0.00000000  1
  O  O57  1  0.25000000  0.75000000  0.00000000  1
  O  O58  1  0.75000000  0.75000000  0.50000000  1
  O  O59  1  0.25000000  0.75000000  0.50000000  1
  O  O60  1  0.00000000  0.77857800  0.11956900  1
  O  O61  1  0.50000000  0.72142200  0.88043100  1
  O  O62  1  0.50000000  0.77857800  0.38043100  1
  O  O63  1  0.00000000  0.72142200  0.61956900  1
  O  O64  1  0.24213600  0.50000000  0.50000000  1
  O  O65  1  0.25786400  0.50000000  0.00000000  1
  O  O66  1  0.75786400  0.50000000  0.50000000  1
  O  O67  1  0.74213600  0.50000000  0.00000000  1
  O  O68  1  0.25000000  0.47939100  0.25000000  1
  O  O69  1  0.75000000  0.02060900  0.75000000  1
  O  O70  1  0.25000000  0.02060900  0.75000000  1
  O  O71  1  0.75000000  0.47939100  0.25000000  1
  O  O72  1  0.20951700  0.37404500  0.41012500  1
  O  O73  1  0.70951700  0.12595500  0.58987500  1
  O  O74  1  0.29048300  0.37404500  0.08987500  1
  O  O75  1  0.79048300  0.12595500  0.91012500  1
  O  O76  1  0.29048300  0.12595500  0.58987500  1
  O  O77  1  0.79048300  0.37404500  0.41012500  1
  O  O78  1  0.20951700  0.12595500  0.91012500  1
  O  O79  1  0.70951700  0.37404500  0.08987500  1
  O  O80  1  0.00000000  0.46774700  0.37062100  1
  O  O81  1  0.50000000  0.03225300  0.62937900  1
  O  O82  1  0.50000000  0.46774700  0.12937900  1
  O  O83  1  0.00000000  0.03225300  0.87062100  1
  O  O84  1  0.25000000  0.26918400  0.25000000  1
  O  O85  1  0.75000000  0.23081600  0.75000000  1
  O  O86  1  0.25000000  0.23081600  0.75000000  1
  O  O87  1  0.75000000  0.26918400  0.25000000  1
  O  O88  1  0.25000000  0.25000000  0.00000000  1
  O  O89  1  0.75000000  0.25000000  0.00000000  1
  O  O90  1  0.25000000  0.25000000  0.50000000  1
  O  O91  1  0.75000000  0.25000000  0.50000000  1
  O  O92  1  0.50000000  0.27857800  0.11956900  1
  O  O93  1  0.00000000  0.22142200  0.88043100  1
  O  O94  1  0.00000000  0.27857800  0.38043100  1
  O  O95  1  0.50000000  0.22142200  0.61956900  1
