# generated using pymatgen
data_Co3TeO6
_symmetry_space_group_name_H-M   'P 1'
_cell_length_a   14.92189400
_cell_length_b   8.93497200
_cell_length_c   10.49144301
_cell_angle_alpha   90.00000000
_cell_angle_beta   95.16277431
_cell_angle_gamma   90.00000000
_symmetry_Int_Tables_number   1
_chemical_formula_structural   Co3TeO6
_chemical_formula_sum   'Co36 Te12 O72'
_cell_volume   1393.11474214
_cell_formula_units_Z   12
loop_
 _symmetry_equiv_pos_site_id
 _symmetry_equiv_pos_as_xyz
  1  'x, y, z'
loop_
 _atom_site_type_symbol
 _atom_site_label
 _atom_site_symmetry_multiplicity
 _atom_site_fract_x
 _atom_site_fract_y
 _atom_site_fract_z
 _atom_site_occupancy
  Co  Co0  1  0.47685150  0.65544350  0.96187500  1
  Co  Co1  1  0.63974750  0.14557850  0.26913600  1
  Co  Co2  1  0.70389700  0.86045300  0.42753300  1
  Co  Co3  1  0.52314850  0.65544350  0.53812500  1
  Co  Co4  1  0.36025250  0.14557850  0.23086400  1
  Co  Co5  1  0.33598400  0.29595900  0.94792000  1
  Co  Co6  1  0.52314850  0.34455650  0.03812500  1
  Co  Co7  1  0.66401600  0.70404100  0.05208000  1
  Co  Co8  1  0.63974750  0.85442150  0.76913600  1
  Co  Co9  1  0.29610300  0.13954700  0.57246700  1
  Co  Co10  1  0.50000000  0.81335300  0.25000000  1
  Co  Co11  1  0.36025250  0.85442150  0.73086400  1
  Co  Co12  1  0.33598400  0.70404100  0.44792000  1
  Co  Co13  1  0.66401600  0.29595900  0.55208000  1
  Co  Co14  1  0.47685150  0.34455650  0.46187500  1
  Co  Co15  1  0.70389700  0.13954700  0.92753300  1
  Co  Co16  1  0.29610300  0.86045300  0.07246700  1
  Co  Co17  1  0.50000000  0.18664700  0.75000000  1
  Co  Co18  1  0.97685150  0.15544350  0.96187500  1
  Co  Co19  1  0.13974750  0.64557850  0.26913600  1
  Co  Co20  1  0.20389700  0.36045300  0.42753300  1
  Co  Co21  1  0.02314850  0.15544350  0.53812500  1
  Co  Co22  1  0.86025250  0.64557850  0.23086400  1
  Co  Co23  1  0.83598400  0.79595900  0.94792000  1
  Co  Co24  1  0.02314850  0.84455650  0.03812500  1
  Co  Co25  1  0.16401600  0.20404100  0.05208000  1
  Co  Co26  1  0.13974750  0.35442150  0.76913600  1
  Co  Co27  1  0.79610300  0.63954700  0.57246700  1
  Co  Co28  1  0.00000000  0.31335300  0.25000000  1
  Co  Co29  1  0.86025250  0.35442150  0.73086400  1
  Co  Co30  1  0.83598400  0.20404100  0.44792000  1
  Co  Co31  1  0.16401600  0.79595900  0.55208000  1
  Co  Co32  1  0.97685150  0.84455650  0.46187500  1
  Co  Co33  1  0.20389700  0.63954700  0.92753300  1
  Co  Co34  1  0.79610300  0.36045300  0.07246700  1
  Co  Co35  1  0.00000000  0.68664700  0.75000000  1
  Te  Te36  1  0.16187700  0.00055500  0.29939400  1
  Te  Te37  1  0.16187700  0.99944500  0.79939400  1
  Te  Te38  1  0.83812300  0.99944500  0.70060600  1
  Te  Te39  1  0.50000000  0.00000000  0.50000000  1
  Te  Te40  1  0.83812300  0.00055500  0.20060600  1
  Te  Te41  1  0.50000000  0.00000000  0.00000000  1
  Te  Te42  1  0.66187700  0.50055500  0.29939400  1
  Te  Te43  1  0.66187700  0.49944500  0.79939400  1
  Te  Te44  1  0.33812300  0.49944500  0.70060600  1
  Te  Te45  1  0.00000000  0.50000000  0.50000000  1
  Te  Te46  1  0.33812300  0.50055500  0.20060600  1
  Te  Te47  1  0.00000000  0.50000000  0.00000000  1
  O  O48  1  0.57034300  0.98557900  0.16417100  1
  O  O49  1  0.77311400  0.83624700  0.11078000  1
  O  O50  1  0.24950400  0.02591100  0.16728300  1
  O  O51  1  0.24016850  0.15081950  0.39282300  1
  O  O52  1  0.75983150  0.15081950  0.10717700  1
  O  O53  1  0.59337900  0.34378700  0.70075400  1
  O  O54  1  0.77311400  0.16375300  0.61078000  1
  O  O55  1  0.57289650  0.16549950  0.93773800  1
  O  O56  1  0.39760500  0.34178700  0.30407000  1
  O  O57  1  0.59337900  0.65621300  0.20075400  1
  O  O58  1  0.24016850  0.84918050  0.89282300  1
  O  O59  1  0.57288350  0.16170550  0.43377400  1
  O  O60  1  0.24950400  0.97408900  0.66728300  1
  O  O61  1  0.91825800  0.01284200  0.56043700  1
  O  O62  1  0.08174200  0.98715800  0.43956300  1
  O  O63  1  0.57288350  0.83829450  0.93377400  1
  O  O64  1  0.22688600  0.16375300  0.88922000  1
  O  O65  1  0.91825800  0.98715800  0.06043700  1
  O  O66  1  0.42710350  0.83450050  0.06226200  1
  O  O67  1  0.42711650  0.16170550  0.06622600  1
  O  O68  1  0.42711650  0.83829450  0.56622600  1
  O  O69  1  0.75049600  0.02591100  0.33271700  1
  O  O70  1  0.57034300  0.01442100  0.66417100  1
  O  O71  1  0.39760500  0.65821300  0.80407000  1
  O  O72  1  0.40662100  0.34378700  0.79924600  1
  O  O73  1  0.42965700  0.01442100  0.83582900  1
  O  O74  1  0.40662100  0.65621300  0.29924600  1
  O  O75  1  0.60239500  0.65821300  0.69593000  1
  O  O76  1  0.42965700  0.98557900  0.33582900  1
  O  O77  1  0.42710350  0.16549950  0.56226200  1
  O  O78  1  0.57289650  0.83450050  0.43773800  1
  O  O79  1  0.08174200  0.01284200  0.93956300  1
  O  O80  1  0.75049600  0.97408900  0.83271700  1
  O  O81  1  0.60239500  0.34178700  0.19593000  1
  O  O82  1  0.75983150  0.84918050  0.60717700  1
  O  O83  1  0.22688600  0.83624700  0.38922000  1
  O  O84  1  0.07034300  0.48557900  0.16417100  1
  O  O85  1  0.27311400  0.33624700  0.11078000  1
  O  O86  1  0.74950400  0.52591100  0.16728300  1
  O  O87  1  0.74016850  0.65081950  0.39282300  1
  O  O88  1  0.25983150  0.65081950  0.10717700  1
  O  O89  1  0.09337900  0.84378700  0.70075400  1
  O  O90  1  0.27311400  0.66375300  0.61078000  1
  O  O91  1  0.07289650  0.66549950  0.93773800  1
  O  O92  1  0.89760500  0.84178700  0.30407000  1
  O  O93  1  0.09337900  0.15621300  0.20075400  1
  O  O94  1  0.74016850  0.34918050  0.89282300  1
  O  O95  1  0.07288350  0.66170550  0.43377400  1
  O  O96  1  0.74950400  0.47408900  0.66728300  1
  O  O97  1  0.41825800  0.51284200  0.56043700  1
  O  O98  1  0.58174200  0.48715800  0.43956300  1
  O  O99  1  0.07288350  0.33829450  0.93377400  1
  O  O100  1  0.72688600  0.66375300  0.88922000  1
  O  O101  1  0.41825800  0.48715800  0.06043700  1
  O  O102  1  0.92710350  0.33450050  0.06226200  1
  O  O103  1  0.92711650  0.66170550  0.06622600  1
  O  O104  1  0.92711650  0.33829450  0.56622600  1
  O  O105  1  0.25049600  0.52591100  0.33271700  1
  O  O106  1  0.07034300  0.51442100  0.66417100  1
  O  O107  1  0.89760500  0.15821300  0.80407000  1
  O  O108  1  0.90662100  0.84378700  0.79924600  1
  O  O109  1  0.92965700  0.51442100  0.83582900  1
  O  O110  1  0.90662100  0.15621300  0.29924600  1
  O  O111  1  0.10239500  0.15821300  0.69593000  1
  O  O112  1  0.92965700  0.48557900  0.33582900  1
  O  O113  1  0.92710350  0.66549950  0.56226200  1
  O  O114  1  0.07289650  0.33450050  0.43773800  1
  O  O115  1  0.58174200  0.51284200  0.93956300  1
  O  O116  1  0.25049600  0.47408900  0.83271700  1
  O  O117  1  0.10239500  0.84178700  0.19593000  1
  O  O118  1  0.25983150  0.34918050  0.60717700  1
  O  O119  1  0.72688600  0.33624700  0.38922000  1
