# generated using pymatgen
data_BaMgH4
_symmetry_space_group_name_H-M   'P 1'
_cell_length_a   4.20001800
_cell_length_b   13.77520200
_cell_length_c   5.70762100
_cell_angle_alpha   90.00000000
_cell_angle_beta   90.00000000
_cell_angle_gamma   90.00000000
_symmetry_Int_Tables_number   1
_chemical_formula_structural   BaMgH4
_chemical_formula_sum   'Ba4 Mg4 H16'
_cell_volume   330.22067053
_cell_formula_units_Z   4
loop_
 _symmetry_equiv_pos_site_id
 _symmetry_equiv_pos_as_xyz
  1  'x, y, z'
loop_
 _atom_site_type_symbol
 _atom_site_label
 _atom_site_symmetry_multiplicity
 _atom_site_fract_x
 _atom_site_fract_y
 _atom_site_fract_z
 _atom_site_occupancy
  Ba  Ba0  1  0.50000000  0.86257300  0.75000000  1
  Ba  Ba1  1  0.00000000  0.63742700  0.25000000  1
  Ba  Ba2  1  0.00000000  0.36257300  0.75000000  1
  Ba  Ba3  1  0.50000000  0.13742700  0.25000000  1
  Mg  Mg4  1  0.50000000  0.59497500  0.75000000  1
  Mg  Mg5  1  0.00000000  0.90502500  0.25000000  1
  Mg  Mg6  1  0.00000000  0.09497500  0.75000000  1
  Mg  Mg7  1  0.50000000  0.40502500  0.25000000  1
  H  H8  1  0.50000000  0.68888700  0.99037800  1
  H  H9  1  0.00000000  0.81111300  0.00962200  1
  H  H10  1  0.50000000  0.68888700  0.50962200  1
  H  H11  1  0.00000000  0.81111300  0.49037800  1
  H  H12  1  0.00000000  0.58103600  0.75000000  1
  H  H13  1  0.50000000  0.91896400  0.25000000  1
  H  H14  1  0.00000000  0.00000000  0.00000000  1
  H  H15  1  0.00000000  0.00000000  0.50000000  1
  H  H16  1  0.00000000  0.18888700  0.99037800  1
  H  H17  1  0.50000000  0.31111300  0.00962200  1
  H  H18  1  0.00000000  0.18888700  0.50962200  1
  H  H19  1  0.50000000  0.31111300  0.49037800  1
  H  H20  1  0.50000000  0.08103600  0.75000000  1
  H  H21  1  0.00000000  0.41896400  0.25000000  1
  H  H22  1  0.50000000  0.50000000  0.00000000  1
  H  H23  1  0.50000000  0.50000000  0.50000000  1
