# generated using pymatgen
data_NaSr3NbO6
_symmetry_space_group_name_H-M   'P 1'
_cell_length_a   9.89173224
_cell_length_b   9.89173224
_cell_length_c   11.72307362
_cell_angle_alpha   90.00000000
_cell_angle_beta   90.00000000
_cell_angle_gamma   120.00000000
_symmetry_Int_Tables_number   1
_chemical_formula_structural   NaSr3NbO6
_chemical_formula_sum   'Na6 Sr18 Nb6 O36'
_cell_volume   993.38323920
_cell_formula_units_Z   6
loop_
 _symmetry_equiv_pos_site_id
 _symmetry_equiv_pos_as_xyz
  1  'x, y, z'
loop_
 _atom_site_type_symbol
 _atom_site_label
 _atom_site_symmetry_multiplicity
 _atom_site_fract_x
 _atom_site_fract_y
 _atom_site_fract_z
 _atom_site_occupancy
  Na  Na0  1  0.00000000  0.00000000  0.75000000  1
  Na  Na1  1  0.00000000  0.00000000  0.25000000  1
  Na  Na2  1  0.66666667  0.33333333  0.08333333  1
  Na  Na3  1  0.66666667  0.33333333  0.58333333  1
  Na  Na4  1  0.33333333  0.66666667  0.41666667  1
  Na  Na5  1  0.33333333  0.66666667  0.91666667  1
  Sr  Sr6  1  0.68413033  0.66666667  0.41666667  1
  Sr  Sr7  1  0.33333333  0.01746367  0.41666667  1
  Sr  Sr8  1  0.98253633  0.31586967  0.41666667  1
  Sr  Sr9  1  0.31586967  0.33333333  0.58333333  1
  Sr  Sr10  1  0.66666667  0.98253633  0.58333333  1
  Sr  Sr11  1  0.01746367  0.68413033  0.58333333  1
  Sr  Sr12  1  0.35079700  0.00000000  0.75000000  1
  Sr  Sr13  1  0.00000000  0.35079700  0.75000000  1
  Sr  Sr14  1  0.64920300  0.64920300  0.75000000  1
  Sr  Sr15  1  0.98253633  0.66666667  0.91666667  1
  Sr  Sr16  1  0.33333333  0.31586967  0.91666667  1
  Sr  Sr17  1  0.68413033  0.01746367  0.91666667  1
  Sr  Sr18  1  0.01746367  0.33333333  0.08333333  1
  Sr  Sr19  1  0.66666667  0.68413033  0.08333333  1
  Sr  Sr20  1  0.31586967  0.98253633  0.08333333  1
  Sr  Sr21  1  0.64920300  0.00000000  0.25000000  1
  Sr  Sr22  1  0.00000000  0.64920300  0.25000000  1
  Sr  Sr23  1  0.35079700  0.35079700  0.25000000  1
  Nb  Nb24  1  0.00000000  0.00000000  0.00000000  1
  Nb  Nb25  1  0.00000000  0.00000000  0.50000000  1
  Nb  Nb26  1  0.66666667  0.33333333  0.33333333  1
  Nb  Nb27  1  0.66666667  0.33333333  0.83333333  1
  Nb  Nb28  1  0.33333333  0.66666667  0.66666667  1
  Nb  Nb29  1  0.33333333  0.66666667  0.16666667  1
  O  O30  1  0.48687500  0.63933100  0.56696500  1
  O  O31  1  0.36066900  0.84754400  0.56696500  1
  O  O32  1  0.15245600  0.51312500  0.56696500  1
  O  O33  1  0.18087733  0.02733567  0.59970167  1
  O  O34  1  0.97266433  0.15354167  0.59970167  1
  O  O35  1  0.84645833  0.81912267  0.59970167  1
  O  O36  1  0.51312500  0.36066900  0.43303500  1
  O  O37  1  0.63933100  0.15245600  0.43303500  1
  O  O38  1  0.84754400  0.48687500  0.43303500  1
  O  O39  1  0.81912267  0.97266433  0.40029833  1
  O  O40  1  0.15354167  0.18087733  0.40029833  1
  O  O41  1  0.02733567  0.84645833  0.40029833  1
  O  O42  1  0.15354167  0.97266433  0.90029833  1
  O  O43  1  0.02733567  0.18087733  0.90029833  1
  O  O44  1  0.81912267  0.84645833  0.90029833  1
  O  O45  1  0.84754400  0.36066900  0.93303500  1
  O  O46  1  0.63933100  0.48687500  0.93303500  1
  O  O47  1  0.51312500  0.15245600  0.93303500  1
  O  O48  1  0.17979167  0.69400233  0.76636833  1
  O  O49  1  0.30599767  0.48578933  0.76636833  1
  O  O50  1  0.51421067  0.82020833  0.76636833  1
  O  O51  1  0.48578933  0.30599767  0.73363167  1
  O  O52  1  0.82020833  0.51421067  0.73363167  1
  O  O53  1  0.69400233  0.17979167  0.73363167  1
  O  O54  1  0.82020833  0.30599767  0.23363167  1
  O  O55  1  0.69400233  0.51421067  0.23363167  1
  O  O56  1  0.48578933  0.17979167  0.23363167  1
  O  O57  1  0.51421067  0.69400233  0.26636833  1
  O  O58  1  0.30599767  0.82020833  0.26636833  1
  O  O59  1  0.17979167  0.48578933  0.26636833  1
  O  O60  1  0.84645833  0.02733567  0.09970167  1
  O  O61  1  0.97266433  0.81912267  0.09970167  1
  O  O62  1  0.18087733  0.15354167  0.09970167  1
  O  O63  1  0.15245600  0.63933100  0.06696500  1
  O  O64  1  0.48687500  0.84754400  0.06696500  1
  O  O65  1  0.36066900  0.51312500  0.06696500  1
