# generated using pymatgen
data_Al2P3H11O13
_symmetry_space_group_name_H-M   'P 1'
_cell_length_a   7.72197000
_cell_length_b   10.04941400
_cell_length_c   8.18791974
_cell_angle_alpha   90.00000000
_cell_angle_beta   111.75224847
_cell_angle_gamma   90.00000000
_symmetry_Int_Tables_number   1
_chemical_formula_structural   Al2P3H11O13
_chemical_formula_sum   'Al4 P6 H22 O26'
_cell_volume   590.14984667
_cell_formula_units_Z   2
loop_
 _symmetry_equiv_pos_site_id
 _symmetry_equiv_pos_as_xyz
  1  'x, y, z'
loop_
 _atom_site_type_symbol
 _atom_site_label
 _atom_site_symmetry_multiplicity
 _atom_site_fract_x
 _atom_site_fract_y
 _atom_site_fract_z
 _atom_site_occupancy
  Al  Al0  1  0.43611500  0.85351300  0.97515800  1
  Al  Al1  1  0.91274900  0.57676800  0.63168800  1
  Al  Al2  1  0.56388500  0.35351300  0.02484200  1
  Al  Al3  1  0.08725100  0.07676800  0.36831200  1
  P  P4  1  0.25410400  0.58040500  0.00904200  1
  P  P5  1  0.74589600  0.08040500  0.99095800  1
  P  P6  1  0.95578600  0.37503500  0.34896400  1
  P  P7  1  0.28125500  0.13118000  0.08212200  1
  P  P8  1  0.04421400  0.87503500  0.65103600  1
  P  P9  1  0.71874500  0.63118000  0.91787800  1
  H  H10  1  0.03992800  0.40000300  0.22699600  1
  H  H11  1  0.20665900  0.81792800  0.37804900  1
  H  H12  1  0.14981600  0.17112300  0.91806800  1
  H  H13  1  0.96007200  0.90000300  0.77300400  1
  H  H14  1  0.85018400  0.67112300  0.08193200  1
  H  H15  1  0.78570700  0.40148500  0.78681800  1
  H  H16  1  0.26624800  0.41191500  0.76128100  1
  H  H17  1  0.86562200  0.05099700  0.90176700  1
  H  H18  1  0.55117200  0.61051900  0.46509100  1
  H  H19  1  0.21429300  0.90148500  0.21318200  1
  H  H20  1  0.60441500  0.19212400  0.37664200  1
  H  H21  1  0.62756600  0.53115500  0.33498200  1
  H  H22  1  0.67035400  0.77074100  0.29862900  1
  H  H23  1  0.73375200  0.91191500  0.23871900  1
  H  H24  1  0.23696100  0.60755000  0.48943200  1
  H  H25  1  0.39558500  0.69212400  0.62335800  1
  H  H26  1  0.37243400  0.03115500  0.66501800  1
  H  H27  1  0.44882800  0.11051900  0.53490900  1
  H  H28  1  0.13437800  0.55099700  0.09823300  1
  H  H29  1  0.32964600  0.27074100  0.70137100  1
  H  H30  1  0.76303900  0.10755000  0.51056800  1
  H  H31  1  0.79334100  0.31792800  0.62195100  1
  O  O32  1  0.83682400  0.39998300  0.69215300  1
  O  O33  1  0.74310500  0.37228600  0.25319900  1
  O  O34  1  0.57776300  0.98659100  0.91728800  1
  O  O35  1  0.30372400  0.72707100  0.05105200  1
  O  O36  1  0.36415000  0.34228200  0.78916500  1
  O  O37  1  0.42223700  0.48659100  0.08271200  1
  O  O38  1  0.31530400  0.98149900  0.06916500  1
  O  O39  1  0.66264200  0.59524100  0.43328200  1
  O  O40  1  0.34321500  0.66520800  0.49859400  1
  O  O41  1  0.63585000  0.84228200  0.21083500  1
  O  O42  1  0.65678500  0.16520800  0.50140600  1
  O  O43  1  0.98947300  0.99257600  0.52087600  1
  O  O44  1  0.16317600  0.89998300  0.30784700  1
  O  O45  1  0.54388400  0.71666400  0.88034000  1
  O  O46  1  0.68469600  0.48149900  0.93083500  1
  O  O47  1  0.85159900  0.05209600  0.18781400  1
  O  O48  1  0.14840100  0.55209600  0.81218600  1
  O  O49  1  0.96582000  0.74362500  0.55881300  1
  O  O50  1  0.25689500  0.87228600  0.74680100  1
  O  O51  1  0.01052700  0.49257600  0.47912400  1
  O  O52  1  0.33735800  0.09524100  0.56671800  1
  O  O53  1  0.80373000  0.65412900  0.77824000  1
  O  O54  1  0.45611600  0.21666400  0.11966000  1
  O  O55  1  0.03418000  0.24362500  0.44118700  1
  O  O56  1  0.19627000  0.15412900  0.22176000  1
  O  O57  1  0.69627600  0.22707100  0.94894800  1
