# generated using pymatgen
data_Na3AlF6
_symmetry_space_group_name_H-M   'P 1'
_cell_length_a   5.59451407
_cell_length_b   5.59451407
_cell_length_c   13.83590617
_cell_angle_alpha   90.00000000
_cell_angle_beta   90.00000000
_cell_angle_gamma   120.00000000
_symmetry_Int_Tables_number   1
_chemical_formula_structural   Na3AlF6
_chemical_formula_sum   'Na9 Al3 F18'
_cell_volume   375.02738408
_cell_formula_units_Z   3
loop_
 _symmetry_equiv_pos_site_id
 _symmetry_equiv_pos_as_xyz
  1  'x, y, z'
loop_
 _atom_site_type_symbol
 _atom_site_label
 _atom_site_symmetry_multiplicity
 _atom_site_fract_x
 _atom_site_fract_y
 _atom_site_fract_z
 _atom_site_occupancy
  Na  Na0  1  0.00000000  0.00000000  0.00000000  1
  Na  Na1  1  0.66666667  0.33333333  0.08211433  1
  Na  Na2  1  0.00000000  0.00000000  0.25121900  1
  Na  Na3  1  0.66666667  0.33333333  0.33333333  1
  Na  Na4  1  0.33333333  0.66666667  0.41544767  1
  Na  Na5  1  0.66666667  0.33333333  0.58455233  1
  Na  Na6  1  0.33333333  0.66666667  0.66666667  1
  Na  Na7  1  0.00000000  0.00000000  0.74878100  1
  Na  Na8  1  0.33333333  0.66666667  0.91788567  1
  Al  Al9  1  0.33333333  0.66666667  0.16666667  1
  Al  Al10  1  1.00000000  0.00000000  0.50000000  1
  Al  Al11  1  0.66666667  0.33333333  0.83333333  1
  F  F12  1  0.28266233  0.90632767  0.09074267  1
  F  F13  1  0.57299433  0.95699867  0.24259067  1
  F  F14  1  0.04300133  0.61599567  0.24259067  1
  F  F15  1  0.62366533  0.71733767  0.09074267  1
  F  F16  1  0.09367233  0.37633467  0.09074267  1
  F  F17  1  0.38400433  0.42700567  0.24259067  1
  F  F18  1  0.94932900  0.23966100  0.42407600  1
  F  F19  1  0.23966100  0.29033200  0.57592400  1
  F  F20  1  0.70966800  0.94932900  0.57592400  1
  F  F21  1  0.29033200  0.05067100  0.42407600  1
  F  F22  1  0.76033900  0.70966800  0.42407600  1
  F  F23  1  0.05067100  0.76033900  0.57592400  1
  F  F24  1  0.61599567  0.57299433  0.75740933  1
  F  F25  1  0.90632767  0.62366533  0.90925733  1
  F  F26  1  0.37633467  0.28266233  0.90925733  1
  F  F27  1  0.95699867  0.38400433  0.75740933  1
  F  F28  1  0.42700567  0.04300133  0.75740933  1
  F  F29  1  0.71733767  0.09367233  0.90925733  1
