# generated using pymatgen
data_K3Ta2S11
_symmetry_space_group_name_H-M   'P 1'
_cell_length_a   36.07583600
_cell_length_b   8.06615000
_cell_length_c   12.54632024
_cell_angle_alpha   90.00000000
_cell_angle_beta   100.47935461
_cell_angle_gamma   90.00000000
_symmetry_Int_Tables_number   1
_chemical_formula_structural   K3Ta2S11
_chemical_formula_sum   'K24 Ta16 S88'
_cell_volume   3589.99764448
_cell_formula_units_Z   8
loop_
 _symmetry_equiv_pos_site_id
 _symmetry_equiv_pos_as_xyz
  1  'x, y, z'
loop_
 _atom_site_type_symbol
 _atom_site_label
 _atom_site_symmetry_multiplicity
 _atom_site_fract_x
 _atom_site_fract_y
 _atom_site_fract_z
 _atom_site_occupancy
  K  K0  1  0.46788900  0.82403200  0.90543800  1
  K  K1  1  0.38291950  0.72904450  0.17094000  1
  K  K2  1  0.21046050  0.84979450  0.25669900  1
  K  K3  1  0.03211100  0.32403200  0.59456200  1
  K  K4  1  0.03211100  0.67596800  0.09456200  1
  K  K5  1  0.11708050  0.22904450  0.32906000  1
  K  K6  1  0.46788900  0.17596800  0.40543800  1
  K  K7  1  0.11708050  0.77095550  0.82906000  1
  K  K8  1  0.28953950  0.34979450  0.24330100  1
  K  K9  1  0.28953950  0.65020550  0.74330100  1
  K  K10  1  0.38291950  0.27095550  0.67094000  1
  K  K11  1  0.21046050  0.15020550  0.75669900  1
  K  K12  1  0.96788900  0.32403200  0.90543800  1
  K  K13  1  0.88291950  0.22904450  0.17094000  1
  K  K14  1  0.71046050  0.34979450  0.25669900  1
  K  K15  1  0.53211100  0.82403200  0.59456200  1
  K  K16  1  0.53211100  0.17596800  0.09456200  1
  K  K17  1  0.61708050  0.72904450  0.32906000  1
  K  K18  1  0.96788900  0.67596800  0.40543800  1
  K  K19  1  0.61708050  0.27095550  0.82906000  1
  K  K20  1  0.78953950  0.84979450  0.24330100  1
  K  K21  1  0.78953950  0.15020550  0.74330100  1
  K  K22  1  0.88291950  0.77095550  0.67094000  1
  K  K23  1  0.71046050  0.65020550  0.75669900  1
  Ta  Ta24  1  0.08344000  0.30059600  0.92806900  1
  Ta  Ta25  1  0.32279050  0.78464950  0.42070700  1
  Ta  Ta26  1  0.17720950  0.28464950  0.07929300  1
  Ta  Ta27  1  0.41656000  0.19940400  0.07193100  1
  Ta  Ta28  1  0.32279050  0.21535050  0.92070700  1
  Ta  Ta29  1  0.08344000  0.69940400  0.42806900  1
  Ta  Ta30  1  0.41656000  0.80059600  0.57193100  1
  Ta  Ta31  1  0.17720950  0.71535050  0.57929300  1
  Ta  Ta32  1  0.58344000  0.80059600  0.92806900  1
  Ta  Ta33  1  0.82279050  0.28464950  0.42070700  1
  Ta  Ta34  1  0.67720950  0.78464950  0.07929300  1
  Ta  Ta35  1  0.91656000  0.69940400  0.07193100  1
  Ta  Ta36  1  0.82279050  0.71535050  0.92070700  1
  Ta  Ta37  1  0.58344000  0.19940400  0.42806900  1
  Ta  Ta38  1  0.91656000  0.30059600  0.57193100  1
  Ta  Ta39  1  0.67720950  0.21535050  0.57929300  1
  S  S40  1  0.45509750  0.01019650  0.64554600  1
  S  S41  1  0.31692350  0.51453350  0.50295700  1
  S  S42  1  0.18307650  0.98546650  0.49704300  1
  S  S43  1  0.29814000  0.75888800  0.24430700  1
  S  S44  1  0.46132400  0.56552900  0.56932300  1
  S  S45  1  0.03867600  0.93447100  0.43067700  1
  S  S46  1  0.29814000  0.24111200  0.74430700  1
  S  S47  1  0.12041000  0.45430300  0.09273100  1
  S  S48  1  0.03867600  0.06552900  0.93067700  1
  S  S49  1  0.39500450  0.67744050  0.72601700  1
  S  S50  1  0.18307650  0.01453350  0.99704300  1
  S  S51  1  0.36018800  0.86108200  0.64246100  1
  S  S52  1  0.26636700  0.13922500  0.99634200  1
  S  S53  1  0.36810800  0.44756700  0.94856600  1
  S  S54  1  0.04490250  0.48980350  0.35445400  1
  S  S55  1  0.20186000  0.25888800  0.25569300  1
  S  S56  1  0.33670150  0.91518850  0.94768600  1
  S  S57  1  0.05148300  0.80388300  0.57503000  1
  S  S58  1  0.12041000  0.54569700  0.59273100  1
  S  S59  1  0.04490250  0.51019650  0.85445400  1
  S  S60  1  0.44851700  0.69611700  0.42497000  1
  S  S61  1  0.23363300  0.36077500  0.00365800  1
  S  S62  1  0.13981200  0.63891800  0.35753900  1
  S  S63  1  0.46132400  0.43447100  0.06932300  1
  S  S64  1  0.37959000  0.95430300  0.40726900  1
  S  S65  1  0.13189200  0.94756700  0.55143400  1
  S  S66  1  0.13189200  0.05243300  0.05143400  1
  S  S67  1  0.10499550  0.82255950  0.27398300  1
  S  S68  1  0.13981200  0.36108200  0.85753900  1
  S  S69  1  0.33670150  0.08481150  0.44768600  1
  S  S70  1  0.36810800  0.55243300  0.44856600  1
  S  S71  1  0.44851700  0.30388300  0.92497000  1
  S  S72  1  0.45509750  0.98980350  0.14554600  1
  S  S73  1  0.16329850  0.58481150  0.05231400  1
  S  S74  1  0.20186000  0.74111200  0.75569300  1
  S  S75  1  0.10499550  0.17744050  0.77398300  1
  S  S76  1  0.37959000  0.04569700  0.90726900  1
  S  S77  1  0.26636700  0.86077500  0.49634200  1
  S  S78  1  0.36018800  0.13891800  0.14246100  1
  S  S79  1  0.16329850  0.41518850  0.55231400  1
  S  S80  1  0.23363300  0.63922500  0.50365800  1
  S  S81  1  0.39500450  0.32255950  0.22601700  1
  S  S82  1  0.05148300  0.19611700  0.07503000  1
  S  S83  1  0.31692350  0.48546650  0.00295700  1
  S  S84  1  0.95509750  0.51019650  0.64554600  1
  S  S85  1  0.81692350  0.01453350  0.50295700  1
  S  S86  1  0.68307650  0.48546650  0.49704300  1
  S  S87  1  0.79814000  0.25888800  0.24430700  1
  S  S88  1  0.96132400  0.06552900  0.56932300  1
  S  S89  1  0.53867600  0.43447100  0.43067700  1
  S  S90  1  0.79814000  0.74111200  0.74430700  1
  S  S91  1  0.62041000  0.95430300  0.09273100  1
  S  S92  1  0.53867600  0.56552900  0.93067700  1
  S  S93  1  0.89500450  0.17744050  0.72601700  1
  S  S94  1  0.68307650  0.51453350  0.99704300  1
  S  S95  1  0.86018800  0.36108200  0.64246100  1
  S  S96  1  0.76636700  0.63922500  0.99634200  1
  S  S97  1  0.86810800  0.94756700  0.94856600  1
  S  S98  1  0.54490250  0.98980350  0.35445400  1
  S  S99  1  0.70186000  0.75888800  0.25569300  1
  S  S100  1  0.83670150  0.41518850  0.94768600  1
  S  S101  1  0.55148300  0.30388300  0.57503000  1
  S  S102  1  0.62041000  0.04569700  0.59273100  1
  S  S103  1  0.54490250  0.01019650  0.85445400  1
  S  S104  1  0.94851700  0.19611700  0.42497000  1
  S  S105  1  0.73363300  0.86077500  0.00365800  1
  S  S106  1  0.63981200  0.13891800  0.35753900  1
  S  S107  1  0.96132400  0.93447100  0.06932300  1
  S  S108  1  0.87959000  0.45430300  0.40726900  1
  S  S109  1  0.63189200  0.44756700  0.55143400  1
  S  S110  1  0.63189200  0.55243300  0.05143400  1
  S  S111  1  0.60499550  0.32255950  0.27398300  1
  S  S112  1  0.63981200  0.86108200  0.85753900  1
  S  S113  1  0.83670150  0.58481150  0.44768600  1
  S  S114  1  0.86810800  0.05243300  0.44856600  1
  S  S115  1  0.94851700  0.80388300  0.92497000  1
  S  S116  1  0.95509750  0.48980350  0.14554600  1
  S  S117  1  0.66329850  0.08481150  0.05231400  1
  S  S118  1  0.70186000  0.24111200  0.75569300  1
  S  S119  1  0.60499550  0.67744050  0.77398300  1
  S  S120  1  0.87959000  0.54569700  0.90726900  1
  S  S121  1  0.76636700  0.36077500  0.49634200  1
  S  S122  1  0.86018800  0.63891800  0.14246100  1
  S  S123  1  0.66329850  0.91518850  0.55231400  1
  S  S124  1  0.73363300  0.13922500  0.50365800  1
  S  S125  1  0.89500450  0.82255950  0.22601700  1
  S  S126  1  0.55148300  0.69611700  0.07503000  1
  S  S127  1  0.81692350  0.98546650  0.00295700  1
