# generated using pymatgen
data_NaLaS2
_symmetry_space_group_name_H-M   'P 1'
_cell_length_a   5.79997400
_cell_length_b   5.79997400
_cell_length_c   12.26940000
_cell_angle_alpha   90.00000000
_cell_angle_beta   90.00000000
_cell_angle_gamma   90.00000000
_symmetry_Int_Tables_number   1
_chemical_formula_structural   NaLaS2
_chemical_formula_sum   'Na4 La4 S8'
_cell_volume   412.73891556
_cell_formula_units_Z   4
loop_
 _symmetry_equiv_pos_site_id
 _symmetry_equiv_pos_as_xyz
  1  'x, y, z'
loop_
 _atom_site_type_symbol
 _atom_site_label
 _atom_site_symmetry_multiplicity
 _atom_site_fract_x
 _atom_site_fract_y
 _atom_site_fract_z
 _atom_site_occupancy
  Na  Na0  1  0.00000000  0.00000000  0.00000000  1
  Na  Na1  1  0.00000000  0.50000000  0.25000000  1
  Na  Na2  1  0.50000000  0.50000000  0.50000000  1
  Na  Na3  1  0.50000000  0.00000000  0.75000000  1
  La  La4  1  0.50000000  0.00000000  0.25000000  1
  La  La5  1  0.50000000  0.50000000  0.00000000  1
  La  La6  1  0.00000000  0.50000000  0.75000000  1
  La  La7  1  0.00000000  0.00000000  0.50000000  1
  S  S8  1  0.50000000  0.00000000  0.48498800  1
  S  S9  1  0.50000000  0.00000000  0.01501200  1
  S  S10  1  0.50000000  0.50000000  0.23498800  1
  S  S11  1  0.00000000  0.00000000  0.26501200  1
  S  S12  1  0.00000000  0.50000000  0.98498800  1
  S  S13  1  0.00000000  0.50000000  0.51501200  1
  S  S14  1  0.00000000  0.00000000  0.73498800  1
  S  S15  1  0.50000000  0.50000000  0.76501200  1
