# generated using pymatgen
data_Ba2PrSbO6
_symmetry_space_group_name_H-M   'P 1'
_cell_length_a   6.16835016
_cell_length_b   6.16835016
_cell_length_c   14.97523801
_cell_angle_alpha   90.00000000
_cell_angle_beta   90.00000000
_cell_angle_gamma   120.00000000
_symmetry_Int_Tables_number   1
_chemical_formula_structural   Ba2PrSbO6
_chemical_formula_sum   'Ba6 Pr3 Sb3 O18'
_cell_volume   493.44914829
_cell_formula_units_Z   3
loop_
 _symmetry_equiv_pos_site_id
 _symmetry_equiv_pos_as_xyz
  1  'x, y, z'
loop_
 _atom_site_type_symbol
 _atom_site_label
 _atom_site_symmetry_multiplicity
 _atom_site_fract_x
 _atom_site_fract_y
 _atom_site_fract_z
 _atom_site_occupancy
  Ba  Ba0  1  0.33333333  0.66666667  0.91798067  1
  Ba  Ba1  1  0.33333333  0.66666667  0.41535267  1
  Ba  Ba2  1  0.00000000  0.00000000  0.25131400  1
  Ba  Ba3  1  0.00000000  0.00000000  0.74868600  1
  Ba  Ba4  1  0.66666667  0.33333333  0.58464733  1
  Ba  Ba5  1  0.66666667  0.33333333  0.08201933  1
  Pr  Pr6  1  0.00000000  0.00000000  0.00000000  1
  Pr  Pr7  1  0.66666667  0.33333333  0.33333333  1
  Pr  Pr8  1  0.33333333  0.66666667  0.66666667  1
  Sb  Sb9  1  0.33333333  0.66666667  0.16666667  1
  Sb  Sb10  1  1.00000000  0.00000000  0.50000000  1
  Sb  Sb11  1  0.66666667  0.33333333  0.83333333  1
  O  O12  1  0.22441233  0.86367867  0.08887267  1
  O  O13  1  0.63926633  0.77558767  0.08887267  1
  O  O14  1  0.13632133  0.36073367  0.08887267  1
  O  O15  1  0.44225433  0.46965467  0.24446067  1
  O  O16  1  0.53034533  0.97259967  0.24446067  1
  O  O17  1  0.02740033  0.55774567  0.24446067  1
  O  O18  1  0.89107900  0.19701200  0.42220600  1
  O  O19  1  0.30593300  0.10892100  0.42220600  1
  O  O20  1  0.80298800  0.69406700  0.42220600  1
  O  O21  1  0.10892100  0.80298800  0.57779400  1
  O  O22  1  0.19701200  0.30593300  0.57779400  1
  O  O23  1  0.69406700  0.89107900  0.57779400  1
  O  O24  1  0.55774567  0.53034533  0.75553933  1
  O  O25  1  0.97259967  0.44225433  0.75553933  1
  O  O26  1  0.46965467  0.02740033  0.75553933  1
  O  O27  1  0.77558767  0.13632133  0.91112733  1
  O  O28  1  0.86367867  0.63926633  0.91112733  1
  O  O29  1  0.36073367  0.22441233  0.91112733  1
