# generated using pymatgen
data_Al(HO)3
_symmetry_space_group_name_H-M   'P 1'
_cell_length_a   5.08629400
_cell_length_b   8.78207476
_cell_length_c   9.38424314
_cell_angle_alpha   89.51310031
_cell_angle_beta   89.30588193
_cell_angle_gamma   89.56016852
_symmetry_Int_Tables_number   1
_chemical_formula_structural   Al(HO)3
_chemical_formula_sum   'Al8 H24 O24'
_cell_volume   419.11946493
_cell_formula_units_Z   8
loop_
 _symmetry_equiv_pos_site_id
 _symmetry_equiv_pos_as_xyz
  1  'x, y, z'
loop_
 _atom_site_type_symbol
 _atom_site_label
 _atom_site_symmetry_multiplicity
 _atom_site_fract_x
 _atom_site_fract_y
 _atom_site_fract_z
 _atom_site_occupancy
  Al  Al0  1  0.96966200  0.16927200  0.49395600  1
  Al  Al1  1  0.52795200  0.67044500  0.51518900  1
  Al  Al2  1  0.49456800  0.84084500  0.01202500  1
  Al  Al3  1  0.00069700  0.32352100  0.98091000  1
  Al  Al4  1  0.01914400  0.84337300  0.50934800  1
  Al  Al5  1  0.47515300  0.33695300  0.49572300  1
  Al  Al6  1  0.52267600  0.17697100  0.98096800  1
  Al  Al7  1  0.97759000  0.65603900  0.01638900  1
  H  H8  1  0.18456100  0.54066800  0.38752800  1
  H  H9  1  0.32628200  0.02978800  0.60884400  1
  H  H10  1  0.67028200  0.45983000  0.11591300  1
  H  H11  1  0.63973700  0.99502900  0.78740500  1
  H  H12  1  0.65720100  0.45929200  0.71589600  1
  H  H13  1  0.66839600  0.97096700  0.39034100  1
  H  H14  1  0.26329400  0.49516500  0.82604800  1
  H  H15  1  0.17389000  0.03433100  0.10887000  1
  H  H16  1  0.35050500  0.11544000  0.32238400  1
  H  H17  1  0.09200000  0.61820100  0.65621900  1
  H  H18  1  0.85901900  0.89081700  0.18088800  1
  H  H19  1  0.71299800  0.78590200  0.72359600  1
  H  H20  1  0.84351000  0.38975600  0.31863600  1
  H  H21  1  0.19159400  0.18797600  0.77716900  1
  H  H22  1  0.35880300  0.60680600  0.16608800  1
  H  H23  1  0.83355800  0.69263400  0.30623500  1
  H  H24  1  0.68424500  0.22901900  0.70740000  1
  H  H25  1  0.29574800  0.29497400  0.19431500  1
  H  H26  1  0.19184600  0.78123300  0.78368200  1
  H  H27  1  0.06739100  0.92298900  0.87871500  1
  H  H28  1  0.02315700  0.40460900  0.61346000  1
  H  H29  1  0.32288700  0.80143300  0.30540200  1
  H  H30  1  0.58950100  0.57881600  0.90054400  1
  H  H31  1  0.80223100  0.19915200  0.19816300  1
  O  O32  1  0.37342400  0.52018200  0.39807500  1
  O  O33  1  0.13521000  0.01423800  0.60839600  1
  O  O34  1  0.85906000  0.48393400  0.11602200  1
  O  O35  1  0.64841900  0.98932000  0.89111400  1
  O  O36  1  0.63688100  0.49284700  0.61501700  1
  O  O37  1  0.85790700  0.99199400  0.39163600  1
  O  O38  1  0.11729100  0.50913800  0.89141100  1
  O  O39  1  0.36316700  0.01039300  0.10730400  1
  O  O40  1  0.27833000  0.19855900  0.37960100  1
  O  O41  1  0.20599700  0.70545600  0.63804700  1
  O  O42  1  0.79178200  0.80726800  0.12361000  1
  O  O43  1  0.70191300  0.31526200  0.87018600  1
  O  O44  1  0.70386400  0.81672900  0.62293500  1
  O  O45  1  0.77353700  0.30661600  0.37745900  1
  O  O46  1  0.20257800  0.17954100  0.88072500  1
  O  O47  1  0.28169100  0.69689700  0.12007000  1
  O  O48  1  0.85428100  0.67790000  0.40932400  1
  O  O49  1  0.65401300  0.18622600  0.60789300  1
  O  O50  1  0.32860400  0.32433800  0.09435400  1
  O  O51  1  0.16216900  0.82358600  0.88742200  1
  O  O52  1  0.15055800  0.32195400  0.59957900  1
  O  O53  1  0.34674000  0.82728400  0.40622200  1
  O  O54  1  0.66500200  0.68114800  0.90614500  1
  O  O55  1  0.83435800  0.17025000  0.09837100  1
