# generated using pymatgen
data_NaCa3RuO6
_symmetry_space_group_name_H-M   'P 1'
_cell_length_a   9.31694514
_cell_length_b   9.31694514
_cell_length_c   11.27723873
_cell_angle_alpha   90.00000000
_cell_angle_beta   90.00000000
_cell_angle_gamma   120.00000000
_symmetry_Int_Tables_number   1
_chemical_formula_structural   NaCa3RuO6
_chemical_formula_sum   'Na6 Ca18 Ru6 O36'
_cell_volume   847.77475964
_cell_formula_units_Z   6
loop_
 _symmetry_equiv_pos_site_id
 _symmetry_equiv_pos_as_xyz
  1  'x, y, z'
loop_
 _atom_site_type_symbol
 _atom_site_label
 _atom_site_symmetry_multiplicity
 _atom_site_fract_x
 _atom_site_fract_y
 _atom_site_fract_z
 _atom_site_occupancy
  Na  Na0  1  0.00000000  0.00000000  0.25000000  1
  Na  Na1  1  0.00000000  0.00000000  0.75000000  1
  Na  Na2  1  0.66666667  0.33333333  0.58333333  1
  Na  Na3  1  0.66666667  0.33333333  0.08333333  1
  Na  Na4  1  0.33333333  0.66666667  0.91666667  1
  Na  Na5  1  0.33333333  0.66666667  0.41666667  1
  Ca  Ca6  1  0.68824833  0.66666667  0.41666667  1
  Ca  Ca7  1  0.33333333  0.02158167  0.41666667  1
  Ca  Ca8  1  0.97841833  0.31175167  0.41666667  1
  Ca  Ca9  1  0.31175167  0.33333333  0.58333333  1
  Ca  Ca10  1  0.66666667  0.97841833  0.58333333  1
  Ca  Ca11  1  0.02158167  0.68824833  0.58333333  1
  Ca  Ca12  1  0.35491500  0.00000000  0.75000000  1
  Ca  Ca13  1  0.00000000  0.35491500  0.75000000  1
  Ca  Ca14  1  0.64508500  0.64508500  0.75000000  1
  Ca  Ca15  1  0.97841833  0.66666667  0.91666667  1
  Ca  Ca16  1  0.33333333  0.31175167  0.91666667  1
  Ca  Ca17  1  0.68824833  0.02158167  0.91666667  1
  Ca  Ca18  1  0.02158167  0.33333333  0.08333333  1
  Ca  Ca19  1  0.66666667  0.68824833  0.08333333  1
  Ca  Ca20  1  0.31175167  0.97841833  0.08333333  1
  Ca  Ca21  1  0.64508500  0.00000000  0.25000000  1
  Ca  Ca22  1  0.00000000  0.64508500  0.25000000  1
  Ca  Ca23  1  0.35491500  0.35491500  0.25000000  1
  Ru  Ru24  1  0.00000000  0.00000000  0.50000000  1
  Ru  Ru25  1  0.00000000  0.00000000  0.00000000  1
  Ru  Ru26  1  0.66666667  0.33333333  0.83333333  1
  Ru  Ru27  1  0.66666667  0.33333333  0.33333333  1
  Ru  Ru28  1  0.33333333  0.66666667  0.16666667  1
  Ru  Ru29  1  0.33333333  0.66666667  0.66666667  1
  O  O30  1  0.80982333  0.96744767  0.39996867  1
  O  O31  1  0.03255233  0.84237567  0.39996867  1
  O  O32  1  0.15762433  0.19017667  0.39996867  1
  O  O33  1  0.50904233  0.36588567  0.43336467  1
  O  O34  1  0.63411433  0.14315667  0.43336467  1
  O  O35  1  0.85684333  0.49095767  0.43336467  1
  O  O36  1  0.19017667  0.03255233  0.60003133  1
  O  O37  1  0.96744767  0.15762433  0.60003133  1
  O  O38  1  0.84237567  0.80982333  0.60003133  1
  O  O39  1  0.49095767  0.63411433  0.56663533  1
  O  O40  1  0.14315667  0.50904233  0.56663533  1
  O  O41  1  0.36588567  0.85684333  0.56663533  1
  O  O42  1  0.47649000  0.30078100  0.73330200  1
  O  O43  1  0.69921900  0.17570900  0.73330200  1
  O  O44  1  0.82429100  0.52351000  0.73330200  1
  O  O45  1  0.17570900  0.69921900  0.76669800  1
  O  O46  1  0.30078100  0.47649000  0.76669800  1
  O  O47  1  0.52351000  0.82429100  0.76669800  1
  O  O48  1  0.85684333  0.36588567  0.93336467  1
  O  O49  1  0.63411433  0.49095767  0.93336467  1
  O  O50  1  0.50904233  0.14315667  0.93336467  1
  O  O51  1  0.15762433  0.96744767  0.89996867  1
  O  O52  1  0.80982333  0.84237567  0.89996867  1
  O  O53  1  0.03255233  0.19017667  0.89996867  1
  O  O54  1  0.14315667  0.63411433  0.06663533  1
  O  O55  1  0.36588567  0.50904233  0.06663533  1
  O  O56  1  0.49095767  0.85684333  0.06663533  1
  O  O57  1  0.84237567  0.03255233  0.10003133  1
  O  O58  1  0.96744767  0.80982333  0.10003133  1
  O  O59  1  0.19017667  0.15762433  0.10003133  1
  O  O60  1  0.52351000  0.69921900  0.26669800  1
  O  O61  1  0.30078100  0.82429100  0.26669800  1
  O  O62  1  0.17570900  0.47649000  0.26669800  1
  O  O63  1  0.82429100  0.30078100  0.23330200  1
  O  O64  1  0.47649000  0.17570900  0.23330200  1
  O  O65  1  0.69921900  0.52351000  0.23330200  1
