# generated using pymatgen
data_Cs2Tb6Te7N2
_symmetry_space_group_name_H-M   'P 1'
_cell_length_a   24.26354800
_cell_length_b   4.21531600
_cell_length_c   11.51682079
_cell_angle_alpha   90.00000000
_cell_angle_beta   103.65619954
_cell_angle_gamma   90.00000000
_symmetry_Int_Tables_number   1
_chemical_formula_structural   Cs2Tb6Te7N2
_chemical_formula_sum   'Cs4 Tb12 Te14 N4'
_cell_volume   1144.62338540
_cell_formula_units_Z   2
loop_
 _symmetry_equiv_pos_site_id
 _symmetry_equiv_pos_as_xyz
  1  'x, y, z'
loop_
 _atom_site_type_symbol
 _atom_site_label
 _atom_site_symmetry_multiplicity
 _atom_site_fract_x
 _atom_site_fract_y
 _atom_site_fract_z
 _atom_site_occupancy
  Cs  Cs0  1  0.93643500  0.00000000  0.30169900  1
  Cs  Cs1  1  0.56356500  0.50000000  0.69830100  1
  Cs  Cs2  1  0.43643500  0.50000000  0.30169900  1
  Cs  Cs3  1  0.06356500  0.00000000  0.69830100  1
  Tb  Tb4  1  0.83535400  0.00000000  0.60955500  1
  Tb  Tb5  1  0.66464600  0.50000000  0.39044500  1
  Tb  Tb6  1  0.90960700  0.50000000  0.86029200  1
  Tb  Tb7  1  0.59039300  0.00000000  0.13970800  1
  Tb  Tb8  1  0.71592500  0.50000000  0.12831500  1
  Tb  Tb9  1  0.78407500  0.00000000  0.87168500  1
  Tb  Tb10  1  0.33535400  0.50000000  0.60955500  1
  Tb  Tb11  1  0.16464600  0.00000000  0.39044500  1
  Tb  Tb12  1  0.40960700  0.00000000  0.86029200  1
  Tb  Tb13  1  0.09039300  0.50000000  0.13970800  1
  Tb  Tb14  1  0.21592500  0.00000000  0.12831500  1
  Tb  Tb15  1  0.28407500  0.50000000  0.87168500  1
  Te  Te16  1  0.83704000  0.50000000  0.05638700  1
  Te  Te17  1  0.66296000  0.00000000  0.94361300  1
  Te  Te18  1  0.00000000  0.00000000  0.00000000  1
  Te  Te19  1  0.74102800  0.50000000  0.66085500  1
  Te  Te20  1  0.92437500  0.50000000  0.59314000  1
  Te  Te21  1  0.57562500  0.00000000  0.40686000  1
  Te  Te22  1  0.75897200  0.00000000  0.33914500  1
  Te  Te23  1  0.33704000  0.00000000  0.05638700  1
  Te  Te24  1  0.16296000  0.50000000  0.94361300  1
  Te  Te25  1  0.50000000  0.50000000  0.00000000  1
  Te  Te26  1  0.24102800  0.00000000  0.66085500  1
  Te  Te27  1  0.42437500  0.00000000  0.59314000  1
  Te  Te28  1  0.07562500  0.50000000  0.40686000  1
  Te  Te29  1  0.25897200  0.50000000  0.33914500  1
  N  N30  1  0.86326500  0.00000000  0.80341600  1
  N  N31  1  0.63673500  0.50000000  0.19658400  1
  N  N32  1  0.36326500  0.50000000  0.80341600  1
  N  N33  1  0.13673500  0.00000000  0.19658400  1
