# generated using pymatgen
data_H4SO5
_symmetry_space_group_name_H-M   'P 1'
_cell_length_a   7.66925000
_cell_length_b   6.96571400
_cell_length_c   8.83197208
_cell_angle_alpha   90.00000000
_cell_angle_beta   108.69469235
_cell_angle_gamma   90.00000000
_symmetry_Int_Tables_number   1
_chemical_formula_structural   H4SO5
_chemical_formula_sum   'H16 S4 O20'
_cell_volume   446.92663606
_cell_formula_units_Z   4
loop_
 _symmetry_equiv_pos_site_id
 _symmetry_equiv_pos_as_xyz
  1  'x, y, z'
loop_
 _atom_site_type_symbol
 _atom_site_label
 _atom_site_symmetry_multiplicity
 _atom_site_fract_x
 _atom_site_fract_y
 _atom_site_fract_z
 _atom_site_occupancy
  H  H0  1  0.60973300  0.43698800  0.11911300  1
  H  H1  1  0.60973300  0.56301200  0.61911300  1
  H  H2  1  0.03528600  0.40922400  0.05648200  1
  H  H3  1  0.03528600  0.59077600  0.55648200  1
  H  H4  1  0.63997100  0.05946400  0.72186900  1
  H  H5  1  0.76906600  0.19608400  0.87774700  1
  H  H6  1  0.63372700  0.01988300  0.90607100  1
  H  H7  1  0.26505600  0.31812200  0.64796200  1
  H  H8  1  0.22485100  0.70790500  0.57681300  1
  H  H9  1  0.19286800  0.64556300  0.73762500  1
  H  H10  1  0.19286800  0.35443700  0.23762500  1
  H  H11  1  0.26505600  0.68187800  0.14796200  1
  H  H12  1  0.22485100  0.29209500  0.07681300  1
  H  H13  1  0.76906600  0.80391600  0.37774700  1
  H  H14  1  0.63997100  0.94053600  0.22186900  1
  H  H15  1  0.63372700  0.98011700  0.40607100  1
  S  S16  1  0.31490400  0.08235900  0.51064900  1
  S  S17  1  0.73372500  0.56097500  0.95337500  1
  S  S18  1  0.73372500  0.43902500  0.45337500  1
  S  S19  1  0.31490400  0.91764100  0.01064900  1
  O  O20  1  0.22675100  0.78607900  0.88142600  1
  O  O21  1  0.83734100  0.30506400  0.57260800  1
  O  O22  1  0.83734100  0.69493600  0.07260800  1
  O  O23  1  0.22675100  0.21392100  0.38142600  1
  O  O24  1  0.31431700  0.18627800  0.67199300  1
  O  O25  1  0.64515200  0.63694300  0.79285000  1
  O  O26  1  0.64515200  0.36305700  0.29285000  1
  O  O27  1  0.31431700  0.81372200  0.17199300  1
  O  O28  1  0.51385500  0.04792700  0.53642600  1
  O  O29  1  0.56874000  0.47421500  0.00082900  1
  O  O30  1  0.56874000  0.52578500  0.50082900  1
  O  O31  1  0.51385500  0.95207300  0.03642600  1
  O  O32  1  0.21425500  0.90325600  0.50130100  1
  O  O33  1  0.85484000  0.38888900  0.94780000  1
  O  O34  1  0.85484000  0.61111100  0.44780000  1
  O  O35  1  0.21425500  0.09674400  0.00130100  1
  O  O36  1  0.71294200  0.06220300  0.84114700  1
  O  O37  1  0.17901900  0.59166500  0.62709900  1
  O  O38  1  0.17901900  0.40833500  0.12709900  1
  O  O39  1  0.71294200  0.93779700  0.34114700  1
