# generated using pymatgen
data_Gd2Be2GeO7
_symmetry_space_group_name_H-M   'P 1'
_cell_length_a   7.51713758
_cell_length_b   7.51713758
_cell_length_c   4.86829340
_cell_angle_alpha   90.00000000
_cell_angle_beta   90.00000000
_cell_angle_gamma   90.00000000
_symmetry_Int_Tables_number   1
_chemical_formula_structural   Gd2Be2GeO7
_chemical_formula_sum   'Gd4 Be4 Ge2 O14'
_cell_volume   275.09439489
_cell_formula_units_Z   2
loop_
 _symmetry_equiv_pos_site_id
 _symmetry_equiv_pos_as_xyz
  1  'x, y, z'
loop_
 _atom_site_type_symbol
 _atom_site_label
 _atom_site_symmetry_multiplicity
 _atom_site_fract_x
 _atom_site_fract_y
 _atom_site_fract_z
 _atom_site_occupancy
  Gd  Gd0  1  0.34088200  0.15911800  0.99549000  1
  Gd  Gd1  1  0.65911800  0.84088200  0.99549000  1
  Gd  Gd2  1  0.84088200  0.34088200  0.00451000  1
  Gd  Gd3  1  0.15911800  0.65911800  0.00451000  1
  Be  Be4  1  0.86487500  0.63512500  0.54652000  1
  Be  Be5  1  0.36487500  0.86487500  0.45348000  1
  Be  Be6  1  0.13512500  0.36487500  0.54652000  1
  Be  Be7  1  0.63512500  0.13512500  0.45348000  1
  Ge  Ge8  1  0.50000000  0.50000000  0.50000000  1
  Ge  Ge9  1  0.00000000  0.00000000  0.50000000  1
  O  O10  1  0.14149850  0.35850150  0.21984300  1
  O  O11  1  0.17185800  0.91975900  0.28802700  1
  O  O12  1  0.91975900  0.82814200  0.71197300  1
  O  O13  1  0.35850150  0.85850150  0.78015700  1
  O  O14  1  0.32814200  0.41975900  0.71197300  1
  O  O15  1  0.82814200  0.08024100  0.28802700  1
  O  O16  1  0.00000000  0.50000000  0.68208900  1
  O  O17  1  0.85850150  0.64149850  0.21984300  1
  O  O18  1  0.50000000  0.00000000  0.31791100  1
  O  O19  1  0.64149850  0.14149850  0.78015700  1
  O  O20  1  0.41975900  0.67185800  0.28802700  1
  O  O21  1  0.67185800  0.58024100  0.71197300  1
  O  O22  1  0.58024100  0.32814200  0.28802700  1
  O  O23  1  0.08024100  0.17185800  0.71197300  1
