# generated using pymatgen
data_BaCu4S3
_symmetry_space_group_name_H-M   'P 1'
_cell_length_a   3.98503300
_cell_length_b   10.83591600
_cell_length_c   13.41404200
_cell_angle_alpha   90.00000000
_cell_angle_beta   90.00000000
_cell_angle_gamma   90.00000000
_symmetry_Int_Tables_number   1
_chemical_formula_structural   BaCu4S3
_chemical_formula_sum   'Ba4 Cu16 S12'
_cell_volume   579.23822451
_cell_formula_units_Z   4
loop_
 _symmetry_equiv_pos_site_id
 _symmetry_equiv_pos_as_xyz
  1  'x, y, z'
loop_
 _atom_site_type_symbol
 _atom_site_label
 _atom_site_symmetry_multiplicity
 _atom_site_fract_x
 _atom_site_fract_y
 _atom_site_fract_z
 _atom_site_occupancy
  Ba  Ba0  1  0.25000000  0.22398700  0.01952700  1
  Ba  Ba1  1  0.75000000  0.27601300  0.51952700  1
  Ba  Ba2  1  0.25000000  0.72398700  0.48047300  1
  Ba  Ba3  1  0.75000000  0.77601300  0.98047300  1
  Cu  Cu4  1  0.75000000  0.82109500  0.24757100  1
  Cu  Cu5  1  0.75000000  0.08325200  0.27571900  1
  Cu  Cu6  1  0.25000000  0.67890500  0.74757100  1
  Cu  Cu7  1  0.75000000  0.32109500  0.25242900  1
  Cu  Cu8  1  0.25000000  0.53486800  0.10151100  1
  Cu  Cu9  1  0.75000000  0.58325200  0.22428100  1
  Cu  Cu10  1  0.25000000  0.94953900  0.15456900  1
  Cu  Cu11  1  0.75000000  0.55046100  0.65456900  1
  Cu  Cu12  1  0.75000000  0.05046100  0.84543100  1
  Cu  Cu13  1  0.75000000  0.46513200  0.89848900  1
  Cu  Cu14  1  0.25000000  0.17890500  0.75242900  1
  Cu  Cu15  1  0.25000000  0.41674800  0.77571900  1
  Cu  Cu16  1  0.75000000  0.96513200  0.60151100  1
  Cu  Cu17  1  0.25000000  0.44953900  0.34543100  1
  Cu  Cu18  1  0.25000000  0.91674800  0.72428100  1
  Cu  Cu19  1  0.25000000  0.03486800  0.39848900  1
  S  S20  1  0.25000000  0.73441000  0.17734200  1
  S  S21  1  0.75000000  0.76559000  0.67734200  1
  S  S22  1  0.25000000  0.46580800  0.61024200  1
  S  S23  1  0.25000000  0.96580800  0.88975800  1
  S  S24  1  0.25000000  0.23441000  0.32265800  1
  S  S25  1  0.75000000  0.03419200  0.11024200  1
  S  S26  1  0.75000000  0.92854900  0.39903500  1
  S  S27  1  0.75000000  0.53419200  0.38975800  1
  S  S28  1  0.75000000  0.42854900  0.10096500  1
  S  S29  1  0.25000000  0.57145100  0.89903500  1
  S  S30  1  0.25000000  0.07145100  0.60096500  1
  S  S31  1  0.75000000  0.26559000  0.82265800  1
