# generated using pymatgen
data_H2SeO4
_symmetry_space_group_name_H-M   'P 1'
_cell_length_a   8.46231800
_cell_length_b   4.74622200
_cell_length_c   9.25393628
_cell_angle_alpha   90.00000000
_cell_angle_beta   90.49566700
_cell_angle_gamma   90.00000000
_symmetry_Int_Tables_number   1
_chemical_formula_structural   H2SeO4
_chemical_formula_sum   'H8 Se4 O16'
_cell_volume   371.66155763
_cell_formula_units_Z   4
loop_
 _symmetry_equiv_pos_site_id
 _symmetry_equiv_pos_as_xyz
  1  'x, y, z'
loop_
 _atom_site_type_symbol
 _atom_site_label
 _atom_site_symmetry_multiplicity
 _atom_site_fract_x
 _atom_site_fract_y
 _atom_site_fract_z
 _atom_site_occupancy
  H  H0  1  0.97348900  0.40233300  0.79145000  1
  H  H1  1  0.02651100  0.90233300  0.20855000  1
  H  H2  1  0.28618200  0.47354600  0.00788200  1
  H  H3  1  0.71381800  0.97354600  0.99211800  1
  H  H4  1  0.21882600  0.48715200  0.50113600  1
  H  H5  1  0.78117400  0.98715200  0.49886400  1
  H  H6  1  0.47525800  0.05508100  0.70426600  1
  H  H7  1  0.52474200  0.55508100  0.29573400  1
  Se  Se8  1  0.28164600  0.90755100  0.11697000  1
  Se  Se9  1  0.71835400  0.40755100  0.88303000  1
  Se  Se10  1  0.21912900  0.05435400  0.61115800  1
  Se  Se11  1  0.78087100  0.55435400  0.38884200  1
  O  O12  1  0.36598600  0.75483700  0.25586600  1
  O  O13  1  0.63401400  0.25483700  0.74413400  1
  O  O14  1  0.13384500  0.20976800  0.74722000  1
  O  O15  1  0.86615500  0.70976800  0.25278000  1
  O  O16  1  0.37163300  0.17641400  0.04328800  1
  O  O17  1  0.62836700  0.67641400  0.95671200  1
  O  O18  1  0.12878600  0.78796000  0.53392800  1
  O  O19  1  0.87121400  0.28796000  0.46607200  1
  O  O20  1  0.23545900  0.66329200  0.98275700  1
  O  O21  1  0.76454100  0.16329200  0.01724300  1
  O  O22  1  0.27127800  0.29860900  0.47902500  1
  O  O23  1  0.72872200  0.79860900  0.52097500  1
  O  O24  1  0.09872400  0.04625400  0.16292100  1
  O  O25  1  0.90127600  0.54625400  0.83707900  1
  O  O26  1  0.39957600  0.91009200  0.66322700  1
  O  O27  1  0.60042400  0.41009200  0.33677300  1
