# generated using pymatgen
data_Nd4Si4N7ClO3
_symmetry_space_group_name_H-M   'P 1'
_cell_length_a   10.38019500
_cell_length_b   10.44396500
_cell_length_c   10.56950400
_cell_angle_alpha   90.00000000
_cell_angle_beta   90.00000000
_cell_angle_gamma   90.00000000
_symmetry_Int_Tables_number   1
_chemical_formula_structural   Nd4Si4N7ClO3
_chemical_formula_sum   'Nd16 Si16 N28 Cl4 O12'
_cell_volume   1145.84408534
_cell_formula_units_Z   4
loop_
 _symmetry_equiv_pos_site_id
 _symmetry_equiv_pos_as_xyz
  1  'x, y, z'
loop_
 _atom_site_type_symbol
 _atom_site_label
 _atom_site_symmetry_multiplicity
 _atom_site_fract_x
 _atom_site_fract_y
 _atom_site_fract_z
 _atom_site_occupancy
  Nd  Nd0  1  0.81717400  0.68785700  0.04432600  1
  Nd  Nd1  1  0.10732400  0.10822600  0.10210300  1
  Nd  Nd2  1  0.19223600  0.44884200  0.17806600  1
  Nd  Nd3  1  0.45419400  0.18429400  0.18915900  1
  Nd  Nd4  1  0.54580600  0.68429400  0.31084100  1
  Nd  Nd5  1  0.80776400  0.94884200  0.32193400  1
  Nd  Nd6  1  0.89267600  0.60822600  0.39789700  1
  Nd  Nd7  1  0.18282600  0.18785700  0.45567400  1
  Nd  Nd8  1  0.68282600  0.31214300  0.54432600  1
  Nd  Nd9  1  0.39267600  0.89177400  0.60210300  1
  Nd  Nd10  1  0.30776400  0.55115800  0.67806600  1
  Nd  Nd11  1  0.04580600  0.81570600  0.68915900  1
  Nd  Nd12  1  0.95419400  0.31570600  0.81084100  1
  Nd  Nd13  1  0.69223600  0.05115800  0.82193400  1
  Nd  Nd14  1  0.60732400  0.39177400  0.89789700  1
  Nd  Nd15  1  0.31717400  0.81214300  0.95567400  1
  Si  Si16  1  0.57139500  0.92957500  0.07042900  1
  Si  Si17  1  0.74629000  0.19825500  0.07633800  1
  Si  Si18  1  0.08079300  0.74179400  0.19555300  1
  Si  Si19  1  0.30394600  0.91854000  0.24377200  1
  Si  Si20  1  0.69605400  0.41854000  0.25622800  1
  Si  Si21  1  0.91920700  0.24179400  0.30444700  1
  Si  Si22  1  0.25371000  0.69825500  0.42366200  1
  Si  Si23  1  0.42860500  0.42957500  0.42957100  1
  Si  Si24  1  0.92860500  0.07042500  0.57042900  1
  Si  Si25  1  0.75371000  0.80174500  0.57633800  1
  Si  Si26  1  0.41920700  0.25820600  0.69555300  1
  Si  Si27  1  0.19605400  0.08146000  0.74377200  1
  Si  Si28  1  0.80394600  0.58146000  0.75622800  1
  Si  Si29  1  0.58079300  0.75820600  0.80444700  1
  Si  Si30  1  0.24629000  0.30174500  0.92366200  1
  Si  Si31  1  0.07139500  0.57042500  0.92957100  1
  N  N32  1  0.63257400  0.07933700  0.05297200  1
  N  N33  1  0.28657100  0.25806600  0.07508700  1
  N  N34  1  0.05041600  0.63232700  0.07833100  1
  N  N35  1  0.64937600  0.32542700  0.13146200  1
  N  N36  1  0.42067700  0.94628300  0.13306400  1
  N  N37  1  0.17410200  0.87011500  0.14995400  1
  N  N38  1  0.86982200  0.15104600  0.17633900  1
  N  N39  1  0.13017800  0.65104600  0.32366100  1
  N  N40  1  0.82589800  0.37011500  0.35004600  1
  N  N41  1  0.57932300  0.44628300  0.36693600  1
  N  N42  1  0.35062400  0.82542700  0.36853800  1
  N  N43  1  0.94958400  0.13232700  0.42166900  1
  N  N44  1  0.71342900  0.75806600  0.42491300  1
  N  N45  1  0.36742600  0.57933700  0.44702800  1
  N  N46  1  0.86742600  0.92066300  0.55297200  1
  N  N47  1  0.21342900  0.74193400  0.57508700  1
  N  N48  1  0.44958400  0.36767300  0.57833100  1
  N  N49  1  0.85062400  0.67457300  0.63146200  1
  N  N50  1  0.07932300  0.05371700  0.63306400  1
  N  N51  1  0.32589800  0.12988500  0.64995400  1
  N  N52  1  0.63017800  0.84895400  0.67633900  1
  N  N53  1  0.36982200  0.34895400  0.82366100  1
  N  N54  1  0.67410200  0.62988500  0.85004600  1
  N  N55  1  0.92067700  0.55371700  0.86693600  1
  N  N56  1  0.14937600  0.17457300  0.86853800  1
  N  N57  1  0.55041600  0.86767300  0.92166900  1
  N  N58  1  0.78657100  0.24193400  0.92491300  1
  N  N59  1  0.13257400  0.42066300  0.94702800  1
  Cl  Cl60  1  0.42382000  0.57881200  0.07269000  1
  Cl  Cl61  1  0.57618000  0.07881200  0.42731000  1
  Cl  Cl62  1  0.07618000  0.42118800  0.57269000  1
  Cl  Cl63  1  0.92382000  0.92118800  0.92731000  1
  O  O64  1  0.66510300  0.83558300  0.15859300  1
  O  O65  1  0.74005900  0.56740700  0.21029200  1
  O  O66  1  0.92968400  0.78609600  0.23591900  1
  O  O67  1  0.07031600  0.28609600  0.26408100  1
  O  O68  1  0.25994100  0.06740700  0.28970800  1
  O  O69  1  0.33489700  0.33558300  0.34140700  1
  O  O70  1  0.83489700  0.16441700  0.65859300  1
  O  O71  1  0.75994100  0.43259300  0.71029200  1
  O  O72  1  0.57031600  0.21390400  0.73591900  1
  O  O73  1  0.42968400  0.71390400  0.76408100  1
  O  O74  1  0.24005900  0.93259300  0.78970800  1
  O  O75  1  0.16510300  0.66441700  0.84140700  1
