# generated using pymatgen
data_LiCaUF8
_symmetry_space_group_name_H-M   'P 1'
_cell_length_a   5.30437200
_cell_length_b   5.30437200
_cell_length_c   11.00368600
_cell_angle_alpha   90.00000000
_cell_angle_beta   90.00000000
_cell_angle_gamma   90.00000000
_symmetry_Int_Tables_number   1
_chemical_formula_structural   LiCaUF8
_chemical_formula_sum   'Li2 Ca2 U2 F16'
_cell_volume   309.60369609
_cell_formula_units_Z   2
loop_
 _symmetry_equiv_pos_site_id
 _symmetry_equiv_pos_as_xyz
  1  'x, y, z'
loop_
 _atom_site_type_symbol
 _atom_site_label
 _atom_site_symmetry_multiplicity
 _atom_site_fract_x
 _atom_site_fract_y
 _atom_site_fract_z
 _atom_site_occupancy
  Li  Li0  1  0.00000000  0.00000000  0.00000000  1
  Li  Li1  1  0.50000000  0.50000000  0.50000000  1
  Ca  Ca2  1  0.50000000  0.00000000  0.25000000  1
  Ca  Ca3  1  0.00000000  0.50000000  0.75000000  1
  U  U4  1  0.50000000  0.50000000  0.00000000  1
  U  U5  1  0.00000000  0.00000000  0.50000000  1
  F  F6  1  0.32511250  0.78048450  0.42309350  1
  F  F7  1  0.67488750  0.21951550  0.42309350  1
  F  F8  1  0.71951550  0.82511250  0.07690650  1
  F  F9  1  0.28048450  0.17488750  0.07690650  1
  F  F10  1  0.83511900  0.79251200  0.34824900  1
  F  F11  1  0.16488100  0.20748800  0.34824900  1
  F  F12  1  0.70748800  0.33511900  0.15175100  1
  F  F13  1  0.29251200  0.66488100  0.15175100  1
  F  F14  1  0.82511250  0.28048450  0.92309350  1
  F  F15  1  0.17488750  0.71951550  0.92309350  1
  F  F16  1  0.21951550  0.32511250  0.57690650  1
  F  F17  1  0.78048450  0.67488750  0.57690650  1
  F  F18  1  0.33511900  0.29251200  0.84824900  1
  F  F19  1  0.66488100  0.70748800  0.84824900  1
  F  F20  1  0.20748800  0.83511900  0.65175100  1
  F  F21  1  0.79251200  0.16488100  0.65175100  1
