# generated using pymatgen
data_K2Rb2Re6S13
_symmetry_space_group_name_H-M   'P 1'
_cell_length_a   9.99472000
_cell_length_b   16.66983000
_cell_length_c   13.80329221
_cell_angle_alpha   90.00000000
_cell_angle_beta   100.49156454
_cell_angle_gamma   90.00000000
_symmetry_Int_Tables_number   1
_chemical_formula_structural   K2Rb2Re6S13
_chemical_formula_sum   'K8 Rb8 Re24 S52'
_cell_volume   2261.32223531
_cell_formula_units_Z   4
loop_
 _symmetry_equiv_pos_site_id
 _symmetry_equiv_pos_as_xyz
  1  'x, y, z'
loop_
 _atom_site_type_symbol
 _atom_site_label
 _atom_site_symmetry_multiplicity
 _atom_site_fract_x
 _atom_site_fract_y
 _atom_site_fract_z
 _atom_site_occupancy
  K  K0  1  0.29255400  0.02202700  0.20878900  1
  K  K1  1  0.29255400  0.97797300  0.70878900  1
  K  K2  1  0.70744600  0.02202700  0.29121100  1
  K  K3  1  0.70744600  0.97797300  0.79121100  1
  K  K4  1  0.79255400  0.52202700  0.20878900  1
  K  K5  1  0.79255400  0.47797300  0.70878900  1
  K  K6  1  0.20744600  0.52202700  0.29121100  1
  K  K7  1  0.20744600  0.47797300  0.79121100  1
  Rb  Rb8  1  0.23687350  0.11780350  0.91122600  1
  Rb  Rb9  1  0.76312650  0.11780350  0.58877400  1
  Rb  Rb10  1  0.23687350  0.88219650  0.41122600  1
  Rb  Rb11  1  0.76312650  0.88219650  0.08877400  1
  Rb  Rb12  1  0.73687350  0.61780350  0.91122600  1
  Rb  Rb13  1  0.26312650  0.61780350  0.58877400  1
  Rb  Rb14  1  0.73687350  0.38219650  0.41122600  1
  Rb  Rb15  1  0.26312650  0.38219650  0.08877400  1
  Re  Re16  1  0.63129150  0.78673850  0.57934800  1
  Re  Re17  1  0.36870850  0.78673850  0.92065200  1
  Re  Re18  1  0.35191750  0.65556450  0.02382000  1
  Re  Re19  1  0.64808250  0.65556450  0.47618000  1
  Re  Re20  1  0.64140900  0.20160100  0.89001400  1
  Re  Re21  1  0.35859100  0.20160100  0.60998600  1
  Re  Re22  1  0.64808250  0.34443550  0.97618000  1
  Re  Re23  1  0.35191750  0.34443550  0.52382000  1
  Re  Re24  1  0.63129150  0.21326150  0.07934800  1
  Re  Re25  1  0.64140900  0.79839900  0.39001400  1
  Re  Re26  1  0.36870850  0.21326150  0.42065200  1
  Re  Re27  1  0.35859100  0.79839900  0.10998600  1
  Re  Re28  1  0.13129150  0.28673850  0.57934800  1
  Re  Re29  1  0.86870850  0.28673850  0.92065200  1
  Re  Re30  1  0.85191750  0.15556450  0.02382000  1
  Re  Re31  1  0.14808250  0.15556450  0.47618000  1
  Re  Re32  1  0.14140900  0.70160100  0.89001400  1
  Re  Re33  1  0.85859100  0.70160100  0.60998600  1
  Re  Re34  1  0.14808250  0.84443550  0.97618000  1
  Re  Re35  1  0.85191750  0.84443550  0.52382000  1
  Re  Re36  1  0.13129150  0.71326150  0.07934800  1
  Re  Re37  1  0.14140900  0.29839900  0.39001400  1
  Re  Re38  1  0.86870850  0.71326150  0.42065200  1
  Re  Re39  1  0.85859100  0.29839900  0.10998600  1
  S  S40  1  0.35396050  0.34631450  0.34809500  1
  S  S41  1  0.36478800  0.91574900  0.00476000  1
  S  S42  1  0.64603950  0.34631450  0.15190500  1
  S  S43  1  0.50000000  0.87114400  0.25000000  1
  S  S44  1  0.66659250  0.67430950  0.30508300  1
  S  S45  1  0.33340750  0.67430950  0.19491700  1
  S  S46  1  0.45798650  0.17399250  0.17398500  1
  S  S47  1  0.63521200  0.91574900  0.49524000  1
  S  S48  1  0.54201350  0.17399250  0.32601500  1
  S  S49  1  0.45798650  0.82600750  0.67398500  1
  S  S50  1  0.55048550  0.74005850  0.05039600  1
  S  S51  1  0.64603950  0.65368550  0.65190500  1
  S  S52  1  0.33340750  0.32569050  0.69491700  1
  S  S53  1  0.35396050  0.65368550  0.84809500  1
  S  S54  1  0.44951450  0.25994150  0.94960400  1
  S  S55  1  0.50289650  0.46589850  0.93506500  1
  S  S56  1  0.54201350  0.82600750  0.82601500  1
  S  S57  1  0.44951450  0.74005850  0.44960400  1
  S  S58  1  0.63521200  0.08425100  0.99524000  1
  S  S59  1  0.49710350  0.53410150  0.06493500  1
  S  S60  1  0.50000000  0.12885600  0.75000000  1
  S  S61  1  0.49710350  0.46589850  0.56493500  1
  S  S62  1  0.66659250  0.32569050  0.80508300  1
  S  S63  1  0.50289650  0.53410150  0.43506500  1
  S  S64  1  0.36478800  0.08425100  0.50476000  1
  S  S65  1  0.55048550  0.25994150  0.55039600  1
  S  S66  1  0.85396050  0.84631450  0.34809500  1
  S  S67  1  0.86478800  0.41574900  0.00476000  1
  S  S68  1  0.14603950  0.84631450  0.15190500  1
  S  S69  1  0.00000000  0.37114400  0.25000000  1
  S  S70  1  0.16659250  0.17430950  0.30508300  1
  S  S71  1  0.83340750  0.17430950  0.19491700  1
  S  S72  1  0.95798650  0.67399250  0.17398500  1
  S  S73  1  0.13521200  0.41574900  0.49524000  1
  S  S74  1  0.04201350  0.67399250  0.32601500  1
  S  S75  1  0.95798650  0.32600750  0.67398500  1
  S  S76  1  0.05048550  0.24005850  0.05039600  1
  S  S77  1  0.14603950  0.15368550  0.65190500  1
  S  S78  1  0.83340750  0.82569050  0.69491700  1
  S  S79  1  0.85396050  0.15368550  0.84809500  1
  S  S80  1  0.94951450  0.75994150  0.94960400  1
  S  S81  1  0.00289650  0.96589850  0.93506500  1
  S  S82  1  0.04201350  0.32600750  0.82601500  1
  S  S83  1  0.94951450  0.24005850  0.44960400  1
  S  S84  1  0.13521200  0.58425100  0.99524000  1
  S  S85  1  0.99710350  0.03410150  0.06493500  1
  S  S86  1  0.00000000  0.62885600  0.75000000  1
  S  S87  1  0.99710350  0.96589850  0.56493500  1
  S  S88  1  0.16659250  0.82569050  0.80508300  1
  S  S89  1  0.00289650  0.03410150  0.43506500  1
  S  S90  1  0.86478800  0.58425100  0.50476000  1
  S  S91  1  0.05048550  0.75994150  0.55039600  1
