# generated using pymatgen
data_AgBiS2
_symmetry_space_group_name_H-M   'P 1'
_cell_length_a   7.95641800
_cell_length_b   7.94259000
_cell_length_c   7.01200625
_cell_angle_alpha   90.00000000
_cell_angle_beta   124.53715856
_cell_angle_gamma   90.00000000
_symmetry_Int_Tables_number   1
_chemical_formula_structural   AgBiS2
_chemical_formula_sum   'Ag4 Bi4 S8'
_cell_volume   365.02451557
_cell_formula_units_Z   4
loop_
 _symmetry_equiv_pos_site_id
 _symmetry_equiv_pos_as_xyz
  1  'x, y, z'
loop_
 _atom_site_type_symbol
 _atom_site_label
 _atom_site_symmetry_multiplicity
 _atom_site_fract_x
 _atom_site_fract_y
 _atom_site_fract_z
 _atom_site_occupancy
  Ag  Ag0  1  0.12887250  0.37067150  0.50273300  1
  Ag  Ag1  1  0.12887250  0.62932850  0.00273300  1
  Ag  Ag2  1  0.62887250  0.87067150  0.50273300  1
  Ag  Ag3  1  0.62887250  0.12932850  0.00273300  1
  Bi  Bi4  1  0.12876850  0.12655650  0.00262300  1
  Bi  Bi5  1  0.12876850  0.87344350  0.50262300  1
  Bi  Bi6  1  0.62876850  0.62655650  0.00262300  1
  Bi  Bi7  1  0.62876850  0.37344350  0.50262300  1
  S  S8  1  0.37300850  0.37319050  0.00739600  1
  S  S9  1  0.36346700  0.88103600  0.99104300  1
  S  S10  1  0.37300850  0.62680950  0.50739600  1
  S  S11  1  0.36346700  0.11896400  0.49104300  1
  S  S12  1  0.87300850  0.87319050  0.00739600  1
  S  S13  1  0.86346700  0.38103600  0.99104300  1
  S  S14  1  0.87300850  0.12680950  0.50739600  1
  S  S15  1  0.86346700  0.61896400  0.49104300  1
