# generated using pymatgen
data_Er2Zr2O7
_symmetry_space_group_name_H-M   'P 1'
_cell_length_a   3.59958500
_cell_length_b   7.50647100
_cell_length_c   10.59401500
_cell_angle_alpha   90.00000000
_cell_angle_beta   90.00000000
_cell_angle_gamma   90.00000000
_symmetry_Int_Tables_number   1
_chemical_formula_structural   Er2Zr2O7
_chemical_formula_sum   'Er4 Zr4 O14'
_cell_volume   286.25219661
_cell_formula_units_Z   2
loop_
 _symmetry_equiv_pos_site_id
 _symmetry_equiv_pos_as_xyz
  1  'x, y, z'
loop_
 _atom_site_type_symbol
 _atom_site_label
 _atom_site_symmetry_multiplicity
 _atom_site_fract_x
 _atom_site_fract_y
 _atom_site_fract_z
 _atom_site_occupancy
  Er  Er0  1  0.50000000  0.50000000  0.50000000  1
  Er  Er1  1  0.00000000  0.25000000  0.22620800  1
  Er  Er2  1  0.50000000  0.00000000  0.50000000  1
  Er  Er3  1  0.00000000  0.75000000  0.77379200  1
  Zr  Zr4  1  0.00000000  0.25000000  0.75405200  1
  Zr  Zr5  1  0.00000000  0.75000000  0.24594800  1
  Zr  Zr6  1  0.50000000  0.50000000  0.00000000  1
  Zr  Zr7  1  0.50000000  0.00000000  0.00000000  1
  O  O8  1  0.50000000  0.25000000  0.61866800  1
  O  O9  1  0.00000000  0.45603200  0.37134700  1
  O  O10  1  0.50000000  0.25000000  0.11295300  1
  O  O11  1  0.50000000  0.75000000  0.13267900  1
  O  O12  1  0.00000000  0.48238900  0.87992500  1
  O  O13  1  0.00000000  0.01761100  0.87992500  1
  O  O14  1  0.00000000  0.51761100  0.12007500  1
  O  O15  1  0.50000000  0.25000000  0.86732100  1
  O  O16  1  0.50000000  0.75000000  0.88704700  1
  O  O17  1  0.00000000  0.54396800  0.62865300  1
  O  O18  1  0.00000000  0.95603200  0.62865300  1
  O  O19  1  0.00000000  0.04396800  0.37134700  1
  O  O20  1  0.50000000  0.75000000  0.38133200  1
  O  O21  1  0.00000000  0.98238900  0.12007500  1
