# generated using pymatgen
data_Mg5AlH21O17
_symmetry_space_group_name_H-M   'P 1'
_cell_length_a   3.11524400
_cell_length_b   8.03136997
_cell_length_c   16.09645290
_cell_angle_alpha   96.08041833
_cell_angle_beta   90.91829083
_cell_angle_gamma   100.93088206
_symmetry_Int_Tables_number   1
_chemical_formula_structural   Mg5AlH21O17
_chemical_formula_sum   'Mg5 Al1 H21 O17'
_cell_volume   392.92760116
_cell_formula_units_Z   1
loop_
 _symmetry_equiv_pos_site_id
 _symmetry_equiv_pos_as_xyz
  1  'x, y, z'
loop_
 _atom_site_type_symbol
 _atom_site_label
 _atom_site_symmetry_multiplicity
 _atom_site_fract_x
 _atom_site_fract_y
 _atom_site_fract_z
 _atom_site_occupancy
  Mg  Mg0  1  0.99993600  0.00586900  0.99912700  1
  Mg  Mg1  1  0.48557800  0.99718000  0.16698600  1
  Mg  Mg2  1  0.49651400  0.00407500  0.49941000  1
  Mg  Mg3  1  0.98419000  0.99982200  0.33416200  1
  Mg  Mg4  1  0.00391100  0.99429400  0.65840700  1
  Al  Al5  1  0.49978700  0.99420400  0.82825200  1
  H  H6  1  0.62540700  0.25431500  0.08102000  1
  H  H7  1  0.78248500  0.50856100  0.20751300  1
  H  H8  1  0.87535900  0.74356400  0.10122800  1
  H  H9  1  0.17548400  0.25229800  0.23496900  1
  H  H10  1  0.30577600  0.50461900  0.38294100  1
  H  H11  1  0.42280700  0.74294600  0.26589500  1
  H  H12  1  0.68116400  0.25528700  0.40353200  1
  H  H13  1  0.67971400  0.50309800  0.54069900  1
  H  H14  1  0.71898900  0.49670800  0.30000400  1
  H  H15  1  0.92642100  0.74806800  0.43565600  1
  H  H16  1  0.17420800  0.26192400  0.56553300  1
  H  H17  1  0.11880800  0.49886200  0.69327400  1
  H  H18  1  0.15388100  0.50018400  0.47351500  1
  H  H19  1  0.41666600  0.73721500  0.59210100  1
  H  H20  1  0.64623600  0.24283700  0.73998700  1
  H  H21  1  0.66457800  0.50107400  0.85540500  1
  H  H22  1  0.66193600  0.50257500  0.65259800  1
  H  H23  1  0.88900200  0.74398400  0.75572600  1
  H  H24  1  0.15663600  0.24993900  0.88751400  1
  H  H25  1  0.43470200  0.75743400  0.91533700  1
  H  H26  1  0.71672000  0.50257500  0.95100100  1
  O  O27  1  0.56384200  0.13760600  0.05541300  1
  O  O28  1  0.91341800  0.86430600  0.09637800  1
  O  O29  1  0.05475800  0.13187200  0.22247700  1
  O  O30  1  0.55051600  0.49714600  0.24751400  1
  O  O31  1  0.40925100  0.86225700  0.26626600  1
  O  O32  1  0.55470300  0.13506900  0.39406200  1
  O  O33  1  0.03510800  0.50022100  0.41339200  1
  O  O34  1  0.92428400  0.86851900  0.43814700  1
  O  O35  1  0.06949900  0.13852400  0.56518700  1
  O  O36  1  0.40044700  0.50277500  0.56691300  1
  O  O37  1  0.43805500  0.86105700  0.60732100  1
  O  O38  1  0.55874100  0.11898500  0.73787300  1
  O  O39  1  0.82316600  0.50733700  0.71118500  1
  O  O40  1  0.93796100  0.86534400  0.77973300  1
  O  O41  1  0.06993300  0.12575500  0.88388600  1
  O  O42  1  0.49815700  0.49968600  0.90661900  1
  O  O43  1  0.44626400  0.88002700  0.92528500  1
