# generated using pymatgen
data_ReOF4
_symmetry_space_group_name_H-M   'P 1'
_cell_length_a   19.24836000
_cell_length_b   5.66675600
_cell_length_c   14.89979566
_cell_angle_alpha   90.00000000
_cell_angle_beta   113.69814909
_cell_angle_gamma   90.00000000
_symmetry_Int_Tables_number   1
_chemical_formula_structural   ReOF4
_chemical_formula_sum   'Re16 O16 F64'
_cell_volume   1488.16192685
_cell_formula_units_Z   16
loop_
 _symmetry_equiv_pos_site_id
 _symmetry_equiv_pos_as_xyz
  1  'x, y, z'
loop_
 _atom_site_type_symbol
 _atom_site_label
 _atom_site_symmetry_multiplicity
 _atom_site_fract_x
 _atom_site_fract_y
 _atom_site_fract_z
 _atom_site_occupancy
  Re  Re0  1  0.13391300  0.08865100  0.38866000  1
  Re  Re1  1  0.86608700  0.91134900  0.61134000  1
  Re  Re2  1  0.61082100  0.08366300  0.18103000  1
  Re  Re3  1  0.88917900  0.58366300  0.31897000  1
  Re  Re4  1  0.86608700  0.08865100  0.11134000  1
  Re  Re5  1  0.13391300  0.91134900  0.88866000  1
  Re  Re6  1  0.11082100  0.41633700  0.68103000  1
  Re  Re7  1  0.38917900  0.91633700  0.81897000  1
  Re  Re8  1  0.63391300  0.58865100  0.38866000  1
  Re  Re9  1  0.36608700  0.41134900  0.61134000  1
  Re  Re10  1  0.11082100  0.58366300  0.18103000  1
  Re  Re11  1  0.38917900  0.08366300  0.31897000  1
  Re  Re12  1  0.36608700  0.58865100  0.11134000  1
  Re  Re13  1  0.63391300  0.41134900  0.88866000  1
  Re  Re14  1  0.61082100  0.91633700  0.68103000  1
  Re  Re15  1  0.88917900  0.41633700  0.81897000  1
  O  O16  1  0.82623700  0.10975200  0.52157000  1
  O  O17  1  0.13184300  0.62588500  0.61658300  1
  O  O18  1  0.82623700  0.89024800  0.02157000  1
  O  O19  1  0.63184300  0.87411500  0.11658300  1
  O  O20  1  0.17376300  0.10975200  0.97843000  1
  O  O21  1  0.36815700  0.12588500  0.88341700  1
  O  O22  1  0.86815700  0.37411500  0.38341700  1
  O  O23  1  0.17376300  0.89024800  0.47843000  1
  O  O24  1  0.32623700  0.60975200  0.52157000  1
  O  O25  1  0.63184300  0.12588500  0.61658300  1
  O  O26  1  0.32623700  0.39024800  0.02157000  1
  O  O27  1  0.13184300  0.37411500  0.11658300  1
  O  O28  1  0.67376300  0.60975200  0.97843000  1
  O  O29  1  0.86815700  0.62588500  0.88341700  1
  O  O30  1  0.36815700  0.87411500  0.38341700  1
  O  O31  1  0.67376300  0.39024800  0.47843000  1
  F  F32  1  0.08141000  0.38204500  0.26773900  1
  F  F33  1  0.70485750  0.13077750  0.28805800  1
  F  F34  1  0.91691800  0.87243900  0.22220800  1
  F  F35  1  0.70593350  0.63458150  0.33404200  1
  F  F36  1  0.08308200  0.12756100  0.77779200  1
  F  F37  1  0.29514250  0.86922250  0.71194200  1
  F  F38  1  0.99414250  0.36211950  0.88850200  1
  F  F39  1  0.96236150  0.85636250  0.61075200  1
  F  F40  1  0.87233250  0.85905050  0.37801900  1
  F  F41  1  0.62766750  0.35905050  0.12198100  1
  F  F42  1  0.20593350  0.86541850  0.83404200  1
  F  F43  1  0.91691800  0.12756100  0.72220800  1
  F  F44  1  0.83216650  0.62872050  0.53995500  1
  F  F45  1  0.79514250  0.63077750  0.21194200  1
  F  F46  1  0.08141000  0.61795500  0.76773900  1
  F  F47  1  0.00585750  0.63788050  0.11149800  1
  F  F48  1  0.08308200  0.87243900  0.27779200  1
  F  F49  1  0.03763850  0.85636250  0.88924800  1
  F  F50  1  0.00585750  0.36211950  0.61149800  1
  F  F51  1  0.16783350  0.62872050  0.96004500  1
  F  F52  1  0.16783350  0.37127950  0.46004500  1
  F  F53  1  0.96236150  0.14363750  0.11075200  1
  F  F54  1  0.03763850  0.14363750  0.38924800  1
  F  F55  1  0.79406650  0.13458150  0.16595800  1
  F  F56  1  0.20485750  0.36922250  0.78805800  1
  F  F57  1  0.91859000  0.38204500  0.23226100  1
  F  F58  1  0.83216650  0.37127950  0.03995500  1
  F  F59  1  0.37233250  0.64094950  0.87801900  1
  F  F60  1  0.29406650  0.36541850  0.66595800  1
  F  F61  1  0.12766750  0.14094950  0.62198100  1
  F  F62  1  0.91859000  0.61795500  0.73226100  1
  F  F63  1  0.99414250  0.63788050  0.38850200  1
  F  F64  1  0.58141000  0.88204500  0.26773900  1
  F  F65  1  0.20485750  0.63077750  0.28805800  1
  F  F66  1  0.41691800  0.37243900  0.22220800  1
  F  F67  1  0.20593350  0.13458150  0.33404200  1
  F  F68  1  0.58308200  0.62756100  0.77779200  1
  F  F69  1  0.79514250  0.36922250  0.71194200  1
  F  F70  1  0.49414250  0.86211950  0.88850200  1
  F  F71  1  0.46236150  0.35636250  0.61075200  1
  F  F72  1  0.37233250  0.35905050  0.37801900  1
  F  F73  1  0.12766750  0.85905050  0.12198100  1
  F  F74  1  0.70593350  0.36541850  0.83404200  1
  F  F75  1  0.41691800  0.62756100  0.72220800  1
  F  F76  1  0.33216650  0.12872050  0.53995500  1
  F  F77  1  0.29514250  0.13077750  0.21194200  1
  F  F78  1  0.58141000  0.11795500  0.76773900  1
  F  F79  1  0.50585750  0.13788050  0.11149800  1
  F  F80  1  0.58308200  0.37243900  0.27779200  1
  F  F81  1  0.53763850  0.35636250  0.88924800  1
  F  F82  1  0.50585750  0.86211950  0.61149800  1
  F  F83  1  0.66783350  0.12872050  0.96004500  1
  F  F84  1  0.66783350  0.87127950  0.46004500  1
  F  F85  1  0.46236150  0.64363750  0.11075200  1
  F  F86  1  0.53763850  0.64363750  0.38924800  1
  F  F87  1  0.29406650  0.63458150  0.16595800  1
  F  F88  1  0.70485750  0.86922250  0.78805800  1
  F  F89  1  0.41859000  0.88204500  0.23226100  1
  F  F90  1  0.33216650  0.87127950  0.03995500  1
  F  F91  1  0.87233250  0.14094950  0.87801900  1
  F  F92  1  0.79406650  0.86541850  0.66595800  1
  F  F93  1  0.62766750  0.64094950  0.62198100  1
  F  F94  1  0.41859000  0.11795500  0.73226100  1
  F  F95  1  0.49414250  0.13788050  0.38850200  1
