# generated using pymatgen
data_HgH16(Br3N2)2
_symmetry_space_group_name_H-M   'P 1'
_cell_length_a   9.12397500
_cell_length_b   9.12984700
_cell_length_c   9.48261400
_cell_angle_alpha   90.00000000
_cell_angle_beta   90.00000000
_cell_angle_gamma   90.00000000
_symmetry_Int_Tables_number   1
_chemical_formula_structural   HgH16(Br3N2)2
_chemical_formula_sum   'Hg2 H32 Br12 N8'
_cell_volume   789.90644751
_cell_formula_units_Z   2
loop_
 _symmetry_equiv_pos_site_id
 _symmetry_equiv_pos_as_xyz
  1  'x, y, z'
loop_
 _atom_site_type_symbol
 _atom_site_label
 _atom_site_symmetry_multiplicity
 _atom_site_fract_x
 _atom_site_fract_y
 _atom_site_fract_z
 _atom_site_occupancy
  Hg  Hg0  1  0.50000000  0.50000000  0.50000000  1
  Hg  Hg1  1  0.00000000  0.00000000  0.00000000  1
  H  H2  1  0.81058000  0.77833900  0.40999700  1
  H  H3  1  0.68782000  0.20839700  0.72158400  1
  H  H4  1  0.81218000  0.70839700  0.77841600  1
  H  H5  1  0.31218000  0.79160300  0.27841600  1
  H  H6  1  0.31058000  0.27833900  0.09000300  1
  H  H7  1  0.81218000  0.29160300  0.22158400  1
  H  H8  1  0.18421200  0.07339900  0.69768100  1
  H  H9  1  0.81058000  0.22166100  0.59000300  1
  H  H10  1  0.67603400  0.90280900  0.41888600  1
  H  H11  1  0.31578800  0.57339900  0.80231900  1
  H  H12  1  0.81578800  0.07339900  0.69768100  1
  H  H13  1  0.81578800  0.92660100  0.30231900  1
  H  H14  1  0.17603400  0.40280900  0.08111400  1
  H  H15  1  0.82396600  0.40280900  0.08111400  1
  H  H16  1  0.31218000  0.20839700  0.72158400  1
  H  H17  1  0.17603400  0.59719100  0.91888600  1
  H  H18  1  0.31578800  0.42660100  0.19768100  1
  H  H19  1  0.82396600  0.59719100  0.91888600  1
  H  H20  1  0.68782000  0.79160300  0.27841600  1
  H  H21  1  0.18942000  0.22166100  0.59000300  1
  H  H22  1  0.68942000  0.27833900  0.09000300  1
  H  H23  1  0.32396600  0.90280900  0.41888600  1
  H  H24  1  0.68421200  0.42660100  0.19768100  1
  H  H25  1  0.18782000  0.29160300  0.22158400  1
  H  H26  1  0.32396600  0.09719100  0.58111400  1
  H  H27  1  0.68421200  0.57339900  0.80231900  1
  H  H28  1  0.18421200  0.92660100  0.30231900  1
  H  H29  1  0.18942000  0.77833900  0.40999700  1
  H  H30  1  0.18782000  0.70839700  0.77841600  1
  H  H31  1  0.31058000  0.72166100  0.90999700  1
  H  H32  1  0.68942000  0.72166100  0.90999700  1
  H  H33  1  0.67603400  0.09719100  0.58111400  1
  Br  Br34  1  0.50000000  0.63791700  0.17957800  1
  Br  Br35  1  0.50000000  0.82546900  0.62230500  1
  Br  Br36  1  0.21739400  0.50000000  0.50000000  1
  Br  Br37  1  0.00000000  0.32546900  0.87769500  1
  Br  Br38  1  0.78260600  0.50000000  0.50000000  1
  Br  Br39  1  0.00000000  0.13791700  0.32042200  1
  Br  Br40  1  0.00000000  0.67453100  0.12230500  1
  Br  Br41  1  0.50000000  0.36208300  0.82042200  1
  Br  Br42  1  0.71739400  0.00000000  0.00000000  1
  Br  Br43  1  0.28260600  0.00000000  0.00000000  1
  Br  Br44  1  0.50000000  0.17453100  0.37769500  1
  Br  Br45  1  0.00000000  0.86208300  0.67957800  1
  N  N46  1  0.25121500  0.85100900  0.35192600  1
  N  N47  1  0.24878500  0.35100900  0.14807400  1
  N  N48  1  0.75121500  0.35100900  0.14807400  1
  N  N49  1  0.25121500  0.14899100  0.64807400  1
  N  N50  1  0.74878500  0.85100900  0.35192600  1
  N  N51  1  0.75121500  0.64899100  0.85192600  1
  N  N52  1  0.24878500  0.64899100  0.85192600  1
  N  N53  1  0.74878500  0.14899100  0.64807400  1
