# generated using pymatgen
data_Zn(InS2)2
_symmetry_space_group_name_H-M   'P 1'
_cell_length_a   3.93120357
_cell_length_b   3.93120357
_cell_length_c   75.63186598
_cell_angle_alpha   90.00000000
_cell_angle_beta   90.00000000
_cell_angle_gamma   120.00000000
_symmetry_Int_Tables_number   1
_chemical_formula_structural   Zn(InS2)2
_chemical_formula_sum   'Zn6 In12 S24'
_cell_volume   1012.24703473
_cell_formula_units_Z   6
loop_
 _symmetry_equiv_pos_site_id
 _symmetry_equiv_pos_as_xyz
  1  'x, y, z'
loop_
 _atom_site_type_symbol
 _atom_site_label
 _atom_site_symmetry_multiplicity
 _atom_site_fract_x
 _atom_site_fract_y
 _atom_site_fract_z
 _atom_site_occupancy
  Zn  Zn0  1  0.33333333  0.66666667  0.17414267  1
  Zn  Zn1  1  0.66666667  0.33333333  0.00855333  1
  Zn  Zn2  1  0.00000000  0.00000000  0.50747600  1
  Zn  Zn3  1  0.33333333  0.66666667  0.34188667  1
  Zn  Zn4  1  0.66666667  0.33333333  0.84080933  1
  Zn  Zn5  1  0.00000000  0.00000000  0.67522000  1
  In  In6  1  0.00000000  0.00000000  0.11245700  1
  In  In7  1  0.66666667  0.33333333  0.27948833  1
  In  In8  1  0.33333333  0.66666667  0.05979967  1
  In  In9  1  0.00000000  0.00000000  0.22641700  1
  In  In10  1  0.66666667  0.33333333  0.44579033  1
  In  In11  1  0.33333333  0.66666667  0.61282167  1
  In  In12  1  0.00000000  0.00000000  0.39313300  1
  In  In13  1  0.66666667  0.33333333  0.55975033  1
  In  In14  1  0.33333333  0.66666667  0.77912367  1
  In  In15  1  0.00000000  0.00000000  0.94615500  1
  In  In16  1  0.66666667  0.33333333  0.72646633  1
  In  In17  1  0.33333333  0.66666667  0.89308367  1
  S  S18  1  0.33333333  0.66666667  0.29378467  1
  S  S19  1  0.66666667  0.33333333  0.24692333  1
  S  S20  1  0.00000000  0.00000000  0.16742200  1
  S  S21  1  0.33333333  0.66666667  0.12667267  1
  S  S22  1  0.66666667  0.33333333  0.04321033  1
  S  S23  1  0.33333333  0.66666667  0.20981667  1
  S  S24  1  0.00000000  0.00000000  0.00175500  1
  S  S25  1  0.00000000  0.00000000  0.08005800  1
  S  S26  1  0.00000000  0.00000000  0.62711800  1
  S  S27  1  0.33333333  0.66666667  0.58025667  1
  S  S28  1  0.66666667  0.33333333  0.50075533  1
  S  S29  1  0.00000000  0.00000000  0.46000600  1
  S  S30  1  0.33333333  0.66666667  0.37654367  1
  S  S31  1  0.00000000  0.00000000  0.54315000  1
  S  S32  1  0.66666667  0.33333333  0.33508833  1
  S  S33  1  0.66666667  0.33333333  0.41339133  1
  S  S34  1  0.66666667  0.33333333  0.96045133  1
  S  S35  1  0.00000000  0.00000000  0.91359000  1
  S  S36  1  0.33333333  0.66666667  0.83408867  1
  S  S37  1  0.66666667  0.33333333  0.79333933  1
  S  S38  1  0.00000000  0.00000000  0.70987700  1
  S  S39  1  0.66666667  0.33333333  0.87648333  1
  S  S40  1  0.33333333  0.66666667  0.66842167  1
  S  S41  1  0.33333333  0.66666667  0.74672467  1
