# generated using pymatgen
data_Ho2Se3
_symmetry_space_group_name_H-M   'P 1'
_cell_length_a   8.67368400
_cell_length_b   8.67368400
_cell_length_c   25.95375200
_cell_angle_alpha   90.00000000
_cell_angle_beta   90.00000000
_cell_angle_gamma   90.00000000
_symmetry_Int_Tables_number   1
_chemical_formula_structural   Ho2Se3
_chemical_formula_sum   'Ho32 Se48'
_cell_volume   1952.57328117
_cell_formula_units_Z   16
loop_
 _symmetry_equiv_pos_site_id
 _symmetry_equiv_pos_as_xyz
  1  'x, y, z'
loop_
 _atom_site_type_symbol
 _atom_site_label
 _atom_site_symmetry_multiplicity
 _atom_site_fract_x
 _atom_site_fract_y
 _atom_site_fract_z
 _atom_site_occupancy
  Ho  Ho0  1  0.13441600  0.25934200  0.46031000  1
  Ho  Ho1  1  0.86558400  0.74065800  0.46031000  1
  Ho  Ho2  1  0.50000000  0.00000000  0.41783800  1
  Ho  Ho3  1  0.25000000  0.61721200  0.37500000  1
  Ho  Ho4  1  0.00000000  0.00000000  0.33216200  1
  Ho  Ho5  1  0.63441600  0.74065800  0.28969000  1
  Ho  Ho6  1  0.36558400  0.25934200  0.28969000  1
  Ho  Ho7  1  0.75000000  0.38278800  0.37500000  1
  Ho  Ho8  1  0.75934200  0.13441600  0.21031000  1
  Ho  Ho9  1  0.50000000  0.50000000  0.16783800  1
  Ho  Ho10  1  0.11721200  0.25000000  0.12500000  1
  Ho  Ho11  1  0.88278800  0.75000000  0.12500000  1
  Ho  Ho12  1  0.24065800  0.86558400  0.21031000  1
  Ho  Ho13  1  0.50000000  0.00000000  0.08216200  1
  Ho  Ho14  1  0.24065800  0.63441600  0.03969000  1
  Ho  Ho15  1  0.75934200  0.36558400  0.03969000  1
  Ho  Ho16  1  0.63441600  0.75934200  0.96031000  1
  Ho  Ho17  1  0.36558400  0.24065800  0.96031000  1
  Ho  Ho18  1  0.00000000  0.50000000  0.91783800  1
  Ho  Ho19  1  0.75000000  0.11721200  0.87500000  1
  Ho  Ho20  1  0.50000000  0.50000000  0.83216200  1
  Ho  Ho21  1  0.13441600  0.24065800  0.78969000  1
  Ho  Ho22  1  0.86558400  0.75934200  0.78969000  1
  Ho  Ho23  1  0.25000000  0.88278800  0.87500000  1
  Ho  Ho24  1  0.25934200  0.63441600  0.71031000  1
  Ho  Ho25  1  0.00000000  0.00000000  0.66783800  1
  Ho  Ho26  1  0.61721200  0.75000000  0.62500000  1
  Ho  Ho27  1  0.38278800  0.25000000  0.62500000  1
  Ho  Ho28  1  0.74065800  0.36558400  0.71031000  1
  Ho  Ho29  1  0.00000000  0.50000000  0.58216200  1
  Ho  Ho30  1  0.74065800  0.13441600  0.53969000  1
  Ho  Ho31  1  0.25934200  0.86558400  0.53969000  1
  Se  Se32  1  0.82013050  0.06540850  0.43473750  1
  Se  Se33  1  0.43077250  0.31621150  0.39505150  1
  Se  Se34  1  0.17986950  0.93459150  0.43473750  1
  Se  Se35  1  0.32013050  0.93459150  0.31526250  1
  Se  Se36  1  0.67986950  0.06540850  0.31526250  1
  Se  Se37  1  0.06922750  0.31621150  0.35494850  1
  Se  Se38  1  0.56922750  0.68378850  0.39505150  1
  Se  Se39  1  0.32353150  0.57915550  0.26771650  1
  Se  Se40  1  0.93077250  0.68378850  0.35494850  1
  Se  Se41  1  0.92084450  0.82353150  0.23228350  1
  Se  Se42  1  0.67646850  0.42084450  0.26771650  1
  Se  Se43  1  0.81621150  0.43077250  0.14505150  1
  Se  Se44  1  0.18378850  0.56922750  0.14505150  1
  Se  Se45  1  0.56540850  0.82013050  0.18473750  1
  Se  Se46  1  0.07915550  0.17646850  0.23228350  1
  Se  Se47  1  0.81621150  0.06922750  0.10494850  1
  Se  Se48  1  0.43459150  0.17986950  0.18473750  1
  Se  Se49  1  0.43459150  0.32013050  0.06526250  1
  Se  Se50  1  0.18378850  0.93077250  0.10494850  1
  Se  Se51  1  0.82353150  0.42084450  0.48228350  1
  Se  Se52  1  0.17646850  0.57915550  0.48228350  1
  Se  Se53  1  0.07915550  0.32353150  0.01771650  1
  Se  Se54  1  0.56540850  0.67986950  0.06526250  1
  Se  Se55  1  0.92084450  0.67646850  0.01771650  1
  Se  Se56  1  0.32013050  0.56540850  0.93473750  1
  Se  Se57  1  0.93077250  0.81621150  0.89505150  1
  Se  Se58  1  0.67986950  0.43459150  0.93473750  1
  Se  Se59  1  0.82013050  0.43459150  0.81526250  1
  Se  Se60  1  0.17986950  0.56540850  0.81526250  1
  Se  Se61  1  0.56922750  0.81621150  0.85494850  1
  Se  Se62  1  0.06922750  0.18378850  0.89505150  1
  Se  Se63  1  0.82353150  0.07915550  0.76771650  1
  Se  Se64  1  0.43077250  0.18378850  0.85494850  1
  Se  Se65  1  0.42084450  0.32353150  0.73228350  1
  Se  Se66  1  0.17646850  0.92084450  0.76771650  1
  Se  Se67  1  0.31621150  0.93077250  0.64505150  1
  Se  Se68  1  0.68378850  0.06922750  0.64505150  1
  Se  Se69  1  0.06540850  0.32013050  0.68473750  1
  Se  Se70  1  0.57915550  0.67646850  0.73228350  1
  Se  Se71  1  0.31621150  0.56922750  0.60494850  1
  Se  Se72  1  0.93459150  0.67986950  0.68473750  1
  Se  Se73  1  0.93459150  0.82013050  0.56526250  1
  Se  Se74  1  0.68378850  0.43077250  0.60494850  1
  Se  Se75  1  0.32353150  0.92084450  0.98228350  1
  Se  Se76  1  0.67646850  0.07915550  0.98228350  1
  Se  Se77  1  0.57915550  0.82353150  0.51771650  1
  Se  Se78  1  0.06540850  0.17986950  0.56526250  1
  Se  Se79  1  0.42084450  0.17646850  0.51771650  1
