# generated using pymatgen
data_Er14Ti10O41
_symmetry_space_group_name_H-M   'P 1'
_cell_length_a   12.59943400
_cell_length_b   7.29258600
_cell_length_c   17.45291790
_cell_angle_alpha   90.00000000
_cell_angle_beta   90.54477535
_cell_angle_gamma   90.00000000
_symmetry_Int_Tables_number   1
_chemical_formula_structural   Er14Ti10O41
_chemical_formula_sum   'Er28 Ti20 O82'
_cell_volume   1603.54447488
_cell_formula_units_Z   2
loop_
 _symmetry_equiv_pos_site_id
 _symmetry_equiv_pos_as_xyz
  1  'x, y, z'
loop_
 _atom_site_type_symbol
 _atom_site_label
 _atom_site_symmetry_multiplicity
 _atom_site_fract_x
 _atom_site_fract_y
 _atom_site_fract_z
 _atom_site_occupancy
  Er  Er0  1  0.83854400  0.00000000  0.81782700  1
  Er  Er1  1  0.32924000  0.00000000  0.83260100  1
  Er  Er2  1  0.00920100  0.00000000  0.99947500  1
  Er  Er3  1  0.48256700  0.00000000  0.00789900  1
  Er  Er4  1  0.58873700  0.25783700  0.83171000  1
  Er  Er5  1  0.99129700  0.00000000  0.49715500  1
  Er  Er6  1  0.58873700  0.74216300  0.83171000  1
  Er  Er7  1  0.16568500  0.00000000  0.67081300  1
  Er  Er8  1  0.75352750  0.23641450  0.49660100  1
  Er  Er9  1  0.83373700  0.00000000  0.33062200  1
  Er  Er10  1  0.42023150  0.74609050  0.17033900  1
  Er  Er11  1  0.75352750  0.76358550  0.49660100  1
  Er  Er12  1  0.42023150  0.25390950  0.17033900  1
  Er  Er13  1  0.66517300  0.00000000  0.16854200  1
  Er  Er14  1  0.33854400  0.50000000  0.81782700  1
  Er  Er15  1  0.82924000  0.50000000  0.83260100  1
  Er  Er16  1  0.50920100  0.50000000  0.99947500  1
  Er  Er17  1  0.98256700  0.50000000  0.00789900  1
  Er  Er18  1  0.08873700  0.75783700  0.83171000  1
  Er  Er19  1  0.49129700  0.50000000  0.49715500  1
  Er  Er20  1  0.08873700  0.24216300  0.83171000  1
  Er  Er21  1  0.66568500  0.50000000  0.67081300  1
  Er  Er22  1  0.25352750  0.73641450  0.49660100  1
  Er  Er23  1  0.33373700  0.50000000  0.33062200  1
  Er  Er24  1  0.92023150  0.24609050  0.17033900  1
  Er  Er25  1  0.25352750  0.26358550  0.49660100  1
  Er  Er26  1  0.92023150  0.75390950  0.17033900  1
  Er  Er27  1  0.16517300  0.50000000  0.16854200  1
  Ti  Ti28  1  0.75411950  0.23932750  0.99846100  1
  Ti  Ti29  1  0.75411950  0.76067250  0.99846100  1
  Ti  Ti30  1  0.42392550  0.22608350  0.66023400  1
  Ti  Ti31  1  0.42392550  0.77391650  0.66023400  1
  Ti  Ti32  1  0.65212800  0.00000000  0.66189200  1
  Ti  Ti33  1  0.58431700  0.74948700  0.33582300  1
  Ti  Ti34  1  0.16505000  0.00000000  0.16761600  1
  Ti  Ti35  1  0.58431700  0.25051300  0.33582300  1
  Ti  Ti36  1  0.50064300  0.00000000  0.51332700  1
  Ti  Ti37  1  0.33321400  0.00000000  0.33610800  1
  Ti  Ti38  1  0.25411950  0.73932750  0.99846100  1
  Ti  Ti39  1  0.25411950  0.26067250  0.99846100  1
  Ti  Ti40  1  0.92392550  0.72608350  0.66023400  1
  Ti  Ti41  1  0.92392550  0.27391650  0.66023400  1
  Ti  Ti42  1  0.15212800  0.50000000  0.66189200  1
  Ti  Ti43  1  0.08431700  0.24948700  0.33582300  1
  Ti  Ti44  1  0.66505000  0.50000000  0.16761600  1
  Ti  Ti45  1  0.08431700  0.75051300  0.33582300  1
  Ti  Ti46  1  0.00064300  0.50000000  0.51332700  1
  Ti  Ti47  1  0.83321400  0.50000000  0.33610800  1
  O  O48  1  0.41968950  0.23474850  0.78101400  1
  O  O49  1  0.30423300  0.00000000  0.97233000  1
  O  O50  1  0.58505100  0.22802900  0.96167400  1
  O  O51  1  0.41968950  0.76525150  0.78101400  1
  O  O52  1  0.50096800  0.00000000  0.62522900  1
  O  O53  1  0.57603750  0.77124750  0.45244500  1
  O  O54  1  0.96849800  0.00000000  0.63519600  1
  O  O55  1  0.99302700  0.00000000  0.87578300  1
  O  O56  1  0.58048200  0.75817100  0.69127600  1
  O  O57  1  0.58505100  0.77197100  0.96167400  1
  O  O58  1  0.66533700  0.00000000  0.77933300  1
  O  O59  1  0.76565500  0.79722400  0.63578500  1
  O  O60  1  0.76696700  0.78178700  0.89003200  1
  O  O61  1  0.57603750  0.22875250  0.45244500  1
  O  O62  1  0.17205700  0.00000000  0.79178100  1
  O  O63  1  0.58048200  0.24182900  0.69127600  1
  O  O64  1  0.63622700  0.00000000  0.31488600  1
  O  O65  1  0.21722300  0.80733700  0.10600900  1
  O  O66  1  0.65261500  0.00000000  0.54538100  1
  O  O67  1  0.23687250  0.79211850  0.36103300  1
  O  O68  1  0.76565500  0.20277600  0.63578500  1
  O  O69  1  0.35094600  0.00000000  0.45091200  1
  O  O70  1  0.76696700  0.21821300  0.89003200  1
  O  O71  1  0.33925600  0.00000000  0.68845500  1
  O  O72  1  0.42422700  0.77196900  0.54526100  1
  O  O73  1  0.43171500  0.79609000  0.31047900  1
  O  O74  1  0.21722300  0.19266300  0.10600900  1
  O  O75  1  0.83271400  0.00000000  0.45513300  1
  O  O76  1  0.83019700  0.00000000  0.20681200  1
  O  O77  1  0.23687250  0.20788150  0.36103300  1
  O  O78  1  0.30152500  0.00000000  0.22579300  1
  O  O79  1  0.39682250  0.28061250  0.03707300  1
  O  O80  1  0.43171500  0.20391000  0.31047900  1
  O  O81  1  0.02650400  0.00000000  0.35978000  1
  O  O82  1  0.01894100  0.00000000  0.12694900  1
  O  O83  1  0.42422700  0.22803100  0.54526100  1
  O  O84  1  0.60044400  0.28382900  0.22760200  1
  O  O85  1  0.49946900  0.00000000  0.12935000  1
  O  O86  1  0.39682250  0.71938750  0.03707300  1
  O  O87  1  0.60044400  0.71617100  0.22760200  1
  O  O88  1  0.72225100  0.00000000  0.03565200  1
  O  O89  1  0.91968950  0.73474850  0.78101400  1
  O  O90  1  0.80423300  0.50000000  0.97233000  1
  O  O91  1  0.08505100  0.72802900  0.96167400  1
  O  O92  1  0.91968950  0.26525150  0.78101400  1
  O  O93  1  0.00096800  0.50000000  0.62522900  1
  O  O94  1  0.07603750  0.27124750  0.45244500  1
  O  O95  1  0.46849800  0.50000000  0.63519600  1
  O  O96  1  0.49302700  0.50000000  0.87578300  1
  O  O97  1  0.08048200  0.25817100  0.69127600  1
  O  O98  1  0.08505100  0.27197100  0.96167400  1
  O  O99  1  0.16533700  0.50000000  0.77933300  1
  O  O100  1  0.26565500  0.29722400  0.63578500  1
  O  O101  1  0.26696700  0.28178700  0.89003200  1
  O  O102  1  0.07603750  0.72875250  0.45244500  1
  O  O103  1  0.67205700  0.50000000  0.79178100  1
  O  O104  1  0.08048200  0.74182900  0.69127600  1
  O  O105  1  0.13622700  0.50000000  0.31488600  1
  O  O106  1  0.71722300  0.30733700  0.10600900  1
  O  O107  1  0.15261500  0.50000000  0.54538100  1
  O  O108  1  0.73687250  0.29211850  0.36103300  1
  O  O109  1  0.26565500  0.70277600  0.63578500  1
  O  O110  1  0.85094600  0.50000000  0.45091200  1
  O  O111  1  0.26696700  0.71821300  0.89003200  1
  O  O112  1  0.83925600  0.50000000  0.68845500  1
  O  O113  1  0.92422700  0.27196900  0.54526100  1
  O  O114  1  0.93171500  0.29609000  0.31047900  1
  O  O115  1  0.71722300  0.69266300  0.10600900  1
  O  O116  1  0.33271400  0.50000000  0.45513300  1
  O  O117  1  0.33019700  0.50000000  0.20681200  1
  O  O118  1  0.73687250  0.70788150  0.36103300  1
  O  O119  1  0.80152500  0.50000000  0.22579300  1
  O  O120  1  0.89682250  0.78061250  0.03707300  1
  O  O121  1  0.93171500  0.70391000  0.31047900  1
  O  O122  1  0.52650400  0.50000000  0.35978000  1
  O  O123  1  0.51894100  0.50000000  0.12694900  1
  O  O124  1  0.92422700  0.72803100  0.54526100  1
  O  O125  1  0.10044400  0.78382900  0.22760200  1
  O  O126  1  0.99946900  0.50000000  0.12935000  1
  O  O127  1  0.89682250  0.21938750  0.03707300  1
  O  O128  1  0.10044400  0.21617100  0.22760200  1
  O  O129  1  0.22225100  0.50000000  0.03565200  1
