# generated using pymatgen
data_Sm2PbSe4
_symmetry_space_group_name_H-M   'P 1'
_cell_length_a   9.01204800
_cell_length_b   9.01204800
_cell_length_c   8.99557600
_cell_angle_alpha   90.00000000
_cell_angle_beta   90.00000000
_cell_angle_gamma   90.00000000
_symmetry_Int_Tables_number   1
_chemical_formula_structural   Sm2PbSe4
_chemical_formula_sum   'Sm8 Pb4 Se16'
_cell_volume   730.59377834
_cell_formula_units_Z   4
loop_
 _symmetry_equiv_pos_site_id
 _symmetry_equiv_pos_as_xyz
  1  'x, y, z'
loop_
 _atom_site_type_symbol
 _atom_site_label
 _atom_site_symmetry_multiplicity
 _atom_site_fract_x
 _atom_site_fract_y
 _atom_site_fract_z
 _atom_site_occupancy
  Sm  Sm0  1  0.75000000  0.63038200  0.12500000  1
  Sm  Sm1  1  0.63038200  0.25000000  0.87500000  1
  Sm  Sm2  1  0.75000000  0.86961800  0.62500000  1
  Sm  Sm3  1  0.86961800  0.25000000  0.37500000  1
  Sm  Sm4  1  0.25000000  0.13038200  0.62500000  1
  Sm  Sm5  1  0.13038200  0.75000000  0.37500000  1
  Sm  Sm6  1  0.25000000  0.36961800  0.12500000  1
  Sm  Sm7  1  0.36961800  0.75000000  0.87500000  1
  Pb  Pb8  1  0.50000000  0.50000000  0.50000000  1
  Pb  Pb9  1  0.50000000  0.00000000  0.25000000  1
  Pb  Pb10  1  0.00000000  0.00000000  0.00000000  1
  Pb  Pb11  1  0.00000000  0.50000000  0.75000000  1
  Se  Se12  1  0.32749300  0.42552500  0.81024500  1
  Se  Se13  1  0.92552500  0.17250700  0.68975500  1
  Se  Se14  1  0.57447500  0.32749300  0.18975500  1
  Se  Se15  1  0.92552500  0.32749300  0.06024500  1
  Se  Se16  1  0.67250700  0.92552500  0.93975500  1
  Se  Se17  1  0.82749300  0.57447500  0.43975500  1
  Se  Se18  1  0.17250700  0.07447500  0.31024500  1
  Se  Se19  1  0.57447500  0.17250700  0.56024500  1
  Se  Se20  1  0.82749300  0.92552500  0.31024500  1
  Se  Se21  1  0.42552500  0.67250700  0.18975500  1
  Se  Se22  1  0.07447500  0.82749300  0.68975500  1
  Se  Se23  1  0.42552500  0.82749300  0.56024500  1
  Se  Se24  1  0.17250700  0.42552500  0.43975500  1
  Se  Se25  1  0.32749300  0.07447500  0.93975500  1
  Se  Se26  1  0.67250700  0.57447500  0.81024500  1
  Se  Se27  1  0.07447500  0.67250700  0.06024500  1
