# generated using pymatgen
data_BaP2(HO)4
_symmetry_space_group_name_H-M   'P 1'
_cell_length_a   6.34220400
_cell_length_b   16.05866800
_cell_length_c   6.29218400
_cell_angle_alpha   90.00000000
_cell_angle_beta   90.00000000
_cell_angle_gamma   90.00000000
_symmetry_Int_Tables_number   1
_chemical_formula_structural   BaP2(HO)4
_chemical_formula_sum   'Ba4 P8 H16 O16'
_cell_volume   640.84225620
_cell_formula_units_Z   4
loop_
 _symmetry_equiv_pos_site_id
 _symmetry_equiv_pos_as_xyz
  1  'x, y, z'
loop_
 _atom_site_type_symbol
 _atom_site_label
 _atom_site_symmetry_multiplicity
 _atom_site_fract_x
 _atom_site_fract_y
 _atom_site_fract_z
 _atom_site_occupancy
  Ba  Ba0  1  0.00000000  0.00000000  0.00000000  1
  Ba  Ba1  1  0.50000000  0.00000000  0.50000000  1
  Ba  Ba2  1  0.50000000  0.50000000  0.00000000  1
  Ba  Ba3  1  0.00000000  0.50000000  0.50000000  1
  P  P4  1  0.00000000  0.35994800  0.00000000  1
  P  P5  1  0.50000000  0.35994800  0.50000000  1
  P  P6  1  0.00000000  0.14005200  0.50000000  1
  P  P7  1  0.50000000  0.14005200  0.00000000  1
  P  P8  1  0.50000000  0.85994800  0.00000000  1
  P  P9  1  0.00000000  0.85994800  0.50000000  1
  P  P10  1  0.50000000  0.64005200  0.50000000  1
  P  P11  1  0.00000000  0.64005200  0.00000000  1
  H  H12  1  0.12296800  0.30514400  0.87372600  1
  H  H13  1  0.37703200  0.30514400  0.37372600  1
  H  H14  1  0.12296800  0.19485600  0.37372600  1
  H  H15  1  0.37703200  0.19485600  0.87372600  1
  H  H16  1  0.87703200  0.19485600  0.62627400  1
  H  H17  1  0.62296800  0.19485600  0.12627400  1
  H  H18  1  0.87703200  0.30514400  0.12627400  1
  H  H19  1  0.62296800  0.30514400  0.62627400  1
  H  H20  1  0.62296800  0.80514400  0.87372600  1
  H  H21  1  0.87703200  0.80514400  0.37372600  1
  H  H22  1  0.62296800  0.69485600  0.37372600  1
  H  H23  1  0.87703200  0.69485600  0.87372600  1
  H  H24  1  0.37703200  0.69485600  0.62627400  1
  H  H25  1  0.12296800  0.69485600  0.12627400  1
  H  H26  1  0.37703200  0.80514400  0.12627400  1
  H  H27  1  0.12296800  0.80514400  0.62627400  1
  O  O28  1  0.14698650  0.40907850  0.14590400  1
  O  O29  1  0.35301350  0.40907850  0.64590400  1
  O  O30  1  0.14698650  0.09092150  0.64590400  1
  O  O31  1  0.35301350  0.09092150  0.14590400  1
  O  O32  1  0.85301350  0.09092150  0.35409600  1
  O  O33  1  0.64698650  0.09092150  0.85409600  1
  O  O34  1  0.85301350  0.40907850  0.85409600  1
  O  O35  1  0.64698650  0.40907850  0.35409600  1
  O  O36  1  0.64698650  0.90907850  0.14590400  1
  O  O37  1  0.85301350  0.90907850  0.64590400  1
  O  O38  1  0.64698650  0.59092150  0.64590400  1
  O  O39  1  0.85301350  0.59092150  0.14590400  1
  O  O40  1  0.35301350  0.59092150  0.35409600  1
  O  O41  1  0.14698650  0.59092150  0.85409600  1
  O  O42  1  0.35301350  0.90907850  0.85409600  1
  O  O43  1  0.14698650  0.90907850  0.35409600  1
