# generated using pymatgen
data_Lu(HO)3
_symmetry_space_group_name_H-M   'P 1'
_cell_length_a   7.08623300
_cell_length_b   7.09951945
_cell_length_c   7.11292249
_cell_angle_alpha   108.74013613
_cell_angle_beta   111.84207737
_cell_angle_gamma   107.40506672
_symmetry_Int_Tables_number   1
_chemical_formula_structural   Lu(HO)3
_chemical_formula_sum   'Lu4 H12 O12'
_cell_volume   276.57702699
_cell_formula_units_Z   4
loop_
 _symmetry_equiv_pos_site_id
 _symmetry_equiv_pos_as_xyz
  1  'x, y, z'
loop_
 _atom_site_type_symbol
 _atom_site_label
 _atom_site_symmetry_multiplicity
 _atom_site_fract_x
 _atom_site_fract_y
 _atom_site_fract_z
 _atom_site_occupancy
  Lu  Lu0  1  0.49972100  0.01119800  0.03809900  1
  Lu  Lu1  1  0.98720600  0.99763900  0.49258800  1
  Lu  Lu2  1  0.50408400  0.49240200  0.48204500  1
  Lu  Lu3  1  0.02157900  0.52793700  0.01789400  1
  H  H4  1  0.70458800  0.53930500  0.15838500  1
  H  H5  1  0.55239000  0.83559300  0.38746600  1
  H  H6  1  0.16962900  0.62355700  0.46020400  1
  H  H7  1  0.31986600  0.04404100  0.36937400  1
  H  H8  1  0.82641600  0.35533300  0.53644000  1
  H  H9  1  0.03677300  0.71138800  0.67930600  1
  H  H10  1  0.68146500  0.03333800  0.71956100  1
  H  H11  1  0.53558100  0.16573200  0.70403800  1
  H  H12  1  0.19573200  0.41059200  0.79356700  1
  H  H13  1  0.34438800  0.31385700  0.02625500  1
  H  H14  1  0.38890300  0.60372000  0.79374700  1
  H  H15  1  0.67675500  0.67823700  0.99532400  1
  O  O16  1  0.48490300  0.32993600  0.15520800  1
  O  O17  1  0.30499200  0.82256100  0.13718100  1
  O  O18  1  0.80841900  0.65847800  0.14293000  1
  O  O19  1  0.18890700  0.52127100  0.34208700  1
  O  O20  1  0.67495300  0.82887600  0.51067800  1
  O  O21  1  0.80785900  0.13719300  0.33758700  1
  O  O22  1  0.15618200  0.83006800  0.67830700  1
  O  O23  1  0.32343600  0.16676600  0.49389400  1
  O  O24  1  0.83135200  0.48667900  0.65967900  1
  O  O25  1  0.13181500  0.30007600  0.83610200  1
  O  O26  1  0.66180400  0.15432300  0.82320800  1
  O  O27  1  0.54630200  0.69890200  0.83984400  1
