# generated using pymatgen
data_LiCr(PO4)2
_symmetry_space_group_name_H-M   'P 1'
_cell_length_a   4.70947800
_cell_length_b   9.02358400
_cell_length_c   14.01955754
_cell_angle_alpha   90.00000000
_cell_angle_beta   94.79017213
_cell_angle_gamma   90.00000000
_symmetry_Int_Tables_number   1
_chemical_formula_structural   LiCr(PO4)2
_chemical_formula_sum   'Li4 Cr4 P8 O32'
_cell_volume   593.69936636
_cell_formula_units_Z   4
loop_
 _symmetry_equiv_pos_site_id
 _symmetry_equiv_pos_as_xyz
  1  'x, y, z'
loop_
 _atom_site_type_symbol
 _atom_site_label
 _atom_site_symmetry_multiplicity
 _atom_site_fract_x
 _atom_site_fract_y
 _atom_site_fract_z
 _atom_site_occupancy
  Li  Li0  1  0.54268400  0.84389800  0.62755800  1
  Li  Li1  1  0.45731600  0.34389800  0.87244200  1
  Li  Li2  1  0.54268400  0.65610200  0.12755800  1
  Li  Li3  1  0.45731600  0.15610200  0.37244200  1
  Cr  Cr4  1  0.35864200  0.06714900  0.15087500  1
  Cr  Cr5  1  0.35864200  0.43285100  0.65087500  1
  Cr  Cr6  1  0.64135800  0.93285100  0.84912500  1
  Cr  Cr7  1  0.64135800  0.56714900  0.34912500  1
  P  P8  1  0.84479700  0.59887800  0.76321200  1
  P  P9  1  0.15520300  0.09887800  0.73678800  1
  P  P10  1  0.85677600  0.22436600  0.56851800  1
  P  P11  1  0.15520300  0.40112200  0.23678800  1
  P  P12  1  0.14322400  0.77563400  0.43148200  1
  P  P13  1  0.84479700  0.90112200  0.26321200  1
  P  P14  1  0.14322400  0.72436600  0.93148200  1
  P  P15  1  0.85677600  0.27563400  0.06851800  1
  O  O16  1  0.76487200  0.73954800  0.24256200  1
  O  O17  1  0.99142500  0.08475600  0.63196700  1
  O  O18  1  0.11387800  0.17048800  0.05876600  1
  O  O19  1  0.47772400  0.93870100  0.08738500  1
  O  O20  1  0.00857500  0.91524400  0.36803300  1
  O  O21  1  0.64676500  0.29010800  0.63549900  1
  O  O22  1  0.88612200  0.82951200  0.94123400  1
  O  O23  1  0.03803900  0.95874500  0.18946600  1
  O  O24  1  0.96196100  0.45874500  0.31053400  1
  O  O25  1  0.52227600  0.06129900  0.91261500  1
  O  O26  1  0.64676500  0.20989200  0.13549900  1
  O  O27  1  0.99142500  0.41524400  0.13196700  1
  O  O28  1  0.11387800  0.32951200  0.55876600  1
  O  O29  1  0.88612200  0.67048800  0.44123400  1
  O  O30  1  0.35323500  0.79010800  0.86450100  1
  O  O31  1  0.58280800  0.49507300  0.77043500  1
  O  O32  1  0.41719200  0.50492700  0.22956500  1
  O  O33  1  0.41719200  0.99507300  0.72956500  1
  O  O34  1  0.76487200  0.76045200  0.74256200  1
  O  O35  1  0.00857500  0.58475600  0.86803300  1
  O  O36  1  0.58280800  0.00492700  0.27043500  1
  O  O37  1  0.35323500  0.70989200  0.36450100  1
  O  O38  1  0.52227600  0.43870100  0.41261500  1
  O  O39  1  0.73791500  0.16343200  0.47529300  1
  O  O40  1  0.47772400  0.56129900  0.58738500  1
  O  O41  1  0.96196100  0.04125500  0.81053400  1
  O  O42  1  0.73791500  0.33656800  0.97529300  1
  O  O43  1  0.23512800  0.26045200  0.75743800  1
  O  O44  1  0.26208500  0.66343200  0.02470700  1
  O  O45  1  0.23512800  0.23954800  0.25743800  1
  O  O46  1  0.03803900  0.54125500  0.68946600  1
  O  O47  1  0.26208500  0.83656800  0.52470700  1
