# generated using pymatgen
data_TeHO3
_symmetry_space_group_name_H-M   'P 1'
_cell_length_a   4.97552300
_cell_length_b   8.42996000
_cell_length_c   11.71309200
_cell_angle_alpha   90.00000000
_cell_angle_beta   90.00000000
_cell_angle_gamma   90.00000000
_symmetry_Int_Tables_number   1
_chemical_formula_structural   TeHO3
_chemical_formula_sum   'Te8 H8 O24'
_cell_volume   491.28760424
_cell_formula_units_Z   8
loop_
 _symmetry_equiv_pos_site_id
 _symmetry_equiv_pos_as_xyz
  1  'x, y, z'
loop_
 _atom_site_type_symbol
 _atom_site_label
 _atom_site_symmetry_multiplicity
 _atom_site_fract_x
 _atom_site_fract_y
 _atom_site_fract_z
 _atom_site_occupancy
  Te  Te0  1  0.98120800  0.95019500  0.88888700  1
  Te  Te1  1  0.48120800  0.04980500  0.11111300  1
  Te  Te2  1  0.48120800  0.45019500  0.61111300  1
  Te  Te3  1  0.98120800  0.54980500  0.38888700  1
  Te  Te4  1  0.84767200  0.82775400  0.60200600  1
  Te  Te5  1  0.34767200  0.17224600  0.39799400  1
  Te  Te6  1  0.34767200  0.32775400  0.89799400  1
  Te  Te7  1  0.84767200  0.67224600  0.10200600  1
  H  H8  1  0.48064500  0.01212900  0.62621100  1
  H  H9  1  0.98064500  0.98787100  0.37378900  1
  H  H10  1  0.98064500  0.51212900  0.87378900  1
  H  H11  1  0.48064500  0.48787100  0.12621100  1
  H  H12  1  0.40541000  0.82019100  0.81989400  1
  H  H13  1  0.90541000  0.17980900  0.18010600  1
  H  H14  1  0.90541000  0.32019100  0.68010600  1
  H  H15  1  0.40541000  0.67980900  0.31989400  1
  O  O16  1  0.74776100  0.95194000  0.75978900  1
  O  O17  1  0.24776100  0.04806000  0.24021100  1
  O  O18  1  0.24776100  0.45194000  0.74021100  1
  O  O19  1  0.74776100  0.54806000  0.25978900  1
  O  O20  1  0.52404200  0.94590900  0.55943500  1
  O  O21  1  0.02404200  0.05409100  0.44056500  1
  O  O22  1  0.02404200  0.44590900  0.94056500  1
  O  O23  1  0.52404200  0.55409100  0.05943500  1
  O  O24  1  0.66230600  0.85501000  0.16831600  1
  O  O25  1  0.16230600  0.14499000  0.83168400  1
  O  O26  1  0.16230600  0.35501000  0.33168400  1
  O  O27  1  0.66230600  0.64499000  0.66831600  1
  O  O28  1  0.23214800  0.91286700  0.02124600  1
  O  O29  1  0.73214800  0.08713300  0.97875400  1
  O  O30  1  0.73214800  0.41286700  0.47875400  1
  O  O31  1  0.23214800  0.58713300  0.52124600  1
  O  O32  1  0.79073900  0.76352500  0.94259200  1
  O  O33  1  0.29073900  0.23647500  0.05740800  1
  O  O34  1  0.29073900  0.26352500  0.55740800  1
  O  O35  1  0.79073900  0.73647500  0.44259200  1
  O  O36  1  0.21686300  0.82071400  0.79501700  1
  O  O37  1  0.71686300  0.17928600  0.20498300  1
  O  O38  1  0.71686300  0.32071400  0.70498300  1
  O  O39  1  0.21686300  0.67928600  0.29501700  1
