# generated using pymatgen
data_RbLiBi2(MoO4)4
_symmetry_space_group_name_H-M   'P 1'
_cell_length_a   5.37715600
_cell_length_b   13.15621400
_cell_length_c   19.86770705
_cell_angle_alpha   90.00000000
_cell_angle_beta   92.62509391
_cell_angle_gamma   90.00000000
_symmetry_Int_Tables_number   1
_chemical_formula_structural   RbLiBi2(MoO4)4
_chemical_formula_sum   'Rb4 Li4 Bi8 Mo16 O64'
_cell_volume   1404.02657414
_cell_formula_units_Z   4
loop_
 _symmetry_equiv_pos_site_id
 _symmetry_equiv_pos_as_xyz
  1  'x, y, z'
loop_
 _atom_site_type_symbol
 _atom_site_label
 _atom_site_symmetry_multiplicity
 _atom_site_fract_x
 _atom_site_fract_y
 _atom_site_fract_z
 _atom_site_occupancy
  Rb  Rb0  1  0.50000000  0.53092700  0.75000000  1
  Rb  Rb1  1  0.00000000  0.96907300  0.25000000  1
  Rb  Rb2  1  0.00000000  0.03092700  0.75000000  1
  Rb  Rb3  1  0.50000000  0.46907300  0.25000000  1
  Li  Li4  1  0.50000000  0.81444000  0.75000000  1
  Li  Li5  1  0.00000000  0.68556000  0.25000000  1
  Li  Li6  1  0.00000000  0.31444000  0.75000000  1
  Li  Li7  1  0.50000000  0.18556000  0.25000000  1
  Bi  Bi8  1  0.49621150  0.64834250  0.96407000  1
  Bi  Bi9  1  0.50378850  0.64834250  0.53593000  1
  Bi  Bi10  1  0.00378850  0.85165750  0.03593000  1
  Bi  Bi11  1  0.99621150  0.85165750  0.46407000  1
  Bi  Bi12  1  0.99621150  0.14834250  0.96407000  1
  Bi  Bi13  1  0.00378850  0.14834250  0.53593000  1
  Bi  Bi14  1  0.50378850  0.35165750  0.03593000  1
  Bi  Bi15  1  0.49621150  0.35165750  0.46407000  1
  Mo  Mo16  1  0.50849050  0.75747150  0.14942400  1
  Mo  Mo17  1  0.48156500  0.93757700  0.90737900  1
  Mo  Mo18  1  0.99150950  0.74252850  0.85057600  1
  Mo  Mo19  1  0.98156500  0.56242300  0.40737900  1
  Mo  Mo20  1  0.51843500  0.93757700  0.59262100  1
  Mo  Mo21  1  0.01843500  0.56242300  0.09262100  1
  Mo  Mo22  1  0.49150950  0.75747150  0.35057600  1
  Mo  Mo23  1  0.00849050  0.74252850  0.64942400  1
  Mo  Mo24  1  0.00849050  0.25747150  0.14942400  1
  Mo  Mo25  1  0.98156500  0.43757700  0.90737900  1
  Mo  Mo26  1  0.49150950  0.24252850  0.85057600  1
  Mo  Mo27  1  0.48156500  0.06242300  0.40737900  1
  Mo  Mo28  1  0.01843500  0.43757700  0.59262100  1
  Mo  Mo29  1  0.51843500  0.06242300  0.09262100  1
  Mo  Mo30  1  0.99150950  0.25747150  0.35057600  1
  Mo  Mo31  1  0.50849050  0.24252850  0.64942400  1
  O  O32  1  0.84412400  0.66989300  0.45552000  1
  O  O33  1  0.77095950  0.70684650  0.78635600  1
  O  O34  1  0.22904050  0.70684650  0.71364400  1
  O  O35  1  0.24691200  0.65138200  0.86548400  1
  O  O36  1  0.75204400  0.51867400  0.03924200  1
  O  O37  1  0.82623850  0.75841750  0.93077300  1
  O  O38  1  0.75308800  0.65138200  0.63451600  1
  O  O39  1  0.65587600  0.83010700  0.54448000  1
  O  O40  1  0.87141350  0.85748750  0.67351300  1
  O  O41  1  0.73142250  0.95807250  0.10368700  1
  O  O42  1  0.25308800  0.84861800  0.13451600  1
  O  O43  1  0.74795600  0.98132600  0.96075800  1
  O  O44  1  0.25204400  0.98132600  0.53924200  1
  O  O45  1  0.15587600  0.66989300  0.04448000  1
  O  O46  1  0.32623850  0.74158250  0.43077300  1
  O  O47  1  0.24795600  0.51867400  0.46075800  1
  O  O48  1  0.17376150  0.75841750  0.56922700  1
  O  O49  1  0.39445000  0.90805200  0.67081700  1
  O  O50  1  0.10555000  0.59194800  0.32918300  1
  O  O51  1  0.60555000  0.90805200  0.82918300  1
  O  O52  1  0.89445000  0.59194800  0.17081700  1
  O  O53  1  0.37141350  0.64251250  0.17351300  1
  O  O54  1  0.23142250  0.54192750  0.60368700  1
  O  O55  1  0.26857750  0.95807250  0.39631300  1
  O  O56  1  0.34412400  0.83010700  0.95552000  1
  O  O57  1  0.67376150  0.74158250  0.06922700  1
  O  O58  1  0.74691200  0.84861800  0.36548400  1
  O  O59  1  0.62858650  0.64251250  0.32648700  1
  O  O60  1  0.27095950  0.79315350  0.28635600  1
  O  O61  1  0.12858650  0.85748750  0.82648700  1
  O  O62  1  0.72904050  0.79315350  0.21364400  1
  O  O63  1  0.76857750  0.54192750  0.89631300  1
  O  O64  1  0.34412400  0.16989300  0.45552000  1
  O  O65  1  0.27095950  0.20684650  0.78635600  1
  O  O66  1  0.72904050  0.20684650  0.71364400  1
  O  O67  1  0.74691200  0.15138200  0.86548400  1
  O  O68  1  0.25204400  0.01867400  0.03924200  1
  O  O69  1  0.32623850  0.25841750  0.93077300  1
  O  O70  1  0.25308800  0.15138200  0.63451600  1
  O  O71  1  0.15587600  0.33010700  0.54448000  1
  O  O72  1  0.37141350  0.35748750  0.67351300  1
  O  O73  1  0.23142250  0.45807250  0.10368700  1
  O  O74  1  0.75308800  0.34861800  0.13451600  1
  O  O75  1  0.24795600  0.48132600  0.96075800  1
  O  O76  1  0.75204400  0.48132600  0.53924200  1
  O  O77  1  0.65587600  0.16989300  0.04448000  1
  O  O78  1  0.82623850  0.24158250  0.43077300  1
  O  O79  1  0.74795600  0.01867400  0.46075800  1
  O  O80  1  0.67376150  0.25841750  0.56922700  1
  O  O81  1  0.89445000  0.40805200  0.67081700  1
  O  O82  1  0.60555000  0.09194800  0.32918300  1
  O  O83  1  0.10555000  0.40805200  0.82918300  1
  O  O84  1  0.39445000  0.09194800  0.17081700  1
  O  O85  1  0.87141350  0.14251250  0.17351300  1
  O  O86  1  0.73142250  0.04192750  0.60368700  1
  O  O87  1  0.76857750  0.45807250  0.39631300  1
  O  O88  1  0.84412400  0.33010700  0.95552000  1
  O  O89  1  0.17376150  0.24158250  0.06922700  1
  O  O90  1  0.24691200  0.34861800  0.36548400  1
  O  O91  1  0.12858650  0.14251250  0.32648700  1
  O  O92  1  0.77095950  0.29315350  0.28635600  1
  O  O93  1  0.62858650  0.35748750  0.82648700  1
  O  O94  1  0.22904050  0.29315350  0.21364400  1
  O  O95  1  0.26857750  0.04192750  0.89631300  1
