# generated using pymatgen
data_Y(HO)3
_symmetry_space_group_name_H-M   'P 1'
_cell_length_a   6.38166985
_cell_length_b   6.38166985
_cell_length_c   3.51804300
_cell_angle_alpha   90.00000000
_cell_angle_beta   90.00000000
_cell_angle_gamma   120.00000000
_symmetry_Int_Tables_number   1
_chemical_formula_structural   Y(HO)3
_chemical_formula_sum   'Y2 H6 O6'
_cell_volume   124.07961600
_cell_formula_units_Z   2
loop_
 _symmetry_equiv_pos_site_id
 _symmetry_equiv_pos_as_xyz
  1  'x, y, z'
loop_
 _atom_site_type_symbol
 _atom_site_label
 _atom_site_symmetry_multiplicity
 _atom_site_fract_x
 _atom_site_fract_y
 _atom_site_fract_z
 _atom_site_occupancy
  Y  Y0  1  0.33333333  0.66666667  0.81269200  1
  Y  Y1  1  0.66666667  0.33333333  0.31269200  1
  H  H2  1  0.86115100  0.71922700  0.85075700  1
  H  H3  1  0.85807600  0.13884900  0.85075700  1
  H  H4  1  0.28077300  0.14192400  0.85075700  1
  H  H5  1  0.13884900  0.28077300  0.35075700  1
  H  H6  1  0.14192400  0.86115100  0.35075700  1
  H  H7  1  0.71922700  0.85807600  0.35075700  1
  O  O8  1  0.69060000  0.60424100  0.80813600  1
  O  O9  1  0.91364100  0.30940000  0.80813600  1
  O  O10  1  0.39575900  0.08635900  0.80813600  1
  O  O11  1  0.30940000  0.39575900  0.30813600  1
  O  O12  1  0.08635900  0.69060000  0.30813600  1
  O  O13  1  0.60424100  0.91364100  0.30813600  1
