# generated using pymatgen
data_Al2NiCl8
_symmetry_space_group_name_H-M   'P 1'
_cell_length_a   17.29206600
_cell_length_b   7.89680600
_cell_length_c   11.51801509
_cell_angle_alpha   90.00000000
_cell_angle_beta   129.75989297
_cell_angle_gamma   90.00000000
_symmetry_Int_Tables_number   1
_chemical_formula_structural   Al2NiCl8
_chemical_formula_sum   'Al8 Ni4 Cl32'
_cell_volume   1209.06771320
_cell_formula_units_Z   4
loop_
 _symmetry_equiv_pos_site_id
 _symmetry_equiv_pos_as_xyz
  1  'x, y, z'
loop_
 _atom_site_type_symbol
 _atom_site_label
 _atom_site_symmetry_multiplicity
 _atom_site_fract_x
 _atom_site_fract_y
 _atom_site_fract_z
 _atom_site_occupancy
  Al  Al0  1  0.91507650  0.75518250  0.96827700  1
  Al  Al1  1  0.41507650  0.74481750  0.46827700  1
  Al  Al2  1  0.58492350  0.25518250  0.53172300  1
  Al  Al3  1  0.08492350  0.24481750  0.03172300  1
  Al  Al4  1  0.41507650  0.25518250  0.96827700  1
  Al  Al5  1  0.91507650  0.24481750  0.46827700  1
  Al  Al6  1  0.08492350  0.75518250  0.53172300  1
  Al  Al7  1  0.58492350  0.74481750  0.03172300  1
  Ni  Ni8  1  0.50000000  0.49656400  0.25000000  1
  Ni  Ni9  1  0.50000000  0.50343600  0.75000000  1
  Ni  Ni10  1  0.00000000  0.99656400  0.25000000  1
  Ni  Ni11  1  0.00000000  0.00343600  0.75000000  1
  Cl  Cl12  1  0.65707800  0.02736400  0.55410100  1
  Cl  Cl13  1  0.58245950  0.72562150  0.21881800  1
  Cl  Cl14  1  0.56699350  0.28282650  0.18709600  1
  Cl  Cl15  1  0.35042350  0.51817050  0.48785700  1
  Cl  Cl16  1  0.43300650  0.71717350  0.81290400  1
  Cl  Cl17  1  0.14957650  0.01817050  0.01214300  1
  Cl  Cl18  1  0.64957650  0.48182950  0.51214300  1
  Cl  Cl19  1  0.56699350  0.71717350  0.68709600  1
  Cl  Cl20  1  0.85042350  0.98182950  0.98785700  1
  Cl  Cl21  1  0.84292200  0.52736400  0.94589900  1
  Cl  Cl22  1  0.58245950  0.27437850  0.71881800  1
  Cl  Cl23  1  0.41754050  0.72562150  0.28118200  1
  Cl  Cl24  1  0.15707800  0.47263600  0.05410100  1
  Cl  Cl25  1  0.43300650  0.28282650  0.31290400  1
  Cl  Cl26  1  0.34292200  0.97263600  0.44589900  1
  Cl  Cl27  1  0.41754050  0.27437850  0.78118200  1
  Cl  Cl28  1  0.15707800  0.52736400  0.55410100  1
  Cl  Cl29  1  0.08245950  0.22562150  0.21881800  1
  Cl  Cl30  1  0.06699350  0.78282650  0.18709600  1
  Cl  Cl31  1  0.85042350  0.01817050  0.48785700  1
  Cl  Cl32  1  0.93300650  0.21717350  0.81290400  1
  Cl  Cl33  1  0.64957650  0.51817050  0.01214300  1
  Cl  Cl34  1  0.14957650  0.98182950  0.51214300  1
  Cl  Cl35  1  0.06699350  0.21717350  0.68709600  1
  Cl  Cl36  1  0.35042350  0.48182950  0.98785700  1
  Cl  Cl37  1  0.34292200  0.02736400  0.94589900  1
  Cl  Cl38  1  0.08245950  0.77437850  0.71881800  1
  Cl  Cl39  1  0.91754050  0.22562150  0.28118200  1
  Cl  Cl40  1  0.65707800  0.97263600  0.05410100  1
  Cl  Cl41  1  0.93300650  0.78282650  0.31290400  1
  Cl  Cl42  1  0.84292200  0.47263600  0.44589900  1
  Cl  Cl43  1  0.91754050  0.77437850  0.78118200  1
