# generated using pymatgen
data_Cs2CrO4
_symmetry_space_group_name_H-M   'P 1'
_cell_length_a   6.42972519
_cell_length_b   8.58260503
_cell_length_c   11.45241236
_cell_angle_alpha   90.00000000
_cell_angle_beta   90.00000000
_cell_angle_gamma   90.00000000
_symmetry_Int_Tables_number   1
_chemical_formula_structural   Cs2CrO4
_chemical_formula_sum   'Cs8 Cr4 O16'
_cell_volume   631.98753873
_cell_formula_units_Z   4
loop_
 _symmetry_equiv_pos_site_id
 _symmetry_equiv_pos_as_xyz
  1  'x, y, z'
loop_
 _atom_site_type_symbol
 _atom_site_label
 _atom_site_symmetry_multiplicity
 _atom_site_fract_x
 _atom_site_fract_y
 _atom_site_fract_z
 _atom_site_occupancy
  Cs  Cs0  1  0.25000000  0.51157200  0.69561550  1
  Cs  Cs1  1  0.75000000  0.98842800  0.19561550  1
  Cs  Cs2  1  0.75000000  0.48842800  0.30438450  1
  Cs  Cs3  1  0.25000000  0.01157200  0.80438450  1
  Cs  Cs4  1  0.75000000  0.67070600  0.91343450  1
  Cs  Cs5  1  0.25000000  0.32929400  0.08656550  1
  Cs  Cs6  1  0.75000000  0.17070600  0.58656550  1
  Cs  Cs7  1  0.25000000  0.82929400  0.41343450  1
  Cr  Cr8  1  0.75000000  0.73363500  0.58005150  1
  Cr  Cr9  1  0.25000000  0.26636500  0.41994850  1
  Cr  Cr10  1  0.75000000  0.23363500  0.91994850  1
  Cr  Cr11  1  0.25000000  0.76636500  0.08005150  1
  O  O12  1  0.75000000  0.53973000  0.58460950  1
  O  O13  1  0.25000000  0.46027000  0.41539050  1
  O  O14  1  0.25000000  0.96027000  0.08460950  1
  O  O15  1  0.75000000  0.03973000  0.91539050  1
  O  O16  1  0.75000000  0.79360500  0.44084750  1
  O  O17  1  0.25000000  0.70639500  0.94084750  1
  O  O18  1  0.25000000  0.20639500  0.55915250  1
  O  O19  1  0.75000000  0.29360500  0.05915250  1
  O  O20  1  0.46307500  0.69836600  0.14628450  1
  O  O21  1  0.96307500  0.30163400  0.85371550  1
  O  O22  1  0.53692500  0.30163400  0.85371550  1
  O  O23  1  0.46307500  0.19836600  0.35371550  1
  O  O24  1  0.03692500  0.19836600  0.35371550  1
  O  O25  1  0.03692500  0.69836600  0.14628450  1
  O  O26  1  0.53692500  0.80163400  0.64628450  1
  O  O27  1  0.96307500  0.80163400  0.64628450  1
