# generated using pymatgen
data_NaZnAsO4
_symmetry_space_group_name_H-M   'P 1'
_cell_length_a   9.15454160
_cell_length_b   9.15454160
_cell_length_c   8.44359400
_cell_angle_alpha   90.00000000
_cell_angle_beta   90.00000000
_cell_angle_gamma   120.00000000
_symmetry_Int_Tables_number   1
_chemical_formula_structural   NaZnAsO4
_chemical_formula_sum   'Na6 Zn6 As6 O24'
_cell_volume   612.81752858
_cell_formula_units_Z   6
loop_
 _symmetry_equiv_pos_site_id
 _symmetry_equiv_pos_as_xyz
  1  'x, y, z'
loop_
 _atom_site_type_symbol
 _atom_site_label
 _atom_site_symmetry_multiplicity
 _atom_site_fract_x
 _atom_site_fract_y
 _atom_site_fract_z
 _atom_site_occupancy
  Na  Na0  1  0.66666667  0.33333333  0.19098300  1
  Na  Na1  1  0.33333333  0.66666667  0.69098300  1
  Na  Na2  1  0.00000000  0.00000000  0.68566800  1
  Na  Na3  1  0.00000000  0.00000000  0.18566800  1
  Na  Na4  1  0.66666667  0.33333333  0.77150000  1
  Na  Na5  1  0.33333333  0.66666667  0.27150000  1
  Zn  Zn6  1  0.98517400  0.32234700  0.89386800  1
  Zn  Zn7  1  0.66282700  0.98517400  0.39386800  1
  Zn  Zn8  1  0.32234700  0.33717300  0.39386800  1
  Zn  Zn9  1  0.01482600  0.67765300  0.39386800  1
  Zn  Zn10  1  0.33717300  0.01482600  0.89386800  1
  Zn  Zn11  1  0.67765300  0.66282700  0.89386800  1
  As  As12  1  0.65602800  0.97260000  0.00308400  1
  As  As13  1  0.68342800  0.65602800  0.50308400  1
  As  As14  1  0.97260000  0.31657200  0.50308400  1
  As  As15  1  0.02740000  0.68342800  0.00308400  1
  As  As16  1  0.31657200  0.34397200  0.00308400  1
  As  As17  1  0.34397200  0.02740000  0.50308400  1
  O  O18  1  0.87132800  0.26758200  0.68312100  1
  O  O19  1  0.46818200  0.56770700  0.47886300  1
  O  O20  1  0.09952500  0.53181800  0.47886300  1
  O  O21  1  0.90047500  0.46818200  0.97886300  1
  O  O22  1  0.53181800  0.43229300  0.97886300  1
  O  O23  1  0.43229300  0.90047500  0.47886300  1
  O  O24  1  0.87270000  0.09796500  0.99601700  1
  O  O25  1  0.77473500  0.87270000  0.49601700  1
  O  O26  1  0.09796500  0.22526500  0.49601700  1
  O  O27  1  0.90203500  0.77473500  0.99601700  1
  O  O28  1  0.22526500  0.12730000  0.99601700  1
  O  O29  1  0.12730000  0.90203500  0.49601700  1
  O  O30  1  0.41369200  0.18474300  0.36153100  1
  O  O31  1  0.22894900  0.41369200  0.86153100  1
  O  O32  1  0.60374600  0.87132800  0.18312100  1
  O  O33  1  0.81525700  0.22894900  0.36153100  1
  O  O34  1  0.77105100  0.58630800  0.36153100  1
  O  O35  1  0.58630800  0.81525700  0.86153100  1
  O  O36  1  0.39625400  0.12867200  0.68312100  1
  O  O37  1  0.26758200  0.39625400  0.18312100  1
  O  O38  1  0.12867200  0.73241800  0.18312100  1
  O  O39  1  0.18474300  0.77105100  0.86153100  1
  O  O40  1  0.73241800  0.60374600  0.68312100  1
  O  O41  1  0.56770700  0.09952500  0.97886300  1
