# generated using pymatgen
data_Ba2La2MgTi3O12
_symmetry_space_group_name_H-M   'P 1'
_cell_length_a   5.66086000
_cell_length_b   5.66540734
_cell_length_c   27.58879237
_cell_angle_alpha   90.10834197
_cell_angle_beta   89.94881574
_cell_angle_gamma   119.86431874
_symmetry_Int_Tables_number   1
_chemical_formula_structural   Ba2La2MgTi3O12
_chemical_formula_sum   'Ba6 La6 Mg3 Ti9 O36'
_cell_volume   767.30539573
_cell_formula_units_Z   3
loop_
 _symmetry_equiv_pos_site_id
 _symmetry_equiv_pos_as_xyz
  1  'x, y, z'
loop_
 _atom_site_type_symbol
 _atom_site_label
 _atom_site_symmetry_multiplicity
 _atom_site_fract_x
 _atom_site_fract_y
 _atom_site_fract_z
 _atom_site_occupancy
  Ba  Ba0  1  0.83343800  0.16618100  0.28897600  1
  Ba  Ba1  1  0.16656200  0.83381900  0.71102400  1
  Ba  Ba2  1  0.50005800  0.50055000  0.62694800  1
  Ba  Ba3  1  0.83380700  0.16674700  0.54238300  1
  Ba  Ba4  1  0.16619300  0.83325300  0.45761700  1
  Ba  Ba5  1  0.49994200  0.49945000  0.37305200  1
  La  La6  1  0.16995000  0.83564800  0.20572900  1
  La  La7  1  0.49519600  0.50182100  0.12392800  1
  La  La8  1  0.83292900  0.16697200  0.04115200  1
  La  La9  1  0.50480400  0.49817900  0.87607200  1
  La  La10  1  0.16707100  0.83302800  0.95884800  1
  La  La11  1  0.83005000  0.16435200  0.79427100  1
  Mg  Mg12  1  0.83546600  0.16545200  0.16362600  1
  Mg  Mg13  1  0.50000000  0.50000000  0.00000000  1
  Mg  Mg14  1  0.16453400  0.83454800  0.83637400  1
  Ti  Ti15  1  0.16403200  0.83315600  0.08193300  1
  Ti  Ti16  1  0.49264800  0.49883100  0.24373900  1
  Ti  Ti17  1  0.50735200  0.50116900  0.75626100  1
  Ti  Ti18  1  0.83596800  0.16684400  0.91806700  1
  Ti  Ti19  1  0.16873400  0.83129800  0.32983900  1
  Ti  Ti20  1  0.83126600  0.16870200  0.67016100  1
  Ti  Ti21  1  0.16820500  0.83445800  0.58488300  1
  Ti  Ti22  1  0.83179500  0.16554200  0.41511700  1
  Ti  Ti23  1  0.50000000  0.50000000  0.50000000  1
  O  O24  1  0.32920500  0.15682300  0.28621200  1
  O  O25  1  0.16584600  0.38796700  0.20851500  1
  O  O26  1  0.34190200  0.67600900  0.28987900  1
  O  O27  1  0.80233400  0.71768000  0.05270800  1
  O  O28  1  0.33017100  0.15854800  0.04185300  1
  O  O29  1  0.09115300  0.03627400  0.13264400  1
  O  O30  1  0.59649600  0.29913100  0.19937900  1
  O  O31  1  0.85307200  0.66925900  0.28364600  1
  O  O32  1  0.47146600  0.04711800  0.88716100  1
  O  O33  1  0.00049000  0.49204100  0.87760300  1
  O  O34  1  0.75653800  0.37192400  0.96784900  1
  O  O35  1  0.24346200  0.62807600  0.03215100  1
  O  O36  1  0.66998700  0.81473800  0.20348600  1
  O  O37  1  0.99951000  0.50795900  0.12239700  1
  O  O38  1  0.52853400  0.95288200  0.11283900  1
  O  O39  1  0.14692800  0.33074100  0.71635400  1
  O  O40  1  0.67079500  0.84317700  0.71378800  1
  O  O41  1  0.40350400  0.70086900  0.80062100  1
  O  O42  1  0.90884700  0.96372600  0.86735600  1
  O  O43  1  0.66982900  0.84145200  0.95814700  1
  O  O44  1  0.19766600  0.28232000  0.94729200  1
  O  O45  1  0.83517200  0.66435300  0.54209900  1
  O  O46  1  0.33309700  0.16668700  0.54240900  1
  O  O47  1  0.99857600  0.99914900  0.62736200  1
  O  O48  1  0.65809800  0.32399100  0.71012100  1
  O  O49  1  0.33001300  0.18526200  0.79651400  1
  O  O50  1  0.83415400  0.61203300  0.79148500  1
  O  O51  1  0.50298200  0.00146700  0.37306000  1
  O  O52  1  0.66241800  0.33169000  0.45739600  1
  O  O53  1  0.33758200  0.66831000  0.54260400  1
  O  O54  1  0.00243600  0.50007700  0.62738200  1
  O  O55  1  0.49701800  0.99853300  0.62694000  1
  O  O56  1  0.00142400  0.00085100  0.37263800  1
  O  O57  1  0.66690300  0.83331300  0.45759100  1
  O  O58  1  0.16482800  0.33564700  0.45790100  1
  O  O59  1  0.99756400  0.49992300  0.37261800  1
