# generated using pymatgen
data_Al(HO)3
_symmetry_space_group_name_H-M   'P 1'
_cell_length_a   5.04669600
_cell_length_b   9.03168600
_cell_length_c   4.78538257
_cell_angle_alpha   90.00000000
_cell_angle_beta   90.58515865
_cell_angle_gamma   90.00000000
_symmetry_Int_Tables_number   1
_chemical_formula_structural   Al(HO)3
_chemical_formula_sum   'Al4 H12 O12'
_cell_volume   218.10719288
_cell_formula_units_Z   4
loop_
 _symmetry_equiv_pos_site_id
 _symmetry_equiv_pos_as_xyz
  1  'x, y, z'
loop_
 _atom_site_type_symbol
 _atom_site_label
 _atom_site_symmetry_multiplicity
 _atom_site_fract_x
 _atom_site_fract_y
 _atom_site_fract_z
 _atom_site_occupancy
  Al  Al0  1  0.98587900  0.66417700  0.00318500  1
  Al  Al1  1  0.48587900  0.83582300  0.00318500  1
  Al  Al2  1  0.48587900  0.16417700  0.00318500  1
  Al  Al3  1  0.98587900  0.33582300  0.00318500  1
  H  H4  1  0.90415450  0.88554650  0.71502900  1
  H  H5  1  0.40415450  0.61445350  0.71502900  1
  H  H6  1  0.41359800  0.00000000  0.58861700  1
  H  H7  1  0.69930950  0.70691450  0.41026600  1
  H  H8  1  0.19930950  0.79308550  0.41026600  1
  H  H9  1  0.80568400  0.00000000  0.25779200  1
  H  H10  1  0.40415450  0.38554650  0.71502900  1
  H  H11  1  0.90415450  0.11445350  0.71502900  1
  H  H12  1  0.91359800  0.50000000  0.58861700  1
  H  H13  1  0.19930950  0.20691450  0.41026600  1
  H  H14  1  0.69930950  0.29308550  0.41026600  1
  H  H15  1  0.30568400  0.50000000  0.25779200  1
  O  O16  1  0.79362900  0.80332200  0.77293000  1
  O  O17  1  0.29362900  0.69667800  0.77293000  1
  O  O18  1  0.35402300  0.00000000  0.78337100  1
  O  O19  1  0.67082250  0.68461350  0.21173700  1
  O  O20  1  0.17082250  0.81538650  0.21173700  1
  O  O21  1  0.61437300  0.00000000  0.22319700  1
  O  O22  1  0.29362900  0.30332200  0.77293000  1
  O  O23  1  0.79362900  0.19667800  0.77293000  1
  O  O24  1  0.85402300  0.50000000  0.78337100  1
  O  O25  1  0.17082250  0.18461350  0.21173700  1
  O  O26  1  0.67082250  0.31538650  0.21173700  1
  O  O27  1  0.11437300  0.50000000  0.22319700  1
