# generated using pymatgen
data_Sr2GaSbO6
_symmetry_space_group_name_H-M   'P 1'
_cell_length_a   5.59458800
_cell_length_b   5.59458800
_cell_length_c   8.10597200
_cell_angle_alpha   90.00000000
_cell_angle_beta   90.00000000
_cell_angle_gamma   90.00000000
_symmetry_Int_Tables_number   1
_chemical_formula_structural   Sr2GaSbO6
_chemical_formula_sum   'Sr4 Ga2 Sb2 O12'
_cell_volume   253.71218071
_cell_formula_units_Z   2
loop_
 _symmetry_equiv_pos_site_id
 _symmetry_equiv_pos_as_xyz
  1  'x, y, z'
loop_
 _atom_site_type_symbol
 _atom_site_label
 _atom_site_symmetry_multiplicity
 _atom_site_fract_x
 _atom_site_fract_y
 _atom_site_fract_z
 _atom_site_occupancy
  Sr  Sr0  1  0.00000000  0.50000000  0.25000000  1
  Sr  Sr1  1  0.50000000  0.00000000  0.25000000  1
  Sr  Sr2  1  0.50000000  0.00000000  0.75000000  1
  Sr  Sr3  1  0.00000000  0.50000000  0.75000000  1
  Ga  Ga4  1  0.00000000  0.00000000  0.00000000  1
  Ga  Ga5  1  0.50000000  0.50000000  0.50000000  1
  Sb  Sb6  1  0.50000000  0.50000000  0.00000000  1
  Sb  Sb7  1  0.00000000  0.00000000  0.50000000  1
  O  O8  1  0.70861300  0.79194800  0.00000000  1
  O  O9  1  0.79194800  0.29138700  0.00000000  1
  O  O10  1  0.20805200  0.70861300  0.00000000  1
  O  O11  1  0.29138700  0.20805200  0.00000000  1
  O  O12  1  0.50000000  0.50000000  0.24790800  1
  O  O13  1  0.00000000  0.00000000  0.25209200  1
  O  O14  1  0.20861300  0.29194800  0.50000000  1
  O  O15  1  0.29194800  0.79138700  0.50000000  1
  O  O16  1  0.70805200  0.20861300  0.50000000  1
  O  O17  1  0.79138700  0.70805200  0.50000000  1
  O  O18  1  0.00000000  0.00000000  0.74790800  1
  O  O19  1  0.50000000  0.50000000  0.75209200  1
