# generated using pymatgen
data_SrLa9MgGa9O29
_symmetry_space_group_name_H-M   'P 1'
_cell_length_a   5.55738522
_cell_length_b   5.58463989
_cell_length_c   23.04752404
_cell_angle_alpha   96.75418574
_cell_angle_beta   89.82704176
_cell_angle_gamma   119.84916455
_symmetry_Int_Tables_number   1
_chemical_formula_structural   SrLa9MgGa9O29
_chemical_formula_sum   'Sr1 La9 Mg1 Ga9 O29'
_cell_volume   614.82291363
_cell_formula_units_Z   1
loop_
 _symmetry_equiv_pos_site_id
 _symmetry_equiv_pos_as_xyz
  1  'x, y, z'
loop_
 _atom_site_type_symbol
 _atom_site_label
 _atom_site_symmetry_multiplicity
 _atom_site_fract_x
 _atom_site_fract_y
 _atom_site_fract_z
 _atom_site_occupancy
  Sr  Sr0  1  0.60986622  0.94022803  0.15408436  1
  La  La1  1  0.20091224  0.65232086  0.04548398  1
  La  La2  1  0.40141119  0.55192633  0.34856184  1
  La  La3  1  0.03631048  0.22476004  0.25600726  1
  La  La4  1  0.19806050  0.15674836  0.55157022  1
  La  La5  1  0.80183042  0.84413424  0.44695308  1
  La  La6  1  0.99666054  0.75714235  0.75079770  1
  La  La7  1  0.60098511  0.44521617  0.64743547  1
  La  La8  1  0.78694551  0.36158526  0.94897617  1
  La  La9  1  0.40002356  0.04642759  0.84782629  1
  Mg  Mg10  1  0.26710250  0.61922622  0.20282498  1
  Ga  Ga11  1  0.93462899  0.28331612  0.09485262  1
  Ga  Ga12  1  0.70209892  0.89961271  0.29857965  1
  Ga  Ga13  1  0.50043085  0.49965579  0.49952231  1
  Ga  Ga14  1  0.09976001  0.19947326  0.40185433  1
  Ga  Ga15  1  0.29967527  0.10072880  0.69968724  1
  Ga  Ga16  1  0.89925809  0.80059349  0.59937736  1
  Ga  Ga17  1  0.09982290  0.70035623  0.89908621  1
  Ga  Ga18  1  0.69874443  0.40071886  0.79915953  1
  Ga  Ga19  1  0.50364647  0.99568709  0.00098433  1
  O  O20  1  0.66480273  0.68154170  0.06621670  1
  O  O21  1  0.65168052  0.21544542  0.04624599  1
  O  O22  1  0.49410429  0.29076242  0.26286348  1
  O  O23  1  0.48724220  0.78917931  0.24173826  1
  O  O24  1  0.15505849  0.21811250  0.03403126  1
  O  O25  1  0.42458980  0.99267657  0.35560931  1
  O  O26  1  0.10345217  0.39341569  0.15906978  1
  O  O27  1  0.28708445  0.90062024  0.46734320  1
  O  O28  1  0.10712443  0.90480661  0.13109046  1
  O  O29  1  0.26686491  0.41217445  0.44123060  1
  O  O30  1  0.97888987  0.82608486  0.24975490  1
  O  O31  1  0.23825147  0.58470714  0.55947070  1
  O  O32  1  0.93180595  0.99113480  0.36217386  1
  O  O33  1  0.08378181  0.49985392  0.66693534  1
  O  O34  1  0.92177859  0.49938845  0.33641339  1
  O  O35  1  0.06294776  0.01361288  0.64152764  1
  O  O36  1  0.76239739  0.41941647  0.44172078  1
  O  O37  1  0.03818192  0.18569588  0.75979872  1
  O  O38  1  0.73721539  0.58419413  0.56003190  1
  O  O39  1  0.88132385  0.09962046  0.86612231  1
  O  O40  1  0.71863387  0.09847510  0.53347023  1
  O  O41  1  0.86128927  0.61318672  0.84226533  1
  O  O42  1  0.56351246  0.01488703  0.64113387  1
  O  O43  1  0.83754351  0.79205588  0.96024819  1
  O  O44  1  0.53751522  0.18457818  0.75935814  1
  O  O45  1  0.51809140  0.70017571  0.73362658  1
  O  O46  1  0.36234757  0.61517588  0.84018825  1
  O  O47  1  0.33812350  0.78709129  0.95696552  1
  O  O48  1  0.32611101  0.30171248  0.93321039  1
