# generated using pymatgen
data_GdP2H9O11
_symmetry_space_group_name_H-M   'P 1'
_cell_length_a   6.72878300
_cell_length_b   11.48396000
_cell_length_c   13.52537245
_cell_angle_alpha   90.00000000
_cell_angle_beta   117.47059956
_cell_angle_gamma   90.00000000
_symmetry_Int_Tables_number   1
_chemical_formula_structural   GdP2H9O11
_chemical_formula_sum   'Gd4 P8 H36 O44'
_cell_volume   927.30432979
_cell_formula_units_Z   4
loop_
 _symmetry_equiv_pos_site_id
 _symmetry_equiv_pos_as_xyz
  1  'x, y, z'
loop_
 _atom_site_type_symbol
 _atom_site_label
 _atom_site_symmetry_multiplicity
 _atom_site_fract_x
 _atom_site_fract_y
 _atom_site_fract_z
 _atom_site_occupancy
  Gd  Gd0  1  0.58849500  0.41685200  0.84068200  1
  Gd  Gd1  1  0.41150500  0.58314800  0.15931800  1
  Gd  Gd2  1  0.58849500  0.08314800  0.34068200  1
  Gd  Gd3  1  0.41150500  0.91685200  0.65931800  1
  P  P4  1  0.89676300  0.45064200  0.14281500  1
  P  P5  1  0.31527900  0.36759400  0.33716000  1
  P  P6  1  0.31527900  0.13240600  0.83716000  1
  P  P7  1  0.68472100  0.86759400  0.16284000  1
  P  P8  1  0.10323700  0.95064200  0.35718500  1
  P  P9  1  0.89676300  0.04935800  0.64281500  1
  P  P10  1  0.10323700  0.54935800  0.85718500  1
  P  P11  1  0.68472100  0.63240600  0.66284000  1
  H  H12  1  0.34421400  0.39959700  0.59169900  1
  H  H13  1  0.95849300  0.34606000  0.66895700  1
  H  H14  1  0.23219600  0.98928700  0.92304800  1
  H  H15  1  0.22194100  0.78839900  0.94190800  1
  H  H16  1  0.65578600  0.60040300  0.40830100  1
  H  H17  1  0.79455300  0.88028400  0.51239000  1
  H  H18  1  0.20544700  0.11971600  0.48761000  1
  H  H19  1  0.04150700  0.84606000  0.83104300  1
  H  H20  1  0.69787300  0.34011000  0.30865800  1
  H  H21  1  0.04150700  0.65394000  0.33104300  1
  H  H22  1  0.90263000  0.26863500  0.31374600  1
  H  H23  1  0.75534400  0.78520500  0.88536100  1
  H  H24  1  0.34421400  0.10040300  0.09169900  1
  H  H25  1  0.30212700  0.84011000  0.19134200  1
  H  H26  1  0.55491800  0.66533000  0.92622300  1
  H  H27  1  0.09737000  0.76863500  0.18625400  1
  H  H28  1  0.75534400  0.71479500  0.38536100  1
  H  H29  1  0.44508200  0.16533000  0.57377700  1
  H  H30  1  0.79455300  0.61971600  0.01239000  1
  H  H31  1  0.69787300  0.15989000  0.80865800  1
  H  H32  1  0.77805900  0.21160100  0.05809200  1
  H  H33  1  0.24465600  0.28520500  0.61463900  1
  H  H34  1  0.22194100  0.71160100  0.44190800  1
  H  H35  1  0.24465600  0.21479500  0.11463900  1
  H  H36  1  0.09737000  0.73136500  0.68625400  1
  H  H37  1  0.55491800  0.83467000  0.42622300  1
  H  H38  1  0.95849300  0.15394000  0.16895700  1
  H  H39  1  0.20544700  0.38028400  0.98761000  1
  H  H40  1  0.76780400  0.48928700  0.57695200  1
  H  H41  1  0.65578600  0.89959700  0.90830100  1
  H  H42  1  0.76780400  0.01071300  0.07695200  1
  H  H43  1  0.90263000  0.23136500  0.81374600  1
  H  H44  1  0.23219600  0.51071300  0.42304800  1
  H  H45  1  0.77805900  0.28839900  0.55809200  1
  H  H46  1  0.30212700  0.65989000  0.69134200  1
  H  H47  1  0.44508200  0.33467000  0.07377700  1
  O  O48  1  0.65264700  0.65030300  0.34893300  1
  O  O49  1  0.93322600  0.64728400  0.76892500  1
  O  O50  1  0.27009100  0.07708400  0.93200300  1
  O  O51  1  0.45525900  0.44579100  0.30365100  1
  O  O52  1  0.72990900  0.92291600  0.06799700  1
  O  O53  1  0.77024000  0.23665300  0.82574400  1
  O  O54  1  0.22976000  0.73665300  0.67425600  1
  O  O55  1  0.39860500  0.25507100  0.87147100  1
  O  O56  1  0.68473300  0.87899200  0.43266700  1
  O  O57  1  0.72990900  0.57708400  0.56799700  1
  O  O58  1  0.65264700  0.84969700  0.84893300  1
  O  O59  1  0.54474100  0.94579100  0.19634900  1
  O  O60  1  0.17163900  0.86286800  0.90161800  1
  O  O61  1  0.31526700  0.37899200  0.06733300  1
  O  O62  1  0.04283900  0.95351400  0.63115700  1
  O  O63  1  0.06677400  0.14728400  0.73107500  1
  O  O64  1  0.76516500  0.12056400  0.53630600  1
  O  O65  1  0.45525900  0.05420900  0.80365100  1
  O  O66  1  0.24897300  0.50413800  0.80657400  1
  O  O67  1  0.17163900  0.63713200  0.40161800  1
  O  O68  1  0.54474100  0.55420900  0.69634900  1
  O  O69  1  0.22976000  0.76334700  0.17425600  1
  O  O70  1  0.95716100  0.04648600  0.36884300  1
  O  O71  1  0.04283900  0.54648600  0.13115700  1
  O  O72  1  0.23483500  0.62056400  0.96369400  1
  O  O73  1  0.24897300  0.99586200  0.30657400  1
  O  O74  1  0.60139500  0.74492900  0.12852900  1
  O  O75  1  0.93322600  0.85271600  0.26892500  1
  O  O76  1  0.95716100  0.45351400  0.86884300  1
  O  O77  1  0.27009100  0.42291600  0.43200300  1
  O  O78  1  0.34735300  0.15030300  0.15106700  1
  O  O79  1  0.75102700  0.00413800  0.69342600  1
  O  O80  1  0.68473300  0.62100800  0.93266700  1
  O  O81  1  0.82836100  0.13713200  0.09838200  1
  O  O82  1  0.75102700  0.49586200  0.19342600  1
  O  O83  1  0.39860500  0.24492900  0.37147100  1
  O  O84  1  0.76516500  0.37943600  0.03630600  1
  O  O85  1  0.60139500  0.75507100  0.62852900  1
  O  O86  1  0.34735300  0.34969700  0.65106700  1
  O  O87  1  0.06677400  0.35271600  0.23107500  1
  O  O88  1  0.23483500  0.87943600  0.46369400  1
  O  O89  1  0.82836100  0.36286800  0.59838200  1
  O  O90  1  0.77024000  0.26334700  0.32574400  1
  O  O91  1  0.31526700  0.12100800  0.56733300  1
