# generated using pymatgen
data_KTb2Cu(MoO4)4
_symmetry_space_group_name_H-M   'P 1'
_cell_length_a   5.31690800
_cell_length_b   12.74792600
_cell_length_c   19.74273705
_cell_angle_alpha   90.00000000
_cell_angle_beta   93.08784334
_cell_angle_gamma   90.00000000
_symmetry_Int_Tables_number   1
_chemical_formula_structural   KTb2Cu(MoO4)4
_chemical_formula_sum   'K4 Tb8 Cu4 Mo16 O64'
_cell_volume   1336.21099134
_cell_formula_units_Z   4
loop_
 _symmetry_equiv_pos_site_id
 _symmetry_equiv_pos_as_xyz
  1  'x, y, z'
loop_
 _atom_site_type_symbol
 _atom_site_label
 _atom_site_symmetry_multiplicity
 _atom_site_fract_x
 _atom_site_fract_y
 _atom_site_fract_z
 _atom_site_occupancy
  K  K0  1  0.50000000  0.52866800  0.25000000  1
  K  K1  1  0.00000000  0.97133200  0.75000000  1
  K  K2  1  0.00000000  0.02866800  0.25000000  1
  K  K3  1  0.50000000  0.47133200  0.75000000  1
  Tb  Tb4  1  0.99864450  0.85276850  0.53227400  1
  Tb  Tb5  1  0.49864450  0.64723150  0.03227400  1
  Tb  Tb6  1  0.50135550  0.64723150  0.46772600  1
  Tb  Tb7  1  0.00135550  0.85276850  0.96772600  1
  Tb  Tb8  1  0.49864450  0.35276850  0.53227400  1
  Tb  Tb9  1  0.99864450  0.14723150  0.03227400  1
  Tb  Tb10  1  0.00135550  0.14723150  0.46772600  1
  Tb  Tb11  1  0.50135550  0.35276850  0.96772600  1
  Cu  Cu12  1  0.00000000  0.69103600  0.75000000  1
  Cu  Cu13  1  0.50000000  0.80896400  0.25000000  1
  Cu  Cu14  1  0.50000000  0.19103600  0.75000000  1
  Cu  Cu15  1  0.00000000  0.30896400  0.25000000  1
  Mo  Mo16  1  0.49187450  0.75893950  0.85296700  1
  Mo  Mo17  1  0.48666900  0.93870600  0.40875000  1
  Mo  Mo18  1  0.00812550  0.74106050  0.14703300  1
  Mo  Mo19  1  0.01333100  0.56129400  0.59125000  1
  Mo  Mo20  1  0.98666900  0.56129400  0.90875000  1
  Mo  Mo21  1  0.50812550  0.75893950  0.64703300  1
  Mo  Mo22  1  0.99187450  0.74106050  0.35296700  1
  Mo  Mo23  1  0.51333100  0.93870600  0.09125000  1
  Mo  Mo24  1  0.99187450  0.25893950  0.85296700  1
  Mo  Mo25  1  0.98666900  0.43870600  0.40875000  1
  Mo  Mo26  1  0.50812550  0.24106050  0.14703300  1
  Mo  Mo27  1  0.51333100  0.06129400  0.59125000  1
  Mo  Mo28  1  0.48666900  0.06129400  0.90875000  1
  Mo  Mo29  1  0.00812550  0.25893950  0.64703300  1
  Mo  Mo30  1  0.49187450  0.24106050  0.35296700  1
  Mo  Mo31  1  0.01333100  0.43870600  0.09125000  1
  O  O32  1  0.73226600  0.79744200  0.71312500  1
  O  O33  1  0.27663150  0.95215550  0.89909200  1
  O  O34  1  0.26773400  0.79744200  0.78687500  1
  O  O35  1  0.12688000  0.86020000  0.32738700  1
  O  O36  1  0.16105150  0.66891350  0.54238000  1
  O  O37  1  0.23592300  0.98056500  0.03698300  1
  O  O38  1  0.62688000  0.63980000  0.82738700  1
  O  O39  1  0.82362150  0.76161650  0.43339400  1
  O  O40  1  0.75244300  0.84966700  0.86829800  1
  O  O41  1  0.67637850  0.73838350  0.56660600  1
  O  O42  1  0.22336850  0.54784450  0.10090800  1
  O  O43  1  0.32362150  0.73838350  0.93339400  1
  O  O44  1  0.74755700  0.65033300  0.13170200  1
  O  O45  1  0.60696700  0.90938300  0.32833800  1
  O  O46  1  0.73592300  0.51943500  0.53698300  1
  O  O47  1  0.76773400  0.70255800  0.28687500  1
  O  O48  1  0.77663150  0.54784450  0.39909200  1
  O  O49  1  0.37312000  0.63980000  0.67261300  1
  O  O50  1  0.33894850  0.83108650  0.45762000  1
  O  O51  1  0.87312000  0.86020000  0.17261300  1
  O  O52  1  0.10696700  0.59061700  0.82833800  1
  O  O53  1  0.23226600  0.70255800  0.21312500  1
  O  O54  1  0.39303300  0.90938300  0.17166200  1
  O  O55  1  0.89303300  0.59061700  0.67166200  1
  O  O56  1  0.24755700  0.84966700  0.63170200  1
  O  O57  1  0.26407700  0.51943500  0.96301700  1
  O  O58  1  0.25244300  0.65033300  0.36829800  1
  O  O59  1  0.66105150  0.83108650  0.04238000  1
  O  O60  1  0.76407700  0.98056500  0.46301700  1
  O  O61  1  0.17637850  0.76161650  0.06660600  1
  O  O62  1  0.72336850  0.95215550  0.60090800  1
  O  O63  1  0.83894850  0.66891350  0.95762000  1
  O  O64  1  0.23226600  0.29744200  0.71312500  1
  O  O65  1  0.77663150  0.45215550  0.89909200  1
  O  O66  1  0.76773400  0.29744200  0.78687500  1
  O  O67  1  0.62688000  0.36020000  0.32738700  1
  O  O68  1  0.66105150  0.16891350  0.54238000  1
  O  O69  1  0.73592300  0.48056500  0.03698300  1
  O  O70  1  0.12688000  0.13980000  0.82738700  1
  O  O71  1  0.32362150  0.26161650  0.43339400  1
  O  O72  1  0.25244300  0.34966700  0.86829800  1
  O  O73  1  0.17637850  0.23838350  0.56660600  1
  O  O74  1  0.72336850  0.04784450  0.10090800  1
  O  O75  1  0.82362150  0.23838350  0.93339400  1
  O  O76  1  0.24755700  0.15033300  0.13170200  1
  O  O77  1  0.10696700  0.40938300  0.32833800  1
  O  O78  1  0.23592300  0.01943500  0.53698300  1
  O  O79  1  0.26773400  0.20255800  0.28687500  1
  O  O80  1  0.27663150  0.04784450  0.39909200  1
  O  O81  1  0.87312000  0.13980000  0.67261300  1
  O  O82  1  0.83894850  0.33108650  0.45762000  1
  O  O83  1  0.37312000  0.36020000  0.17261300  1
  O  O84  1  0.60696700  0.09061700  0.82833800  1
  O  O85  1  0.73226600  0.20255800  0.21312500  1
  O  O86  1  0.89303300  0.40938300  0.17166200  1
  O  O87  1  0.39303300  0.09061700  0.67166200  1
  O  O88  1  0.74755700  0.34966700  0.63170200  1
  O  O89  1  0.76407700  0.01943500  0.96301700  1
  O  O90  1  0.75244300  0.15033300  0.36829800  1
  O  O91  1  0.16105150  0.33108650  0.04238000  1
  O  O92  1  0.26407700  0.48056500  0.46301700  1
  O  O93  1  0.67637850  0.26161650  0.06660600  1
  O  O94  1  0.22336850  0.45215550  0.60090800  1
  O  O95  1  0.33894850  0.16891350  0.95762000  1
