# generated using pymatgen
data_MnO2
_symmetry_space_group_name_H-M   'P 1'
_cell_length_a   13.56180200
_cell_length_b   2.93249400
_cell_length_c   4.66662098
_cell_angle_alpha   90.00000000
_cell_angle_beta   94.71300966
_cell_angle_gamma   90.00000000
_symmetry_Int_Tables_number   1
_chemical_formula_structural   MnO2
_chemical_formula_sum   'Mn6 O12'
_cell_volume   184.96353518
_cell_formula_units_Z   6
loop_
 _symmetry_equiv_pos_site_id
 _symmetry_equiv_pos_as_xyz
  1  'x, y, z'
loop_
 _atom_site_type_symbol
 _atom_site_label
 _atom_site_symmetry_multiplicity
 _atom_site_fract_x
 _atom_site_fract_y
 _atom_site_fract_z
 _atom_site_occupancy
  Mn  Mn0  1  0.00000000  0.00000000  0.00000000  1
  Mn  Mn1  1  0.65753300  0.00000000  0.53692200  1
  Mn  Mn2  1  0.84246700  0.50000000  0.46307800  1
  Mn  Mn3  1  0.50000000  0.50000000  0.00000000  1
  Mn  Mn4  1  0.15753300  0.50000000  0.53692200  1
  Mn  Mn5  1  0.34246700  0.00000000  0.46307800  1
  O  O6  1  0.91274900  0.00000000  0.64860600  1
  O  O7  1  0.58725100  0.50000000  0.35139400  1
  O  O8  1  0.57443600  0.00000000  0.85800100  1
  O  O9  1  0.92556400  0.50000000  0.14199900  1
  O  O10  1  0.76482300  0.00000000  0.28723700  1
  O  O11  1  0.73517700  0.50000000  0.71276300  1
  O  O12  1  0.41274900  0.50000000  0.64860600  1
  O  O13  1  0.08725100  0.00000000  0.35139400  1
  O  O14  1  0.07443600  0.50000000  0.85800100  1
  O  O15  1  0.42556400  0.00000000  0.14199900  1
  O  O16  1  0.26482300  0.50000000  0.28723700  1
  O  O17  1  0.23517700  0.00000000  0.71276300  1
