# generated using pymatgen
data_Na2TiSiO5
_symmetry_space_group_name_H-M   'P 1'
_cell_length_a   10.15382600
_cell_length_b   10.15382600
_cell_length_c   9.25448200
_cell_angle_alpha   90.00000000
_cell_angle_beta   90.00000000
_cell_angle_gamma   90.00000000
_symmetry_Int_Tables_number   1
_chemical_formula_structural   Na2TiSiO5
_chemical_formula_sum   'Na16 Ti8 Si8 O40'
_cell_volume   954.13878257
_cell_formula_units_Z   8
loop_
 _symmetry_equiv_pos_site_id
 _symmetry_equiv_pos_as_xyz
  1  'x, y, z'
loop_
 _atom_site_type_symbol
 _atom_site_label
 _atom_site_symmetry_multiplicity
 _atom_site_fract_x
 _atom_site_fract_y
 _atom_site_fract_z
 _atom_site_occupancy
  Na  Na0  1  0.75317600  0.49879500  0.50000000  1
  Na  Na1  1  0.75205300  0.23942500  0.75058200  1
  Na  Na2  1  0.99959300  0.24695000  0.00000000  1
  Na  Na3  1  0.75305000  0.99959300  0.50000000  1
  Na  Na4  1  0.75205300  0.23942500  0.24941800  1
  Na  Na5  1  0.76057500  0.75205300  0.25058200  1
  Na  Na6  1  0.49879500  0.24682400  0.00000000  1
  Na  Na7  1  0.00040700  0.75305000  0.00000000  1
  Na  Na8  1  0.24794700  0.76057500  0.24941800  1
  Na  Na9  1  0.76057500  0.75205300  0.74941800  1
  Na  Na10  1  0.24682400  0.50120500  0.50000000  1
  Na  Na11  1  0.24794700  0.76057500  0.75058200  1
  Na  Na12  1  0.23942500  0.24794700  0.74941800  1
  Na  Na13  1  0.24695000  0.00040700  0.50000000  1
  Na  Na14  1  0.50120500  0.75317600  0.00000000  1
  Na  Na15  1  0.23942500  0.24794700  0.25058200  1
  Ti  Ti16  1  0.24041800  0.53498700  0.00000000  1
  Ti  Ti17  1  0.75917400  0.96545400  0.00000000  1
  Ti  Ti18  1  0.75958200  0.46501300  0.00000000  1
  Ti  Ti19  1  0.24082600  0.03454600  0.00000000  1
  Ti  Ti20  1  0.46501300  0.24041800  0.50000000  1
  Ti  Ti21  1  0.96545400  0.24082600  0.50000000  1
  Ti  Ti22  1  0.53498700  0.75958200  0.50000000  1
  Ti  Ti23  1  0.03454600  0.75917400  0.50000000  1
  Si  Si24  1  0.00000000  0.00000000  0.75000000  1
  Si  Si25  1  0.00000000  0.00000000  0.25000000  1
  Si  Si26  1  0.00000000  0.50000000  0.24816000  1
  Si  Si27  1  0.00000000  0.50000000  0.75184000  1
  Si  Si28  1  0.50000000  0.00000000  0.25184000  1
  Si  Si29  1  0.50000000  0.50000000  0.25000000  1
  Si  Si30  1  0.50000000  0.50000000  0.75000000  1
  Si  Si31  1  0.50000000  0.00000000  0.74816000  1
  O  O32  1  0.04834600  0.62189000  0.35099300  1
  O  O33  1  0.12555800  0.95353100  0.14925300  1
  O  O34  1  0.44884200  0.37824100  0.35132900  1
  O  O35  1  0.12563000  0.45100700  0.85089100  1
  O  O36  1  0.04646900  0.12555800  0.64925300  1
  O  O37  1  0.54899300  0.12563000  0.35089100  1
  O  O38  1  0.62175900  0.44884200  0.14867100  1
  O  O39  1  0.12555800  0.95353100  0.85074700  1
  O  O40  1  0.55115800  0.62175900  0.35132900  1
  O  O41  1  0.45100700  0.87437000  0.64910900  1
  O  O42  1  0.87444200  0.04646900  0.14925300  1
  O  O43  1  0.37811000  0.04834600  0.85099300  1
  O  O44  1  0.20882400  0.20125800  0.00000000  1
  O  O45  1  0.95353100  0.87444200  0.64925300  1
  O  O46  1  0.62189000  0.95165400  0.14900700  1
  O  O47  1  0.37811000  0.04834600  0.14900700  1
  O  O48  1  0.20739200  0.70126000  0.00000000  1
  O  O49  1  0.20125800  0.79117600  0.50000000  1
  O  O50  1  0.87437000  0.54899300  0.85089100  1
  O  O51  1  0.62189000  0.95165400  0.85099300  1
  O  O52  1  0.87437000  0.54899300  0.14910900  1
  O  O53  1  0.95165400  0.37811000  0.35099300  1
  O  O54  1  0.79117600  0.79874200  0.00000000  1
  O  O55  1  0.55115800  0.62175900  0.64867100  1
  O  O56  1  0.70126000  0.79260800  0.50000000  1
  O  O57  1  0.37824100  0.55115800  0.85132900  1
  O  O58  1  0.12563000  0.45100700  0.14910900  1
  O  O59  1  0.37824100  0.55115800  0.14867100  1
  O  O60  1  0.45100700  0.87437000  0.35089100  1
  O  O61  1  0.04646900  0.12555800  0.35074700  1
  O  O62  1  0.95165400  0.37811000  0.64900700  1
  O  O63  1  0.54899300  0.12563000  0.64910900  1
  O  O64  1  0.44884200  0.37824100  0.64867100  1
  O  O65  1  0.95353100  0.87444200  0.35074700  1
  O  O66  1  0.04834600  0.62189000  0.64900700  1
  O  O67  1  0.79260800  0.29874000  0.00000000  1
  O  O68  1  0.87444200  0.04646900  0.85074700  1
  O  O69  1  0.29874000  0.20739200  0.50000000  1
  O  O70  1  0.79874200  0.20882400  0.50000000  1
  O  O71  1  0.62175900  0.44884200  0.85132900  1
