# generated using pymatgen
data_RbU2H5C4O15
_symmetry_space_group_name_H-M   'P 1'
_cell_length_a   5.73160200
_cell_length_b   13.94114400
_cell_length_c   9.57018201
_cell_angle_alpha   90.00000000
_cell_angle_beta   96.61748751
_cell_angle_gamma   90.00000000
_symmetry_Int_Tables_number   1
_chemical_formula_structural   RbU2H5C4O15
_chemical_formula_sum   'Rb2 U4 H10 C8 O30'
_cell_volume   759.61149439
_cell_formula_units_Z   2
loop_
 _symmetry_equiv_pos_site_id
 _symmetry_equiv_pos_as_xyz
  1  'x, y, z'
loop_
 _atom_site_type_symbol
 _atom_site_label
 _atom_site_symmetry_multiplicity
 _atom_site_fract_x
 _atom_site_fract_y
 _atom_site_fract_z
 _atom_site_occupancy
  Rb  Rb0  1  0.85557300  0.75000000  0.40214400  1
  Rb  Rb1  1  0.14442700  0.25000000  0.59785600  1
  U  U2  1  0.71510600  0.09191400  0.23636500  1
  U  U3  1  0.28489400  0.90808600  0.76363500  1
  U  U4  1  0.71510600  0.40808600  0.23636500  1
  U  U5  1  0.28489400  0.59191400  0.76363500  1
  H  H6  1  0.70460300  0.19448500  0.81927700  1
  H  H7  1  0.46924300  0.25000000  0.11850200  1
  H  H8  1  0.53075700  0.75000000  0.88149800  1
  H  H9  1  0.29539700  0.69448500  0.18072300  1
  H  H10  1  0.36602900  0.25000000  0.88585100  1
  H  H11  1  0.88100900  0.75000000  0.05254900  1
  H  H12  1  0.63397100  0.75000000  0.11414900  1
  H  H13  1  0.29539700  0.80551500  0.18072300  1
  H  H14  1  0.70460300  0.30551500  0.81927700  1
  H  H15  1  0.11899100  0.25000000  0.94745100  1
  C  C16  1  0.54126300  0.55001600  0.48057800  1
  C  C17  1  0.98527400  0.45335200  0.95737700  1
  C  C18  1  0.98527400  0.04664800  0.95737700  1
  C  C19  1  0.01472600  0.54664800  0.04262300  1
  C  C20  1  0.45873700  0.05001600  0.51942200  1
  C  C21  1  0.45873700  0.44998400  0.51942200  1
  C  C22  1  0.01472600  0.95335200  0.04262300  1
  C  C23  1  0.54126300  0.94998400  0.48057800  1
  O  O24  1  0.44320100  0.44266400  0.13569300  1
  O  O25  1  0.87628200  0.11473200  0.01018200  1
  O  O26  1  0.51722100  0.11920300  0.44527400  1
  O  O27  1  0.98134000  0.37154600  0.34323700  1
  O  O28  1  0.01866000  0.87154600  0.65676300  1
  O  O29  1  0.55679900  0.94266400  0.86430700  1
  O  O30  1  0.48277900  0.88079700  0.55472600  1
  O  O31  1  0.01866000  0.62845400  0.65676300  1
  O  O32  1  0.93006800  0.54856300  0.15847200  1
  O  O33  1  0.06993200  0.45143700  0.84152800  1
  O  O34  1  0.38886900  0.75000000  0.80936000  1
  O  O35  1  0.33979000  0.44533800  0.62227600  1
  O  O36  1  0.12371800  0.88526800  0.98981800  1
  O  O37  1  0.67140200  0.25000000  0.75721600  1
  O  O38  1  0.66021000  0.94533800  0.37772400  1
  O  O39  1  0.28842200  0.25000000  0.97094200  1
  O  O40  1  0.12371800  0.61473200  0.98981800  1
  O  O41  1  0.06993200  0.04856300  0.84152800  1
  O  O42  1  0.33979000  0.05466200  0.62227600  1
  O  O43  1  0.66021000  0.55466200  0.37772400  1
  O  O44  1  0.71157800  0.75000000  0.02905800  1
  O  O45  1  0.55679900  0.55733600  0.86430700  1
  O  O46  1  0.93006800  0.95143700  0.15847200  1
  O  O47  1  0.48277900  0.61920300  0.55472600  1
  O  O48  1  0.32859800  0.75000000  0.24278400  1
  O  O49  1  0.61113100  0.25000000  0.19064000  1
  O  O50  1  0.98134000  0.12845400  0.34323700  1
  O  O51  1  0.51722100  0.38079700  0.44527400  1
  O  O52  1  0.87628200  0.38526800  0.01018200  1
  O  O53  1  0.44320100  0.05733600  0.13569300  1
