# generated using pymatgen
data_Cs2NbAgS4
_symmetry_space_group_name_H-M   'P 1'
_cell_length_a   5.99618000
_cell_length_b   14.51279800
_cell_length_c   25.18066600
_cell_angle_alpha   90.00000000
_cell_angle_beta   90.00000000
_cell_angle_gamma   90.00000000
_symmetry_Int_Tables_number   1
_chemical_formula_structural   Cs2NbAgS4
_chemical_formula_sum   'Cs16 Nb8 Ag8 S32'
_cell_volume   2191.25552685
_cell_formula_units_Z   8
loop_
 _symmetry_equiv_pos_site_id
 _symmetry_equiv_pos_as_xyz
  1  'x, y, z'
loop_
 _atom_site_type_symbol
 _atom_site_label
 _atom_site_symmetry_multiplicity
 _atom_site_fract_x
 _atom_site_fract_y
 _atom_site_fract_z
 _atom_site_occupancy
  Cs  Cs0  1  0.00000000  0.00000000  0.82143600  1
  Cs  Cs1  1  0.50000000  0.00000000  0.67856400  1
  Cs  Cs2  1  0.25000000  0.75000000  0.92856400  1
  Cs  Cs3  1  0.25000000  0.75000000  0.57143600  1
  Cs  Cs4  1  0.00000000  0.50000000  0.32143600  1
  Cs  Cs5  1  0.50000000  0.50000000  0.17856400  1
  Cs  Cs6  1  0.25000000  0.25000000  0.42856400  1
  Cs  Cs7  1  0.25000000  0.25000000  0.07143600  1
  Cs  Cs8  1  0.50000000  0.00000000  0.32143600  1
  Cs  Cs9  1  0.00000000  0.00000000  0.17856400  1
  Cs  Cs10  1  0.75000000  0.75000000  0.42856400  1
  Cs  Cs11  1  0.75000000  0.75000000  0.07143600  1
  Cs  Cs12  1  0.50000000  0.50000000  0.82143600  1
  Cs  Cs13  1  0.00000000  0.50000000  0.67856400  1
  Cs  Cs14  1  0.75000000  0.25000000  0.92856400  1
  Cs  Cs15  1  0.75000000  0.25000000  0.57143600  1
  Nb  Nb16  1  0.25000000  0.75000000  0.75000000  1
  Nb  Nb17  1  0.00000000  0.00000000  0.00000000  1
  Nb  Nb18  1  0.25000000  0.25000000  0.25000000  1
  Nb  Nb19  1  0.00000000  0.50000000  0.50000000  1
  Nb  Nb20  1  0.75000000  0.75000000  0.25000000  1
  Nb  Nb21  1  0.50000000  0.00000000  0.50000000  1
  Nb  Nb22  1  0.75000000  0.25000000  0.75000000  1
  Nb  Nb23  1  0.50000000  0.50000000  0.00000000  1
  Ag  Ag24  1  0.50000000  0.00000000  0.00000000  1
  Ag  Ag25  1  0.75000000  0.75000000  0.75000000  1
  Ag  Ag26  1  0.50000000  0.50000000  0.50000000  1
  Ag  Ag27  1  0.75000000  0.25000000  0.25000000  1
  Ag  Ag28  1  0.00000000  0.00000000  0.50000000  1
  Ag  Ag29  1  0.25000000  0.75000000  0.25000000  1
  Ag  Ag30  1  0.00000000  0.50000000  0.00000000  1
  Ag  Ag31  1  0.25000000  0.25000000  0.75000000  1
  S  S32  1  0.71533200  0.90550100  0.55335900  1
  S  S33  1  0.03466800  0.65550100  0.80335900  1
  S  S34  1  0.46533200  0.65550100  0.69664100  1
  S  S35  1  0.46533200  0.84449900  0.80335900  1
  S  S36  1  0.78466800  0.90550100  0.94664100  1
  S  S37  1  0.78466800  0.59449900  0.55335900  1
  S  S38  1  0.03466800  0.84449900  0.69664100  1
  S  S39  1  0.71533200  0.59449900  0.94664100  1
  S  S40  1  0.71533200  0.40550100  0.05335900  1
  S  S41  1  0.03466800  0.15550100  0.30335900  1
  S  S42  1  0.46533200  0.15550100  0.19664100  1
  S  S43  1  0.46533200  0.34449900  0.30335900  1
  S  S44  1  0.78466800  0.40550100  0.44664100  1
  S  S45  1  0.78466800  0.09449900  0.05335900  1
  S  S46  1  0.03466800  0.34449900  0.19664100  1
  S  S47  1  0.71533200  0.09449900  0.44664100  1
  S  S48  1  0.21533200  0.90550100  0.05335900  1
  S  S49  1  0.53466800  0.65550100  0.30335900  1
  S  S50  1  0.96533200  0.65550100  0.19664100  1
  S  S51  1  0.96533200  0.84449900  0.30335900  1
  S  S52  1  0.28466800  0.90550100  0.44664100  1
  S  S53  1  0.28466800  0.59449900  0.05335900  1
  S  S54  1  0.53466800  0.84449900  0.19664100  1
  S  S55  1  0.21533200  0.59449900  0.44664100  1
  S  S56  1  0.21533200  0.40550100  0.55335900  1
  S  S57  1  0.53466800  0.15550100  0.80335900  1
  S  S58  1  0.96533200  0.15550100  0.69664100  1
  S  S59  1  0.96533200  0.34449900  0.80335900  1
  S  S60  1  0.28466800  0.40550100  0.94664100  1
  S  S61  1  0.28466800  0.09449900  0.55335900  1
  S  S62  1  0.53466800  0.34449900  0.69664100  1
  S  S63  1  0.21533200  0.09449900  0.94664100  1
