# generated using pymatgen
data_BaLa5TiCr5O18
_symmetry_space_group_name_H-M   'P 1'
_cell_length_a   5.56195700
_cell_length_b   5.56585379
_cell_length_c   27.43049331
_cell_angle_alpha   89.60184120
_cell_angle_beta   89.54867647
_cell_angle_gamma   60.66259919
_symmetry_Int_Tables_number   1
_chemical_formula_structural   BaLa5TiCr5O18
_chemical_formula_sum   'Ba2 La10 Ti2 Cr10 O36'
_cell_volume   740.23328594
_cell_formula_units_Z   2
loop_
 _symmetry_equiv_pos_site_id
 _symmetry_equiv_pos_as_xyz
  1  'x, y, z'
loop_
 _atom_site_type_symbol
 _atom_site_label
 _atom_site_symmetry_multiplicity
 _atom_site_fract_x
 _atom_site_fract_y
 _atom_site_fract_z
 _atom_site_occupancy
  Ba  Ba0  1  0.99986500  0.99901800  0.12548300  1
  Ba  Ba1  1  0.33694400  0.33139200  0.95566800  1
  La  La2  1  0.66961600  0.66340000  0.03914900  1
  La  La3  1  0.33004800  0.32792500  0.21090700  1
  La  La4  1  0.99710000  0.99959300  0.37616500  1
  La  La5  1  0.66531500  0.66559100  0.54234300  1
  La  La6  1  0.66079300  0.66727900  0.29227800  1
  La  La7  1  0.33132900  0.33532500  0.70835000  1
  La  La8  1  0.33153700  0.33263600  0.45933800  1
  La  La9  1  0.00692300  0.00184400  0.87123900  1
  La  La10  1  0.99783700  0.99993200  0.62519900  1
  La  La11  1  0.66558100  0.67155900  0.79263900  1
  Ti  Ti12  1  0.99992400  0.99816100  0.99909000  1
  Ti  Ti13  1  0.66063400  0.66908000  0.16711300  1
  Cr  Cr14  1  0.33038800  0.33541200  0.33495800  1
  Cr  Cr15  1  0.33286400  0.33295200  0.08400200  1
  Cr  Cr16  1  0.00124400  0.99727200  0.25221100  1
  Cr  Cr17  1  0.66643700  0.66710800  0.66626900  1
  Cr  Cr18  1  0.66625900  0.66687600  0.41727700  1
  Cr  Cr19  1  0.33305000  0.33355200  0.58334900  1
  Cr  Cr20  1  0.99971900  0.00004300  0.50027600  1
  Cr  Cr21  1  0.99768100  0.00353200  0.74809700  1
  Cr  Cr22  1  0.66701800  0.66579000  0.91491400  1
  Cr  Cr23  1  0.33813500  0.33023800  0.83107800  1
  O  O24  1  0.52345200  0.47776400  0.12797300  1
  O  O25  1  0.65577100  0.17284700  0.03787400  1
  O  O26  1  0.52060300  0.96359800  0.11882200  1
  O  O27  1  0.15910200  0.68400600  0.04534400  1
  O  O28  1  0.23507100  0.09951700  0.29329600  1
  O  O29  1  0.02752800  0.48429000  0.13596800  1
  O  O30  1  0.32052100  0.84083100  0.20561100  1
  O  O31  1  0.11833600  0.21350000  0.04132200  1
  O  O32  1  0.18784600  0.61695400  0.28144000  1
  O  O33  1  0.81966400  0.36718000  0.21866100  1
  O  O34  1  0.90802400  0.76097000  0.45813700  1
  O  O35  1  0.70976600  0.14940400  0.30421900  1
  O  O36  1  0.94879600  0.52676500  0.36355900  1
  O  O37  1  0.77136000  0.88509700  0.21240100  1
  O  O38  1  0.85721500  0.28498100  0.44650100  1
  O  O39  1  0.47690000  0.04852400  0.38787800  1
  O  O40  1  0.57440200  0.42784800  0.62414800  1
  O  O41  1  0.38184400  0.80974000  0.47097700  1
  O  O42  1  0.61806000  0.19116500  0.52957700  1
  O  O43  1  0.42633700  0.57624400  0.37528500  1
  O  O44  1  0.52360800  0.95259700  0.61257800  1
  O  O45  1  0.14199200  0.71584000  0.55394500  1
  O  O46  1  0.23420000  0.09985000  0.78924500  1
  O  O47  1  0.04938400  0.47622400  0.63706700  1
  O  O48  1  0.28532600  0.85569200  0.69538300  1
  O  O49  1  0.09376800  0.24156400  0.54123200  1
  O  O50  1  0.18113300  0.62643800  0.77946000  1
  O  O51  1  0.80753000  0.38539900  0.71965700  1
  O  O52  1  0.85653300  0.80935500  0.95920000  1
  O  O53  1  0.71550000  0.14878200  0.80101700  1
  O  O54  1  0.96751000  0.50387500  0.86410500  1
  O  O55  1  0.75864000  0.91015200  0.70679900  1
  O  O56  1  0.85317900  0.29870700  0.95041800  1
  O  O57  1  0.49984500  0.01317100  0.87683100  1
  O  O58  1  0.36427800  0.81701100  0.96652300  1
  O  O59  1  0.44073600  0.56861300  0.87015700  1
