# generated using pymatgen
data_Sm2Mo2O7
_symmetry_space_group_name_H-M   'P 1'
_cell_length_a   7.23776355
_cell_length_b   7.61149598
_cell_length_c   10.43576827
_cell_angle_alpha   90.00000000
_cell_angle_beta   90.00000000
_cell_angle_gamma   90.00000000
_symmetry_Int_Tables_number   1
_chemical_formula_structural   Sm2Mo2O7
_chemical_formula_sum   'Sm8 Mo8 O28'
_cell_volume   574.90864617
_cell_formula_units_Z   4
loop_
 _symmetry_equiv_pos_site_id
 _symmetry_equiv_pos_as_xyz
  1  'x, y, z'
loop_
 _atom_site_type_symbol
 _atom_site_label
 _atom_site_symmetry_multiplicity
 _atom_site_fract_x
 _atom_site_fract_y
 _atom_site_fract_z
 _atom_site_occupancy
  Sm  Sm0  1  0.50000000  0.49254701  0.49565140  1
  Sm  Sm1  1  0.00000000  0.50745299  0.99565140  1
  Sm  Sm2  1  0.25057821  0.24838718  0.24961566  1
  Sm  Sm3  1  0.00000000  0.00571822  0.00270737  1
  Sm  Sm4  1  0.50000000  0.99428178  0.50270737  1
  Sm  Sm5  1  0.24942179  0.75161282  0.74961566  1
  Sm  Sm6  1  0.75057821  0.75161282  0.74961566  1
  Sm  Sm7  1  0.74942179  0.24838718  0.24961566  1
  Mo  Mo8  1  0.50000000  0.51387722  0.01830273  1
  Mo  Mo9  1  0.25015252  0.25189942  0.75027821  1
  Mo  Mo10  1  0.00000000  0.98616927  0.48241528  1
  Mo  Mo11  1  0.50000000  0.01383073  0.98241528  1
  Mo  Mo12  1  0.24984748  0.74810058  0.25027821  1
  Mo  Mo13  1  0.75015252  0.74810058  0.25027821  1
  Mo  Mo14  1  0.00000000  0.48612278  0.51830273  1
  Mo  Mo15  1  0.74984748  0.25189942  0.75027821  1
  O  O16  1  0.50000000  0.21161721  0.86158769  1
  O  O17  1  0.20264202  0.01497423  0.61914951  1
  O  O18  1  0.50000000  0.77385945  0.90173008  1
  O  O19  1  0.50000000  0.70490023  0.14249494  1
  O  O20  1  0.20403883  0.51329053  0.37822012  1
  O  O21  1  0.24886098  0.50753797  0.12919338  1
  O  O22  1  0.75113902  0.50753797  0.12919338  1
  O  O23  1  0.25113902  0.49246203  0.62919338  1
  O  O24  1  0.50000000  0.23760002  0.63096949  1
  O  O25  1  0.00000000  0.22614055  0.40173008  1
  O  O26  1  0.00000000  0.26215546  0.87142643  1
  O  O27  1  0.25100015  0.01153611  0.86800781  1
  O  O28  1  0.74899985  0.01153611  0.86800781  1
  O  O29  1  0.79735798  0.01497423  0.61914951  1
  O  O30  1  0.24899985  0.98846389  0.36800781  1
  O  O31  1  0.70264202  0.98502577  0.11914951  1
  O  O32  1  0.29735798  0.98502577  0.11914951  1
  O  O33  1  0.00000000  0.78838279  0.36158769  1
  O  O34  1  0.00000000  0.76239998  0.13096949  1
  O  O35  1  0.00000000  0.72633216  0.60320489  1
  O  O36  1  0.50000000  0.73784454  0.37142643  1
  O  O37  1  0.79596117  0.51329053  0.37822012  1
  O  O38  1  0.29596117  0.48670947  0.87822012  1
  O  O39  1  0.70403883  0.48670947  0.87822012  1
  O  O40  1  0.74886098  0.49246203  0.62919338  1
  O  O41  1  0.00000000  0.29509977  0.64249494  1
  O  O42  1  0.50000000  0.27366784  0.10320489  1
  O  O43  1  0.75100015  0.98846389  0.36800781  1
