# generated using pymatgen
data_Y3NbO7
_symmetry_space_group_name_H-M   'P 1'
_cell_length_a   7.65636200
_cell_length_b   14.53223600
_cell_length_c   5.36685306
_cell_angle_alpha   90.00000000
_cell_angle_beta   90.06115135
_cell_angle_gamma   90.00000000
_symmetry_Int_Tables_number   1
_chemical_formula_structural   Y3NbO7
_chemical_formula_sum   'Y12 Nb4 O28'
_cell_volume   597.13751765
_cell_formula_units_Z   4
loop_
 _symmetry_equiv_pos_site_id
 _symmetry_equiv_pos_as_xyz
  1  'x, y, z'
loop_
 _atom_site_type_symbol
 _atom_site_label
 _atom_site_symmetry_multiplicity
 _atom_site_fract_x
 _atom_site_fract_y
 _atom_site_fract_z
 _atom_site_occupancy
  Y  Y0  1  0.99594900  0.00000000  0.00217600  1
  Y  Y1  1  0.49581400  0.00000000  0.00351900  1
  Y  Y2  1  0.74813050  0.36920550  0.47254800  1
  Y  Y3  1  0.24813050  0.13079450  0.47254800  1
  Y  Y4  1  0.24841950  0.37109950  0.52142200  1
  Y  Y5  1  0.74841950  0.12890050  0.52142200  1
  Y  Y6  1  0.49594900  0.50000000  0.00217600  1
  Y  Y7  1  0.99581400  0.50000000  0.00351900  1
  Y  Y8  1  0.24813050  0.86920550  0.47254800  1
  Y  Y9  1  0.74813050  0.63079450  0.47254800  1
  Y  Y10  1  0.74841950  0.87109950  0.52142200  1
  Y  Y11  1  0.24841950  0.62890050  0.52142200  1
  Nb  Nb12  1  0.53227500  0.25059500  0.99472300  1
  Nb  Nb13  1  0.03227500  0.24940500  0.99472300  1
  Nb  Nb14  1  0.03227500  0.75059500  0.99472300  1
  Nb  Nb15  1  0.53227500  0.74940500  0.99472300  1
  O  O16  1  0.24575300  0.00000000  0.24158600  1
  O  O17  1  0.52912150  0.37164850  0.76290700  1
  O  O18  1  0.74574400  0.00000000  0.75930100  1
  O  O19  1  0.24244900  0.24070400  0.20749400  1
  O  O20  1  0.96774250  0.36741550  0.77014200  1
  O  O21  1  0.02765550  0.37376450  0.24601000  1
  O  O22  1  0.02912150  0.12835150  0.76290700  1
  O  O23  1  0.74240050  0.24014150  0.77492300  1
  O  O24  1  0.74244900  0.25929600  0.20749400  1
  O  O25  1  0.46872250  0.36997050  0.23930000  1
  O  O26  1  0.52765550  0.12623550  0.24601000  1
  O  O27  1  0.46774250  0.13258450  0.77014200  1
  O  O28  1  0.24240050  0.25985850  0.77492300  1
  O  O29  1  0.96872250  0.13002950  0.23930000  1
  O  O30  1  0.74575300  0.50000000  0.24158600  1
  O  O31  1  0.02912150  0.87164850  0.76290700  1
  O  O32  1  0.24574400  0.50000000  0.75930100  1
  O  O33  1  0.74244900  0.74070400  0.20749400  1
  O  O34  1  0.46774250  0.86741550  0.77014200  1
  O  O35  1  0.52765550  0.87376450  0.24601000  1
  O  O36  1  0.52912150  0.62835150  0.76290700  1
  O  O37  1  0.24240050  0.74014150  0.77492300  1
  O  O38  1  0.24244900  0.75929600  0.20749400  1
  O  O39  1  0.96872250  0.86997050  0.23930000  1
  O  O40  1  0.02765550  0.62623550  0.24601000  1
  O  O41  1  0.96774250  0.63258450  0.77014200  1
  O  O42  1  0.74240050  0.75985850  0.77492300  1
  O  O43  1  0.46872250  0.63002950  0.23930000  1
