# generated using pymatgen
data_Al(HO)3
_symmetry_space_group_name_H-M   'P 1'
_cell_length_a   9.00204500
_cell_length_b   4.94031000
_cell_length_c   13.15224841
_cell_angle_alpha   90.00000000
_cell_angle_beta   132.45527987
_cell_angle_gamma   90.00000000
_symmetry_Int_Tables_number   1
_chemical_formula_structural   Al(HO)3
_chemical_formula_sum   'Al8 H24 O24'
_cell_volume   431.55548030
_cell_formula_units_Z   8
loop_
 _symmetry_equiv_pos_site_id
 _symmetry_equiv_pos_as_xyz
  1  'x, y, z'
loop_
 _atom_site_type_symbol
 _atom_site_label
 _atom_site_symmetry_multiplicity
 _atom_site_fract_x
 _atom_site_fract_y
 _atom_site_fract_z
 _atom_site_occupancy
  Al  Al0  1  0.83580400  0.97212200  0.50021500  1
  Al  Al1  1  0.83580400  0.52787800  0.00021500  1
  Al  Al2  1  0.16419600  0.02787800  0.49978500  1
  Al  Al3  1  0.16419600  0.47212200  0.99978500  1
  Al  Al4  1  0.66090000  0.47512600  0.50009500  1
  Al  Al5  1  0.66090000  0.02487400  0.00009500  1
  Al  Al6  1  0.33910000  0.52487400  0.49990500  1
  Al  Al7  1  0.33910000  0.97512600  0.99990500  1
  H  H8  1  0.77505600  0.39856300  0.37672900  1
  H  H9  1  0.77505600  0.10143700  0.87672900  1
  H  H10  1  0.22494400  0.60143700  0.62327100  1
  H  H11  1  0.22494400  0.89856300  0.12327100  1
  H  H12  1  0.11069100  0.83964600  0.29764200  1
  H  H13  1  0.11069100  0.66035400  0.79764200  1
  H  H14  1  0.88930900  0.16035400  0.70235800  1
  H  H15  1  0.88930900  0.33964600  0.20235800  1
  H  H16  1  0.37211000  0.16207400  0.39528200  1
  H  H17  1  0.37211000  0.33792600  0.89528200  1
  H  H18  1  0.62789000  0.83792600  0.60471800  1
  H  H19  1  0.62789000  0.66207400  0.10471800  1
  H  H20  1  0.79991600  0.87514000  0.29504000  1
  H  H21  1  0.79991600  0.62486000  0.79504000  1
  H  H22  1  0.20008400  0.12486000  0.70496000  1
  H  H23  1  0.20008400  0.37514000  0.20496000  1
  H  H24  1  0.49456900  0.77433900  0.29506800  1
  H  H25  1  0.49456900  0.72566100  0.79506800  1
  H  H26  1  0.50543100  0.22566100  0.70493200  1
  H  H27  1  0.50543100  0.27433900  0.20493200  1
  H  H28  1  0.99365800  0.49603100  0.38852200  1
  H  H29  1  0.99365800  0.00396900  0.88852200  1
  H  H30  1  0.00634200  0.50396900  0.61147800  1
  H  H31  1  0.00634200  0.99603100  0.11147800  1
  O  O32  1  0.69672500  0.28639500  0.38683500  1
  O  O33  1  0.69672500  0.21360500  0.88683500  1
  O  O34  1  0.30327500  0.71360500  0.61316500  1
  O  O35  1  0.30327500  0.78639500  0.11316500  1
  O  O36  1  0.22171000  0.85632300  0.39919700  1
  O  O37  1  0.22171000  0.64367700  0.89919700  1
  O  O38  1  0.77829000  0.14367700  0.60080300  1
  O  O39  1  0.77829000  0.35632300  0.10080300  1
  O  O40  1  0.38782700  0.35870600  0.39238000  1
  O  O41  1  0.38782700  0.14129400  0.89238000  1
  O  O42  1  0.61217300  0.64129400  0.60762000  1
  O  O43  1  0.61217300  0.85870600  0.10762000  1
  O  O44  1  0.90631100  0.85128400  0.39709000  1
  O  O45  1  0.90631100  0.64871600  0.89709000  1
  O  O46  1  0.09368900  0.14871600  0.60291000  1
  O  O47  1  0.09368900  0.35128400  0.10291000  1
  O  O48  1  0.58959000  0.78890200  0.39651500  1
  O  O49  1  0.58959000  0.71109800  0.89651500  1
  O  O50  1  0.41041000  0.21109800  0.60348500  1
  O  O51  1  0.41041000  0.28890200  0.10348500  1
  O  O52  1  0.07030500  0.35526000  0.38745600  1
  O  O53  1  0.07030500  0.14474000  0.88745600  1
  O  O54  1  0.92969500  0.64474000  0.61254400  1
  O  O55  1  0.92969500  0.85526000  0.11254400  1
