# generated using pymatgen
data_AgSbS2
_symmetry_space_group_name_H-M   'P 1'
_cell_length_a   13.71798800
_cell_length_b   5.79448000
_cell_length_c   13.57904443
_cell_angle_alpha   90.00000000
_cell_angle_beta   96.27480156
_cell_angle_gamma   90.00000000
_symmetry_Int_Tables_number   1
_chemical_formula_structural   AgSbS2
_chemical_formula_sum   'Ag8 Sb8 S16'
_cell_volume   1072.91289521
_cell_formula_units_Z   8
loop_
 _symmetry_equiv_pos_site_id
 _symmetry_equiv_pos_as_xyz
  1  'x, y, z'
loop_
 _atom_site_type_symbol
 _atom_site_label
 _atom_site_symmetry_multiplicity
 _atom_site_fract_x
 _atom_site_fract_y
 _atom_site_fract_z
 _atom_site_occupancy
  Ag  Ag0  1  0.99684350  0.00253150  0.99149200  1
  Ag  Ag1  1  0.99098800  0.49619300  0.49997000  1
  Ag  Ag2  1  0.99098800  0.50380700  0.99997000  1
  Ag  Ag3  1  0.99684350  0.99746850  0.49149200  1
  Ag  Ag4  1  0.49684350  0.50253150  0.99149200  1
  Ag  Ag5  1  0.49098800  0.99619300  0.49997000  1
  Ag  Ag6  1  0.49098800  0.00380700  0.99997000  1
  Ag  Ag7  1  0.49684350  0.49746850  0.49149200  1
  Sb  Sb8  1  0.71351100  0.05163200  0.13626000  1
  Sb  Sb9  1  0.77567850  0.54742550  0.34717400  1
  Sb  Sb10  1  0.71351100  0.94836800  0.63626000  1
  Sb  Sb11  1  0.77567850  0.45257450  0.84717400  1
  Sb  Sb12  1  0.21351100  0.55163200  0.13626000  1
  Sb  Sb13  1  0.27567850  0.04742550  0.34717400  1
  Sb  Sb14  1  0.21351100  0.44836800  0.63626000  1
  Sb  Sb15  1  0.27567850  0.95257450  0.84717400  1
  S  S16  1  0.66448350  0.13574350  0.78772700  1
  S  S17  1  0.55508300  0.73939000  0.62938600  1
  S  S18  1  0.93871450  0.26272550  0.86049100  1
  S  S19  1  0.93871450  0.73727450  0.36049100  1
  S  S20  1  0.82889700  0.64058400  0.69750000  1
  S  S21  1  0.82889700  0.35941600  0.19750000  1
  S  S22  1  0.66448350  0.86425650  0.28772700  1
  S  S23  1  0.55508300  0.26061000  0.12938600  1
  S  S24  1  0.16448350  0.63574350  0.78772700  1
  S  S25  1  0.05508300  0.23939000  0.62938600  1
  S  S26  1  0.43871450  0.76272550  0.86049100  1
  S  S27  1  0.43871450  0.23727450  0.36049100  1
  S  S28  1  0.32889700  0.14058400  0.69750000  1
  S  S29  1  0.32889700  0.85941600  0.19750000  1
  S  S30  1  0.16448350  0.36425650  0.28772700  1
  S  S31  1  0.05508300  0.76061000  0.12938600  1
