# generated using pymatgen
data_RbHF2
_symmetry_space_group_name_H-M   'P 1'
_cell_length_a   5.90886000
_cell_length_b   5.99701400
_cell_length_c   7.39146000
_cell_angle_alpha   90.00000000
_cell_angle_beta   90.00000000
_cell_angle_gamma   90.00000000
_symmetry_Int_Tables_number   1
_chemical_formula_structural   RbHF2
_chemical_formula_sum   'Rb4 H4 F8'
_cell_volume   261.92020016
_cell_formula_units_Z   4
loop_
 _symmetry_equiv_pos_site_id
 _symmetry_equiv_pos_as_xyz
  1  'x, y, z'
loop_
 _atom_site_type_symbol
 _atom_site_label
 _atom_site_symmetry_multiplicity
 _atom_site_fract_x
 _atom_site_fract_y
 _atom_site_fract_z
 _atom_site_occupancy
  Rb  Rb0  1  0.00000000  0.11843800  0.00000000  1
  Rb  Rb1  1  0.00000000  0.11843800  0.50000000  1
  Rb  Rb2  1  0.50000000  0.61843800  0.50000000  1
  Rb  Rb3  1  0.50000000  0.61843800  0.00000000  1
  H  H4  1  0.50378500  0.10985200  0.25000000  1
  H  H5  1  0.99621500  0.60985200  0.25000000  1
  H  H6  1  0.00378500  0.60985200  0.75000000  1
  H  H7  1  0.49621500  0.10985200  0.75000000  1
  F  F8  1  0.85223000  0.47892700  0.25000000  1
  F  F9  1  0.64777000  0.97892700  0.25000000  1
  F  F10  1  0.36042400  0.23778200  0.25000000  1
  F  F11  1  0.13957600  0.73778200  0.25000000  1
  F  F12  1  0.35223000  0.97892700  0.75000000  1
  F  F13  1  0.14777000  0.47892700  0.75000000  1
  F  F14  1  0.86042400  0.73778200  0.75000000  1
  F  F15  1  0.63957600  0.23778200  0.75000000  1
