# generated using pymatgen
data_Rb6Ta4S25
_symmetry_space_group_name_H-M   'P 1'
_cell_length_a   37.75782600
_cell_length_b   8.37332000
_cell_length_c   13.16524345
_cell_angle_alpha   90.00000000
_cell_angle_beta   99.29110226
_cell_angle_gamma   90.00000000
_symmetry_Int_Tables_number   1
_chemical_formula_structural   Rb6Ta4S25
_chemical_formula_sum   'Rb24 Ta16 S100'
_cell_volume   4107.69570725
_cell_formula_units_Z   4
loop_
 _symmetry_equiv_pos_site_id
 _symmetry_equiv_pos_as_xyz
  1  'x, y, z'
loop_
 _atom_site_type_symbol
 _atom_site_label
 _atom_site_symmetry_multiplicity
 _atom_site_fract_x
 _atom_site_fract_y
 _atom_site_fract_z
 _atom_site_occupancy
  Rb  Rb0  1  0.78915000  0.15015700  0.23556600  1
  Rb  Rb1  1  0.53417500  0.81432000  0.10551600  1
  Rb  Rb2  1  0.96582500  0.31432000  0.39448400  1
  Rb  Rb3  1  0.87575700  0.77781900  0.13561600  1
  Rb  Rb4  1  0.71085000  0.34984300  0.76443400  1
  Rb  Rb5  1  0.62424300  0.27781900  0.36438400  1
  Rb  Rb6  1  0.87575700  0.22218100  0.63561600  1
  Rb  Rb7  1  0.53417500  0.18568000  0.60551600  1
  Rb  Rb8  1  0.71085000  0.65015700  0.26443400  1
  Rb  Rb9  1  0.62424300  0.72218100  0.86438400  1
  Rb  Rb10  1  0.96582500  0.68568000  0.89448400  1
  Rb  Rb11  1  0.78915000  0.84984300  0.73556600  1
  Rb  Rb12  1  0.28915000  0.65015700  0.23556600  1
  Rb  Rb13  1  0.03417500  0.31432000  0.10551600  1
  Rb  Rb14  1  0.46582500  0.81432000  0.39448400  1
  Rb  Rb15  1  0.37575700  0.27781900  0.13561600  1
  Rb  Rb16  1  0.21085000  0.84984300  0.76443400  1
  Rb  Rb17  1  0.12424300  0.77781900  0.36438400  1
  Rb  Rb18  1  0.37575700  0.72218100  0.63561600  1
  Rb  Rb19  1  0.03417500  0.68568000  0.60551600  1
  Rb  Rb20  1  0.21085000  0.15015700  0.26443400  1
  Rb  Rb21  1  0.12424300  0.22218100  0.86438400  1
  Rb  Rb22  1  0.46582500  0.18568000  0.89448400  1
  Rb  Rb23  1  0.28915000  0.34984300  0.73556600  1
  Ta  Ta24  1  0.58798700  0.19581300  0.94227300  1
  Ta  Ta25  1  0.67785650  0.80672350  0.58776300  1
  Ta  Ta26  1  0.82214350  0.30672350  0.91223700  1
  Ta  Ta27  1  0.82214350  0.69327650  0.41223700  1
  Ta  Ta28  1  0.67785650  0.19327650  0.08776300  1
  Ta  Ta29  1  0.91201300  0.69581300  0.55772700  1
  Ta  Ta30  1  0.91201300  0.30418700  0.05772700  1
  Ta  Ta31  1  0.58798700  0.80418700  0.44227300  1
  Ta  Ta32  1  0.08798700  0.69581300  0.94227300  1
  Ta  Ta33  1  0.17785650  0.30672350  0.58776300  1
  Ta  Ta34  1  0.32214350  0.80672350  0.91223700  1
  Ta  Ta35  1  0.32214350  0.19327650  0.41223700  1
  Ta  Ta36  1  0.17785650  0.69327650  0.08776300  1
  Ta  Ta37  1  0.41201300  0.19581300  0.55772700  1
  Ta  Ta38  1  0.41201300  0.80418700  0.05772700  1
  Ta  Ta39  1  0.08798700  0.30418700  0.44227300  1
  S  S40  1  0.69094600  0.91548800  0.04349500  1
  S  S41  1  0.54519750  0.42852550  0.93530600  1
  S  S42  1  0.79918000  0.28399900  0.74530600  1
  S  S43  1  0.64255250  0.87163750  0.37447800  1
  S  S44  1  0.86459400  0.08179900  0.93732000  1
  S  S45  1  0.92237800  0.30774400  0.87613900  1
  S  S46  1  0.61291550  0.68419150  0.29861300  1
  S  S47  1  0.79918000  0.71600100  0.24530600  1
  S  S48  1  0.95480250  0.92852550  0.56469400  1
  S  S49  1  0.63540600  0.41820100  0.06268000  1
  S  S50  1  0.68510800  0.45708300  0.01427100  1
  S  S51  1  0.85744750  0.62836250  0.62552200  1
  S  S52  1  0.68510800  0.54291700  0.51427100  1
  S  S53  1  0.61895150  0.95835450  0.59603900  1
  S  S54  1  0.63540600  0.58179900  0.56268000  1
  S  S55  1  0.80905400  0.41548800  0.45650500  1
  S  S56  1  0.54519750  0.57147450  0.43530600  1
  S  S57  1  0.85744750  0.37163750  0.12552200  1
  S  S58  1  0.95585100  0.01807300  0.71353500  1
  S  S59  1  0.57762200  0.80774400  0.62386100  1
  S  S60  1  0.92237800  0.69225600  0.37613900  1
  S  S61  1  0.88104850  0.54164550  0.40396100  1
  S  S62  1  0.77268000  0.41480600  0.99239400  1
  S  S63  1  0.54414900  0.48192700  0.28646500  1
  S  S64  1  0.54942600  0.00706500  0.87002800  1
  S  S65  1  0.57762200  0.19225600  0.12386100  1
  S  S66  1  0.61291550  0.31580850  0.79861300  1
  S  S67  1  0.95585100  0.98192700  0.21353500  1
  S  S68  1  0.88708450  0.18419150  0.20138700  1
  S  S69  1  0.72732000  0.08519400  0.00760600  1
  S  S70  1  0.86459400  0.91820100  0.43732000  1
  S  S71  1  0.80905400  0.58451200  0.95650500  1
  S  S72  1  0.64255250  0.12836250  0.87447800  1
  S  S73  1  0.95057400  0.50706500  0.62997200  1
  S  S74  1  0.54942600  0.99293500  0.37002800  1
  S  S75  1  0.81489200  0.04291700  0.98572900  1
  S  S76  1  0.61895150  0.04164550  0.09603900  1
  S  S77  1  0.00000000  0.83750200  0.25000000  1
  S  S78  1  0.95480250  0.07147450  0.06469400  1
  S  S79  1  0.72732000  0.91480600  0.50760600  1
  S  S80  1  0.95057400  0.49293500  0.12997200  1
  S  S81  1  0.00000000  0.16249800  0.75000000  1
  S  S82  1  0.88104850  0.45835450  0.90396100  1
  S  S83  1  0.54414900  0.51807300  0.78646500  1
  S  S84  1  0.77268000  0.58519400  0.49239400  1
  S  S85  1  0.81489200  0.95708300  0.48572900  1
  S  S86  1  0.88708450  0.81580850  0.70138700  1
  S  S87  1  0.70082000  0.78399900  0.75469400  1
  S  S88  1  0.69094600  0.08451200  0.54349500  1
  S  S89  1  0.70082000  0.21600100  0.25469400  1
  S  S90  1  0.19094600  0.41548800  0.04349500  1
  S  S91  1  0.04519750  0.92852550  0.93530600  1
  S  S92  1  0.29918000  0.78399900  0.74530600  1
  S  S93  1  0.14255250  0.37163750  0.37447800  1
  S  S94  1  0.36459400  0.58179900  0.93732000  1
  S  S95  1  0.42237800  0.80774400  0.87613900  1
  S  S96  1  0.11291550  0.18419150  0.29861300  1
  S  S97  1  0.29918000  0.21600100  0.24530600  1
  S  S98  1  0.45480250  0.42852550  0.56469400  1
  S  S99  1  0.13540600  0.91820100  0.06268000  1
  S  S100  1  0.18510800  0.95708300  0.01427100  1
  S  S101  1  0.35744750  0.12836250  0.62552200  1
  S  S102  1  0.18510800  0.04291700  0.51427100  1
  S  S103  1  0.11895150  0.45835450  0.59603900  1
  S  S104  1  0.13540600  0.08179900  0.56268000  1
  S  S105  1  0.30905400  0.91548800  0.45650500  1
  S  S106  1  0.04519750  0.07147450  0.43530600  1
  S  S107  1  0.35744750  0.87163750  0.12552200  1
  S  S108  1  0.45585100  0.51807300  0.71353500  1
  S  S109  1  0.07762200  0.30774400  0.62386100  1
  S  S110  1  0.42237800  0.19225600  0.37613900  1
  S  S111  1  0.38104850  0.04164550  0.40396100  1
  S  S112  1  0.27268000  0.91480600  0.99239400  1
  S  S113  1  0.04414900  0.98192700  0.28646500  1
  S  S114  1  0.04942600  0.50706500  0.87002800  1
  S  S115  1  0.07762200  0.69225600  0.12386100  1
  S  S116  1  0.11291550  0.81580850  0.79861300  1
  S  S117  1  0.45585100  0.48192700  0.21353500  1
  S  S118  1  0.38708450  0.68419150  0.20138700  1
  S  S119  1  0.22732000  0.58519400  0.00760600  1
  S  S120  1  0.36459400  0.41820100  0.43732000  1
  S  S121  1  0.30905400  0.08451200  0.95650500  1
  S  S122  1  0.14255250  0.62836250  0.87447800  1
  S  S123  1  0.45057400  0.00706500  0.62997200  1
  S  S124  1  0.04942600  0.49293500  0.37002800  1
  S  S125  1  0.31489200  0.54291700  0.98572900  1
  S  S126  1  0.11895150  0.54164550  0.09603900  1
  S  S127  1  0.50000000  0.33750200  0.25000000  1
  S  S128  1  0.45480250  0.57147450  0.06469400  1
  S  S129  1  0.22732000  0.41480600  0.50760600  1
  S  S130  1  0.45057400  0.99293500  0.12997200  1
  S  S131  1  0.50000000  0.66249800  0.75000000  1
  S  S132  1  0.38104850  0.95835450  0.90396100  1
  S  S133  1  0.04414900  0.01807300  0.78646500  1
  S  S134  1  0.27268000  0.08519400  0.49239400  1
  S  S135  1  0.31489200  0.45708300  0.48572900  1
  S  S136  1  0.38708450  0.31580850  0.70138700  1
  S  S137  1  0.20082000  0.28399900  0.75469400  1
  S  S138  1  0.19094600  0.58451200  0.54349500  1
  S  S139  1  0.20082000  0.71600100  0.25469400  1
