# generated using pymatgen
data_Lu(HO)3
_symmetry_space_group_name_H-M   'P 1'
_cell_length_a   11.61689986
_cell_length_b   11.61689986
_cell_length_c   7.12885373
_cell_angle_alpha   90.00000000
_cell_angle_beta   90.00000000
_cell_angle_gamma   120.00000000
_symmetry_Int_Tables_number   1
_chemical_formula_structural   Lu(HO)3
_chemical_formula_sum   'Lu12 H36 O36'
_cell_volume   833.16463442
_cell_formula_units_Z   12
loop_
 _symmetry_equiv_pos_site_id
 _symmetry_equiv_pos_as_xyz
  1  'x, y, z'
loop_
 _atom_site_type_symbol
 _atom_site_label
 _atom_site_symmetry_multiplicity
 _atom_site_fract_x
 _atom_site_fract_y
 _atom_site_fract_z
 _atom_site_occupancy
  Lu  Lu0  1  0.33333333  0.16666667  0.16666667  1
  Lu  Lu1  1  0.00000000  0.00000000  0.50000000  1
  Lu  Lu2  1  0.83333333  0.66666667  0.16666667  1
  Lu  Lu3  1  0.83333333  0.16666667  0.16666667  1
  Lu  Lu4  1  0.00000000  0.50000000  0.50000000  1
  Lu  Lu5  1  0.66666667  0.33333333  0.83333333  1
  Lu  Lu6  1  0.50000000  0.00000000  0.50000000  1
  Lu  Lu7  1  0.50000000  0.50000000  0.50000000  1
  Lu  Lu8  1  0.66666667  0.83333333  0.83333333  1
  Lu  Lu9  1  0.33333333  0.66666667  0.16666667  1
  Lu  Lu10  1  0.16666667  0.33333333  0.83333333  1
  Lu  Lu11  1  0.16666667  0.83333333  0.83333333  1
  H  H12  1  0.79592933  0.03386367  0.59152867  1
  H  H13  1  0.20407067  0.96613633  0.40847133  1
  H  H14  1  0.24289267  0.80514833  0.48586833  1
  H  H15  1  0.75710733  0.19485167  0.51413167  1
  H  H16  1  0.80514833  0.56225567  0.51413167  1
  H  H17  1  0.19485167  0.43774433  0.48586833  1
  H  H18  1  0.03386367  0.23793433  0.40847133  1
  H  H19  1  0.96613633  0.76206567  0.59152867  1
  H  H20  1  0.76206567  0.79592933  0.40847133  1
  H  H21  1  0.23793433  0.20407067  0.59152867  1
  H  H22  1  0.43774433  0.24289267  0.51413167  1
  H  H23  1  0.56225567  0.75710733  0.48586833  1
  H  H24  1  0.46259600  0.36719700  0.92486200  1
  H  H25  1  0.87073733  0.29946967  0.74180467  1
  H  H26  1  0.90955933  0.13848167  0.81920167  1
  H  H27  1  0.42377400  0.52818500  0.84746500  1
  H  H28  1  0.47181500  0.89558900  0.84746500  1
  H  H29  1  0.86151833  0.77107767  0.81920167  1
  H  H30  1  0.70053033  0.57126767  0.74180467  1
  H  H31  1  0.63280300  0.09539900  0.92486200  1
  H  H32  1  0.42873233  0.12926267  0.74180467  1
  H  H33  1  0.90460100  0.53740400  0.92486200  1
  H  H34  1  0.10441100  0.57622600  0.84746500  1
  H  H35  1  0.22892233  0.09044067  0.81920167  1
  H  H36  1  0.12926267  0.70053033  0.25819533  1
  H  H37  1  0.53740400  0.63280300  0.07513800  1
  H  H38  1  0.57622600  0.47181500  0.15253500  1
  H  H39  1  0.09044067  0.86151833  0.18079833  1
  H  H40  1  0.13848167  0.22892233  0.18079833  1
  H  H41  1  0.52818500  0.10441100  0.15253500  1
  H  H42  1  0.36719700  0.90460100  0.07513800  1
  H  H43  1  0.29946967  0.42873233  0.25819533  1
  H  H44  1  0.09539900  0.46259600  0.07513800  1
  H  H45  1  0.57126767  0.87073733  0.25819533  1
  H  H46  1  0.77107767  0.90955933  0.18079833  1
  H  H47  1  0.89558900  0.42377400  0.15253500  1
  O  O48  1  0.83673533  0.99405667  0.67288967  1
  O  O49  1  0.16326467  0.00594333  0.32711033  1
  O  O50  1  0.28369867  0.88666233  0.56590933  1
  O  O51  1  0.71630133  0.11333767  0.43409067  1
  O  O52  1  0.88666233  0.60296367  0.43409067  1
  O  O53  1  0.11333767  0.39703633  0.56590933  1
  O  O54  1  0.99405667  0.15732133  0.32711033  1
  O  O55  1  0.00594333  0.84267867  0.67288967  1
  O  O56  1  0.84267867  0.83673533  0.32711033  1
  O  O57  1  0.15732133  0.16326467  0.67288967  1
  O  O58  1  0.39703633  0.28369867  0.43409067  1
  O  O59  1  0.60296367  0.71630133  0.56590933  1
  O  O60  1  0.50340200  0.32739000  0.00622300  1
  O  O61  1  0.82993133  0.33927667  0.66044367  1
  O  O62  1  0.95036533  0.21999567  0.89924267  1
  O  O63  1  0.38296800  0.44667100  0.76742400  1
  O  O64  1  0.55332900  0.93629700  0.76742400  1
  O  O65  1  0.78000433  0.73036967  0.89924267  1
  O  O66  1  0.66072333  0.49065467  0.66044367  1
  O  O67  1  0.67261000  0.17601200  0.00622300  1
  O  O68  1  0.50934533  0.17006867  0.66044367  1
  O  O69  1  0.82398800  0.49659800  0.00622300  1
  O  O70  1  0.06370300  0.61703200  0.76742400  1
  O  O71  1  0.26963033  0.04963467  0.89924267  1
  O  O72  1  0.17006867  0.66072333  0.33955633  1
  O  O73  1  0.49659800  0.67261000  0.99377700  1
  O  O74  1  0.61703200  0.55332900  0.23257600  1
  O  O75  1  0.04963467  0.78000433  0.10075733  1
  O  O76  1  0.21999567  0.26963033  0.10075733  1
  O  O77  1  0.44667100  0.06370300  0.23257600  1
  O  O78  1  0.32739000  0.82398800  0.99377700  1
  O  O79  1  0.33927667  0.50934533  0.33955633  1
  O  O80  1  0.17601200  0.50340200  0.99377700  1
  O  O81  1  0.49065467  0.82993133  0.33955633  1
  O  O82  1  0.73036967  0.95036533  0.10075733  1
  O  O83  1  0.93629700  0.38296800  0.23257600  1
