# generated using pymatgen
data_NdH12S2NO12
_symmetry_space_group_name_H-M   'P 1'
_cell_length_a   6.73385900
_cell_length_b   19.23074500
_cell_length_c   8.84429917
_cell_angle_alpha   90.00000000
_cell_angle_beta   97.54488102
_cell_angle_gamma   90.00000000
_symmetry_Int_Tables_number   1
_chemical_formula_structural   NdH12S2NO12
_chemical_formula_sum   'Nd4 H48 S8 N4 O48'
_cell_volume   1135.39557137
_cell_formula_units_Z   4
loop_
 _symmetry_equiv_pos_site_id
 _symmetry_equiv_pos_as_xyz
  1  'x, y, z'
loop_
 _atom_site_type_symbol
 _atom_site_label
 _atom_site_symmetry_multiplicity
 _atom_site_fract_x
 _atom_site_fract_y
 _atom_site_fract_z
 _atom_site_occupancy
  Nd  Nd0  1  0.14405000  0.87699100  0.28825300  1
  Nd  Nd1  1  0.85595000  0.12300900  0.71174700  1
  Nd  Nd2  1  0.85595000  0.37699100  0.21174700  1
  Nd  Nd3  1  0.14405000  0.62300900  0.78825300  1
  H  H4  1  0.35029000  0.18019900  0.31636100  1
  H  H5  1  0.48231300  0.27556500  0.96605400  1
  H  H6  1  0.17728400  0.02844100  0.43389300  1
  H  H7  1  0.71686600  0.06563500  0.38303700  1
  H  H8  1  0.74551400  0.53682400  0.22615300  1
  H  H9  1  0.12742000  0.58413100  0.45140200  1
  H  H10  1  0.48231300  0.22443500  0.46605400  1
  H  H11  1  0.81237100  0.13697800  0.34944900  1
  H  H12  1  0.17728400  0.47155900  0.93389300  1
  H  H13  1  0.18762900  0.86302200  0.65055100  1
  H  H14  1  0.18762900  0.63697800  0.15055100  1
  H  H15  1  0.69031600  0.76630500  0.15911600  1
  H  H16  1  0.28553900  0.52937700  0.52038400  1
  H  H17  1  0.71686600  0.43436500  0.88303700  1
  H  H18  1  0.69031600  0.73369500  0.65911600  1
  H  H19  1  0.12742000  0.91586900  0.95140200  1
  H  H20  1  0.23819500  0.21007600  0.46671400  1
  H  H21  1  0.82271600  0.97155900  0.56610700  1
  H  H22  1  0.28553900  0.97062300  0.02038400  1
  H  H23  1  0.25448600  0.03682400  0.27384700  1
  H  H24  1  0.74551400  0.96317600  0.72615300  1
  H  H25  1  0.23819500  0.28992400  0.96671400  1
  H  H26  1  0.30968400  0.23369500  0.84088400  1
  H  H27  1  0.28313400  0.56563500  0.11696300  1
  H  H28  1  0.48608000  0.41260500  0.66691300  1
  H  H29  1  0.64971000  0.81980100  0.68363900  1
  H  H30  1  0.87258000  0.41586900  0.54859800  1
  H  H31  1  0.48608000  0.08739500  0.16691300  1
  H  H32  1  0.25448600  0.46317600  0.77384700  1
  H  H33  1  0.64971000  0.68019900  0.18363900  1
  H  H34  1  0.51392000  0.91260500  0.83308700  1
  H  H35  1  0.71446100  0.47062300  0.47961600  1
  H  H36  1  0.70662900  0.61292400  0.43633400  1
  H  H37  1  0.51768700  0.72443500  0.03394600  1
  H  H38  1  0.51392000  0.58739500  0.33308700  1
  H  H39  1  0.29337100  0.38707600  0.56366600  1
  H  H40  1  0.35029000  0.31980100  0.81636100  1
  H  H41  1  0.82271600  0.52844100  0.06610700  1
  H  H42  1  0.70662900  0.88707600  0.93633400  1
  H  H43  1  0.28313400  0.93436500  0.61696300  1
  H  H44  1  0.30968400  0.26630500  0.34088400  1
  H  H45  1  0.51768700  0.77556500  0.53394600  1
  H  H46  1  0.29337100  0.11292400  0.06366600  1
  H  H47  1  0.87258000  0.08413100  0.04859800  1
  H  H48  1  0.71446100  0.02937700  0.97961600  1
  H  H49  1  0.81237100  0.36302200  0.84944900  1
  H  H50  1  0.76180500  0.78992400  0.53328600  1
  H  H51  1  0.76180500  0.71007600  0.03328600  1
  S  S52  1  0.31547400  0.42395000  0.23730000  1
  S  S53  1  0.87895700  0.27705300  0.58561100  1
  S  S54  1  0.68452600  0.92395000  0.26270000  1
  S  S55  1  0.12104300  0.77705300  0.91438900  1
  S  S56  1  0.68452600  0.57605000  0.76270000  1
  S  S57  1  0.87895700  0.22294700  0.08561100  1
  S  S58  1  0.12104300  0.72294700  0.41438900  1
  S  S59  1  0.31547400  0.07605000  0.73730000  1
  N  N60  1  0.65412600  0.77997600  0.60361100  1
  N  N61  1  0.34587400  0.22002400  0.39638900  1
  N  N62  1  0.65412600  0.72002400  0.10361100  1
  N  N63  1  0.34587400  0.27997600  0.89638900  1
  O  O64  1  0.30596700  0.73833600  0.88580200  1
  O  O65  1  0.35591400  0.10920600  0.17132300  1
  O  O66  1  0.09272000  0.84106200  0.82071600  1
  O  O67  1  0.13369800  0.79509500  0.07808200  1
  O  O68  1  0.24917300  0.88867700  0.57084100  1
  O  O69  1  0.09272000  0.65893800  0.32071600  1
  O  O70  1  0.79023700  0.88954500  0.14263600  1
  O  O71  1  0.50553400  0.61761900  0.78567300  1
  O  O72  1  0.64408600  0.60920600  0.32867700  1
  O  O73  1  0.20976300  0.38954500  0.35736400  1
  O  O74  1  0.49446600  0.11761900  0.71432700  1
  O  O75  1  0.75082700  0.11132300  0.42915900  1
  O  O76  1  0.49446600  0.38238100  0.21432700  1
  O  O77  1  0.50553400  0.88238100  0.28567300  1
  O  O78  1  0.82281800  0.05880200  0.95373400  1
  O  O79  1  0.69403300  0.26166400  0.11419800  1
  O  O80  1  0.90728000  0.34106200  0.67928400  1
  O  O81  1  0.20976300  0.11045500  0.85736400  1
  O  O82  1  0.79440000  0.50196700  0.15695800  1
  O  O83  1  0.20560000  0.49803300  0.84304200  1
  O  O84  1  0.79023700  0.61045500  0.64263600  1
  O  O85  1  0.16508500  0.07771500  0.59600600  1
  O  O86  1  0.13369800  0.70490500  0.57808200  1
  O  O87  1  0.24917300  0.61132300  0.07084100  1
  O  O88  1  0.35591400  0.39079400  0.67132300  1
  O  O89  1  0.17718200  0.94119800  0.04626600  1
  O  O90  1  0.79440000  0.99803300  0.65695800  1
  O  O91  1  0.04927900  0.27294600  0.12634400  1
  O  O92  1  0.69403300  0.23833600  0.61419800  1
  O  O93  1  0.95072100  0.77294600  0.37365600  1
  O  O94  1  0.37073300  0.49634800  0.28082000  1
  O  O95  1  0.64408600  0.89079400  0.82867700  1
  O  O96  1  0.37073300  0.00365200  0.78082000  1
  O  O97  1  0.75082700  0.38867700  0.92915900  1
  O  O98  1  0.17718200  0.55880200  0.54626600  1
  O  O99  1  0.04927900  0.22705400  0.62634400  1
  O  O100  1  0.95072100  0.72705400  0.87365600  1
  O  O101  1  0.62926700  0.50365200  0.71918000  1
  O  O102  1  0.16508500  0.42228500  0.09600600  1
  O  O103  1  0.20560000  0.00196700  0.34304200  1
  O  O104  1  0.62926700  0.99634800  0.21918000  1
  O  O105  1  0.90728000  0.15893800  0.17928400  1
  O  O106  1  0.86630200  0.20490500  0.92191800  1
  O  O107  1  0.86630200  0.29509500  0.42191800  1
  O  O108  1  0.82281800  0.44119800  0.45373400  1
  O  O109  1  0.83491500  0.57771500  0.90399400  1
  O  O110  1  0.30596700  0.76166400  0.38580200  1
  O  O111  1  0.83491500  0.92228500  0.40399400  1
