# generated using pymatgen
data_RbTaPS6
_symmetry_space_group_name_H-M   'P 1'
_cell_length_a   14.45882700
_cell_length_b   18.03059600
_cell_length_c   18.32488429
_cell_angle_alpha   90.00000000
_cell_angle_beta   122.40255885
_cell_angle_gamma   90.00000000
_symmetry_Int_Tables_number   1
_chemical_formula_structural   RbTaPS6
_chemical_formula_sum   'Rb16 Ta16 P16 S96'
_cell_volume   4033.51084350
_cell_formula_units_Z   16
loop_
 _symmetry_equiv_pos_site_id
 _symmetry_equiv_pos_as_xyz
  1  'x, y, z'
loop_
 _atom_site_type_symbol
 _atom_site_label
 _atom_site_symmetry_multiplicity
 _atom_site_fract_x
 _atom_site_fract_y
 _atom_site_fract_z
 _atom_site_occupancy
  Rb  Rb0  1  0.45797600  0.37419000  0.51109700  1
  Rb  Rb1  1  0.54202400  0.62581000  0.48890300  1
  Rb  Rb2  1  0.69270700  0.93240100  0.54457700  1
  Rb  Rb3  1  0.30729300  0.43240100  0.95542300  1
  Rb  Rb4  1  0.13978200  0.48458200  0.62878800  1
  Rb  Rb5  1  0.83291400  0.32757600  0.97721800  1
  Rb  Rb6  1  0.16708600  0.67242400  0.02278200  1
  Rb  Rb7  1  0.86021800  0.98458200  0.87121200  1
  Rb  Rb8  1  0.13978200  0.01541800  0.12878800  1
  Rb  Rb9  1  0.16708600  0.82757600  0.52278200  1
  Rb  Rb10  1  0.54202400  0.87419000  0.98890300  1
  Rb  Rb11  1  0.69270700  0.56759900  0.04457700  1
  Rb  Rb12  1  0.30729300  0.06759900  0.45542300  1
  Rb  Rb13  1  0.86021800  0.51541800  0.37121200  1
  Rb  Rb14  1  0.83291400  0.17242400  0.47721800  1
  Rb  Rb15  1  0.45797600  0.12581000  0.01109700  1
  Ta  Ta16  1  0.49440400  0.38785900  0.24623400  1
  Ta  Ta17  1  0.50559600  0.88785900  0.25376600  1
  Ta  Ta18  1  0.97680500  0.28702700  0.26936800  1
  Ta  Ta19  1  0.16323600  0.87784600  0.83553500  1
  Ta  Ta20  1  0.83676400  0.12215400  0.16446500  1
  Ta  Ta21  1  0.50559600  0.61214100  0.75376600  1
  Ta  Ta22  1  0.66802500  0.72310700  0.30519100  1
  Ta  Ta23  1  0.66802500  0.77689300  0.80519100  1
  Ta  Ta24  1  0.02319500  0.71297300  0.73063200  1
  Ta  Ta25  1  0.33197500  0.27689300  0.69480900  1
  Ta  Ta26  1  0.83676400  0.37784600  0.66446500  1
  Ta  Ta27  1  0.02319500  0.78702700  0.23063200  1
  Ta  Ta28  1  0.49440400  0.11214100  0.74623400  1
  Ta  Ta29  1  0.16323600  0.62215400  0.33553500  1
  Ta  Ta30  1  0.33197500  0.22310700  0.19480900  1
  Ta  Ta31  1  0.97680500  0.21297300  0.76936800  1
  P  P32  1  0.47513800  0.55866200  0.16768700  1
  P  P33  1  0.47513800  0.94133800  0.66768700  1
  P  P34  1  0.14459500  0.21242100  0.98464800  1
  P  P35  1  0.52486200  0.44133800  0.83231300  1
  P  P36  1  0.52486200  0.05866200  0.33231300  1
  P  P37  1  0.29741900  0.61037000  0.54861700  1
  P  P38  1  0.14459500  0.28757900  0.48464800  1
  P  P39  1  0.70258100  0.11037000  0.95138300  1
  P  P40  1  0.70258100  0.38963000  0.45138300  1
  P  P41  1  0.85540500  0.71242100  0.51535200  1
  P  P42  1  0.01612100  0.95517500  0.30217700  1
  P  P43  1  0.98387900  0.45517500  0.19782300  1
  P  P44  1  0.98387900  0.04482500  0.69782300  1
  P  P45  1  0.85540500  0.78757900  0.01535200  1
  P  P46  1  0.29741900  0.88963000  0.04861700  1
  P  P47  1  0.01612100  0.54482500  0.80217700  1
  S  S48  1  0.45551800  0.20003400  0.64410600  1
  S  S49  1  0.47053000  0.28620500  0.33322200  1
  S  S50  1  0.27426800  0.95744400  0.82898300  1
  S  S51  1  0.98109500  0.55062900  0.26133700  1
  S  S52  1  0.16343200  0.21133700  0.57506400  1
  S  S53  1  0.69948800  0.34657800  0.34611900  1
  S  S54  1  0.84540100  0.44098600  0.54181600  1
  S  S55  1  0.49541700  0.13627800  0.23750200  1
  S  S56  1  0.78871000  0.26505300  0.72554700  1
  S  S57  1  0.30051200  0.65342200  0.65388100  1
  S  S58  1  0.16829400  0.25647000  0.89198900  1
  S  S59  1  0.99099100  0.33245700  0.41503700  1
  S  S60  1  0.59791800  0.47839100  0.21145500  1
  S  S61  1  0.01543000  0.71646100  0.32982300  1
  S  S62  1  0.14740200  0.89152200  0.31623200  1
  S  S63  1  0.72573200  0.45744400  0.67101700  1
  S  S64  1  0.78871000  0.23494700  0.22554700  1
  S  S65  1  0.43332400  0.54302700  0.60491800  1
  S  S66  1  0.45551800  0.29996600  0.14410600  1
  S  S67  1  0.26941700  0.36033600  0.56470700  1
  S  S68  1  0.56667600  0.04302700  0.89508200  1
  S  S69  1  0.26941700  0.13966400  0.06470700  1
  S  S70  1  0.52947000  0.71379500  0.66677800  1
  S  S71  1  0.69734100  0.30794000  0.52930000  1
  S  S72  1  0.01890500  0.44937100  0.73866300  1
  S  S73  1  0.84540100  0.05901400  0.04181600  1
  S  S74  1  0.57153200  0.10192600  0.44658800  1
  S  S75  1  0.27426800  0.54255600  0.32898300  1
  S  S76  1  0.64060200  0.98917800  0.33116100  1
  S  S77  1  0.10694800  0.11650400  0.78366800  1
  S  S78  1  0.26648600  0.16138500  0.26155200  1
  S  S79  1  0.56667600  0.45697300  0.39508200  1
  S  S80  1  0.02657400  0.97916200  0.41153800  1
  S  S81  1  0.69734100  0.19206000  0.02930000  1
  S  S82  1  0.47053000  0.21379500  0.83322200  1
  S  S83  1  0.85259800  0.10847800  0.68376800  1
  S  S84  1  0.59791800  0.02160900  0.71145500  1
  S  S85  1  0.21129000  0.76505300  0.77445300  1
  S  S86  1  0.83656800  0.71133700  0.92493600  1
  S  S87  1  0.54448200  0.79996600  0.35589400  1
  S  S88  1  0.30265900  0.80794000  0.97070000  1
  S  S89  1  0.73351400  0.66138500  0.23844800  1
  S  S90  1  0.00900900  0.66754300  0.58496300  1
  S  S91  1  0.42846800  0.60192600  0.05341200  1
  S  S92  1  0.30051200  0.84657800  0.15388100  1
  S  S93  1  0.98457000  0.21646100  0.17017700  1
  S  S94  1  0.16343200  0.28866300  0.07506400  1
  S  S95  1  0.50458300  0.86372200  0.76249800  1
  S  S96  1  0.69948800  0.15342200  0.84611900  1
  S  S97  1  0.73058300  0.86033600  0.93529300  1
  S  S98  1  0.35939800  0.48917800  0.16883900  1
  S  S99  1  0.57153200  0.39807400  0.94658800  1
  S  S100  1  0.64060200  0.51082200  0.83116100  1
  S  S101  1  0.43332400  0.95697300  0.10491800  1
  S  S102  1  0.15459900  0.55901400  0.45818400  1
  S  S103  1  0.30265900  0.69206000  0.47070000  1
  S  S104  1  0.97342600  0.02083800  0.58846200  1
  S  S105  1  0.54448200  0.70003400  0.85589400  1
  S  S106  1  0.15459900  0.94098600  0.95818400  1
  S  S107  1  0.99099100  0.16754300  0.91503700  1
  S  S108  1  0.52947000  0.78620500  0.16677800  1
  S  S109  1  0.66641200  0.85014300  0.24095500  1
  S  S110  1  0.42846800  0.89807400  0.55341200  1
  S  S111  1  0.73351400  0.83861500  0.73844800  1
  S  S112  1  0.83170600  0.75647000  0.60801100  1
  S  S113  1  0.10694800  0.38349600  0.28366800  1
  S  S114  1  0.35939800  0.01082200  0.66883900  1
  S  S115  1  0.08421700  0.83008800  0.68465200  1
  S  S116  1  0.40208200  0.52160900  0.78854500  1
  S  S117  1  0.33358800  0.35014300  0.25904500  1
  S  S118  1  0.21129000  0.73494700  0.27445300  1
  S  S119  1  0.14740200  0.60847800  0.81623200  1
  S  S120  1  0.08421700  0.66991200  0.18465200  1
  S  S121  1  0.89305200  0.61650400  0.71633200  1
  S  S122  1  0.66641200  0.64985700  0.74095500  1
  S  S123  1  0.91578300  0.33008800  0.81534800  1
  S  S124  1  0.98109500  0.94937100  0.76133700  1
  S  S125  1  0.01890500  0.05062900  0.23866300  1
  S  S126  1  0.26648600  0.33861500  0.76155200  1
  S  S127  1  0.98457000  0.28353900  0.67017700  1
  S  S128  1  0.83656800  0.78866300  0.42493600  1
  S  S129  1  0.91578300  0.16991200  0.31534800  1
  S  S130  1  0.49541700  0.36372200  0.73750200  1
  S  S131  1  0.73058300  0.63966400  0.43529300  1
  S  S132  1  0.40208200  0.97839100  0.28854500  1
  S  S133  1  0.33358800  0.14985700  0.75904500  1
  S  S134  1  0.97342600  0.47916200  0.08846200  1
  S  S135  1  0.89305200  0.88349600  0.21633200  1
  S  S136  1  0.00900900  0.83245700  0.08496300  1
  S  S137  1  0.02657400  0.52083800  0.91153800  1
  S  S138  1  0.16829400  0.24353000  0.39198900  1
  S  S139  1  0.83170600  0.74353000  0.10801100  1
  S  S140  1  0.85259800  0.39152200  0.18376800  1
  S  S141  1  0.01543000  0.78353900  0.82982300  1
  S  S142  1  0.50458300  0.63627800  0.26249800  1
  S  S143  1  0.72573200  0.04255600  0.17101700  1
