# generated using pymatgen
data_Si4H2O9
_symmetry_space_group_name_H-M   'P 1'
_cell_length_a   10.77483800
_cell_length_b   10.77447600
_cell_length_c   15.73186293
_cell_angle_alpha   90.00000000
_cell_angle_beta   109.96772594
_cell_angle_gamma   90.00000000
_symmetry_Int_Tables_number   1
_chemical_formula_structural   Si4H2O9
_chemical_formula_sum   'Si32 H16 O72'
_cell_volume   1716.57126699
_cell_formula_units_Z   8
loop_
 _symmetry_equiv_pos_site_id
 _symmetry_equiv_pos_as_xyz
  1  'x, y, z'
loop_
 _atom_site_type_symbol
 _atom_site_label
 _atom_site_symmetry_multiplicity
 _atom_site_fract_x
 _atom_site_fract_y
 _atom_site_fract_z
 _atom_site_occupancy
  Si  Si0  1  0.50000000  0.16938400  0.75000000  1
  Si  Si1  1  0.50000000  0.58083900  0.75000000  1
  Si  Si2  1  0.50000000  0.41916100  0.25000000  1
  Si  Si3  1  0.50000000  0.83061600  0.25000000  1
  Si  Si4  1  0.20623500  0.87540500  0.75096600  1
  Si  Si5  1  0.79376500  0.87540500  0.74903400  1
  Si  Si6  1  0.20623500  0.12459500  0.25096600  1
  Si  Si7  1  0.79376500  0.12459500  0.24903400  1
  Si  Si8  1  0.47333800  0.77558400  0.89562600  1
  Si  Si9  1  0.67634250  0.97781550  0.89703500  1
  Si  Si10  1  0.32365750  0.02218450  0.10296500  1
  Si  Si11  1  0.52666200  0.22441600  0.10437400  1
  Si  Si12  1  0.52666200  0.77558400  0.60437400  1
  Si  Si13  1  0.32365750  0.97781550  0.60296500  1
  Si  Si14  1  0.67634250  0.02218450  0.39703500  1
  Si  Si15  1  0.47333800  0.22441600  0.39562600  1
  Si  Si16  1  0.00000000  0.66938400  0.75000000  1
  Si  Si17  1  0.00000000  0.08083900  0.75000000  1
  Si  Si18  1  0.00000000  0.91916100  0.25000000  1
  Si  Si19  1  0.00000000  0.33061600  0.25000000  1
  Si  Si20  1  0.70623500  0.37540500  0.75096600  1
  Si  Si21  1  0.29376500  0.37540500  0.74903400  1
  Si  Si22  1  0.70623500  0.62459500  0.25096600  1
  Si  Si23  1  0.29376500  0.62459500  0.24903400  1
  Si  Si24  1  0.97333800  0.27558400  0.89562600  1
  Si  Si25  1  0.17634250  0.47781550  0.89703500  1
  Si  Si26  1  0.82365750  0.52218450  0.10296500  1
  Si  Si27  1  0.02666200  0.72441600  0.10437400  1
  Si  Si28  1  0.02666200  0.27558400  0.60437400  1
  Si  Si29  1  0.82365750  0.47781550  0.60296500  1
  Si  Si30  1  0.17634250  0.52218450  0.39703500  1
  Si  Si31  1  0.97333800  0.72441600  0.39562600  1
  H  H32  1  0.50545350  0.73294150  0.04452600  1
  H  H33  1  0.84248300  0.10187500  0.98098700  1
  H  H34  1  0.15751700  0.89812500  0.01901300  1
  H  H35  1  0.49454650  0.26705850  0.95547400  1
  H  H36  1  0.49454650  0.73294150  0.45547400  1
  H  H37  1  0.15751700  0.10187500  0.51901300  1
  H  H38  1  0.84248300  0.89812500  0.48098700  1
  H  H39  1  0.50545350  0.26705850  0.54452600  1
  H  H40  1  0.00545350  0.23294150  0.04452600  1
  H  H41  1  0.34248300  0.60187500  0.98098700  1
  H  H42  1  0.65751700  0.39812500  0.01901300  1
  H  H43  1  0.99454650  0.76705850  0.95547400  1
  H  H44  1  0.99454650  0.23294150  0.45547400  1
  H  H45  1  0.65751700  0.60187500  0.51901300  1
  H  H46  1  0.34248300  0.39812500  0.48098700  1
  H  H47  1  0.00545350  0.76705850  0.54452600  1
  O  O48  1  0.45160600  0.70932700  0.98376700  1
  O  O49  1  0.78075350  0.03674850  0.98681900  1
  O  O50  1  0.21924650  0.96325150  0.01318100  1
  O  O51  1  0.54839400  0.29067300  0.01623300  1
  O  O52  1  0.54839400  0.70932700  0.51623300  1
  O  O53  1  0.21924650  0.03674850  0.51318100  1
  O  O54  1  0.78075350  0.96325150  0.48681900  1
  O  O55  1  0.45160600  0.29067300  0.48376700  1
  O  O56  1  0.51010500  0.33180600  0.33594000  1
  O  O57  1  0.57501050  0.91641850  0.33652600  1
  O  O58  1  0.42498950  0.08358150  0.66347400  1
  O  O59  1  0.48989500  0.66819400  0.66406000  1
  O  O60  1  0.33457700  0.15881500  0.33758300  1
  O  O61  1  0.74844650  0.09407450  0.33480400  1
  O  O62  1  0.25155350  0.90592550  0.66519600  1
  O  O63  1  0.66542300  0.84118500  0.66241700  1
  O  O64  1  0.48989500  0.33180600  0.16406000  1
  O  O65  1  0.42498950  0.91641850  0.16347400  1
  O  O66  1  0.57501050  0.08358150  0.83652600  1
  O  O67  1  0.51010500  0.66819400  0.83594000  1
  O  O68  1  0.25155350  0.09407450  0.16519600  1
  O  O69  1  0.66542300  0.15881500  0.16241700  1
  O  O70  1  0.33457700  0.84118500  0.83758300  1
  O  O71  1  0.74844650  0.90592550  0.83480400  1
  O  O72  1  0.40935900  0.87626700  0.56917800  1
  O  O73  1  0.59064100  0.12373300  0.43082200  1
  O  O74  1  0.59064100  0.87626700  0.93082200  1
  O  O75  1  0.40935900  0.12373300  0.06917800  1
  O  O76  1  0.60433050  0.74274450  0.22210800  1
  O  O77  1  0.86852800  0.00589800  0.22427600  1
  O  O78  1  0.13147200  0.99410200  0.77572400  1
  O  O79  1  0.39566950  0.25725550  0.77789200  1
  O  O80  1  0.39566950  0.74274450  0.27789200  1
  O  O81  1  0.13147200  0.00589800  0.27572400  1
  O  O82  1  0.86852800  0.99410200  0.72427600  1
  O  O83  1  0.60433050  0.25725550  0.72210800  1
  O  O84  1  0.95160600  0.20932700  0.98376700  1
  O  O85  1  0.28075350  0.53674850  0.98681900  1
  O  O86  1  0.71924650  0.46325150  0.01318100  1
  O  O87  1  0.04839400  0.79067300  0.01623300  1
  O  O88  1  0.04839400  0.20932700  0.51623300  1
  O  O89  1  0.71924650  0.53674850  0.51318100  1
  O  O90  1  0.28075350  0.46325150  0.48681900  1
  O  O91  1  0.95160600  0.79067300  0.48376700  1
  O  O92  1  0.01010500  0.83180600  0.33594000  1
  O  O93  1  0.07501050  0.41641850  0.33652600  1
  O  O94  1  0.92498950  0.58358150  0.66347400  1
  O  O95  1  0.98989500  0.16819400  0.66406000  1
  O  O96  1  0.83457700  0.65881500  0.33758300  1
  O  O97  1  0.24844650  0.59407450  0.33480400  1
  O  O98  1  0.75155350  0.40592550  0.66519600  1
  O  O99  1  0.16542300  0.34118500  0.66241700  1
  O  O100  1  0.98989500  0.83180600  0.16406000  1
  O  O101  1  0.92498950  0.41641850  0.16347400  1
  O  O102  1  0.07501050  0.58358150  0.83652600  1
  O  O103  1  0.01010500  0.16819400  0.83594000  1
  O  O104  1  0.75155350  0.59407450  0.16519600  1
  O  O105  1  0.16542300  0.65881500  0.16241700  1
  O  O106  1  0.83457700  0.34118500  0.83758300  1
  O  O107  1  0.24844650  0.40592550  0.83480400  1
  O  O108  1  0.90935900  0.37626700  0.56917800  1
  O  O109  1  0.09064100  0.62373300  0.43082200  1
  O  O110  1  0.09064100  0.37626700  0.93082200  1
  O  O111  1  0.90935900  0.62373300  0.06917800  1
  O  O112  1  0.10433050  0.24274450  0.22210800  1
  O  O113  1  0.36852800  0.50589800  0.22427600  1
  O  O114  1  0.63147200  0.49410200  0.77572400  1
  O  O115  1  0.89566950  0.75725550  0.77789200  1
  O  O116  1  0.89566950  0.24274450  0.27789200  1
  O  O117  1  0.63147200  0.50589800  0.27572400  1
  O  O118  1  0.36852800  0.49410200  0.72427600  1
  O  O119  1  0.10433050  0.75725550  0.72210800  1
