# generated using pymatgen
data_Sr(H8O5)2
_symmetry_space_group_name_H-M   'P 1'
_cell_length_a   8.93189200
_cell_length_b   9.41638600
_cell_length_c   11.71760720
_cell_angle_alpha   90.00000000
_cell_angle_beta   91.06631807
_cell_angle_gamma   90.00000000
_symmetry_Int_Tables_number   1
_chemical_formula_structural   Sr(H8O5)2
_chemical_formula_sum   'Sr4 H64 O40'
_cell_volume   985.35207605
_cell_formula_units_Z   4
loop_
 _symmetry_equiv_pos_site_id
 _symmetry_equiv_pos_as_xyz
  1  'x, y, z'
loop_
 _atom_site_type_symbol
 _atom_site_label
 _atom_site_symmetry_multiplicity
 _atom_site_fract_x
 _atom_site_fract_y
 _atom_site_fract_z
 _atom_site_occupancy
  Sr  Sr0  1  0.01467950  0.01196450  0.74307800  1
  Sr  Sr1  1  0.01467950  0.98803550  0.24307800  1
  Sr  Sr2  1  0.51467950  0.51196450  0.74307800  1
  Sr  Sr3  1  0.51467950  0.48803550  0.24307800  1
  H  H4  1  0.32825000  0.25384000  0.63940600  1
  H  H5  1  0.44592950  0.28409950  0.54540100  1
  H  H6  1  0.55696000  0.82293900  0.64960300  1
  H  H7  1  0.57512750  0.72343450  0.54088200  1
  H  H8  1  0.76655500  0.16179200  0.58769200  1
  H  H9  1  0.65469700  0.05768700  0.65179300  1
  H  H10  1  0.20843150  0.83369950  0.64100400  1
  H  H11  1  0.36167700  0.95176300  0.65262300  1
  H  H12  1  0.76655500  0.83820800  0.08769200  1
  H  H13  1  0.65469700  0.94231300  0.15179300  1
  H  H14  1  0.36167700  0.04823700  0.15262300  1
  H  H15  1  0.20843150  0.16630050  0.14100400  1
  H  H16  1  0.55696000  0.17706100  0.14960300  1
  H  H17  1  0.57512750  0.27656550  0.04088200  1
  H  H18  1  0.32825000  0.74616000  0.13940600  1
  H  H19  1  0.44592950  0.71590050  0.04540100  1
  H  H20  1  0.66605350  0.71856650  0.37474100  1
  H  H21  1  0.54085800  0.83377100  0.34491000  1
  H  H22  1  0.45014850  0.18464850  0.35841200  1
  H  H23  1  0.34970600  0.32917200  0.38825300  1
  H  H24  1  0.33553050  0.97192750  0.35513900  1
  H  H25  1  0.23767750  0.94303550  0.46902800  1
  H  H26  1  0.78535500  0.13128600  0.40163700  1
  H  H27  1  0.66443550  0.03303750  0.33808000  1
  H  H28  1  0.33553050  0.02807250  0.85513900  1
  H  H29  1  0.23767750  0.05696450  0.96902800  1
  H  H30  1  0.78535500  0.86871400  0.90163700  1
  H  H31  1  0.66443550  0.96696250  0.83808000  1
  H  H32  1  0.34970600  0.67082800  0.88825300  1
  H  H33  1  0.45014850  0.81535150  0.85841200  1
  H  H34  1  0.66605350  0.28143350  0.87474100  1
  H  H35  1  0.54085800  0.16622900  0.84491000  1
  H  H36  1  0.82825000  0.75384000  0.63940600  1
  H  H37  1  0.94592950  0.78409950  0.54540100  1
  H  H38  1  0.05696000  0.32293900  0.64960300  1
  H  H39  1  0.07512750  0.22343450  0.54088200  1
  H  H40  1  0.26655500  0.66179200  0.58769200  1
  H  H41  1  0.15469700  0.55768700  0.65179300  1
  H  H42  1  0.70843150  0.33369950  0.64100400  1
  H  H43  1  0.86167700  0.45176300  0.65262300  1
  H  H44  1  0.26655500  0.33820800  0.08769200  1
  H  H45  1  0.15469700  0.44231300  0.15179300  1
  H  H46  1  0.86167700  0.54823700  0.15262300  1
  H  H47  1  0.70843150  0.66630050  0.14100400  1
  H  H48  1  0.05696000  0.67706100  0.14960300  1
  H  H49  1  0.07512750  0.77656550  0.04088200  1
  H  H50  1  0.82825000  0.24616000  0.13940600  1
  H  H51  1  0.94592950  0.21590050  0.04540100  1
  H  H52  1  0.16605350  0.21856650  0.37474100  1
  H  H53  1  0.04085800  0.33377100  0.34491000  1
  H  H54  1  0.95014850  0.68464850  0.35841200  1
  H  H55  1  0.84970600  0.82917200  0.38825300  1
  H  H56  1  0.83553050  0.47192750  0.35513900  1
  H  H57  1  0.73767750  0.44303550  0.46902800  1
  H  H58  1  0.28535500  0.63128600  0.40163700  1
  H  H59  1  0.16443550  0.53303750  0.33808000  1
  H  H60  1  0.83553050  0.52807250  0.85513900  1
  H  H61  1  0.73767750  0.55696450  0.96902800  1
  H  H62  1  0.28535500  0.36871400  0.90163700  1
  H  H63  1  0.16443550  0.46696250  0.83808000  1
  H  H64  1  0.84970600  0.17082800  0.88825300  1
  H  H65  1  0.95014850  0.31535150  0.85841200  1
  H  H66  1  0.16605350  0.78143350  0.87474100  1
  H  H67  1  0.04085800  0.66622900  0.84491000  1
  O  O68  1  0.49588950  0.96938050  0.68061000  1
  O  O69  1  0.49588950  0.03061950  0.18061000  1
  O  O70  1  0.49917400  0.02206400  0.30742400  1
  O  O71  1  0.49917400  0.97793600  0.80742400  1
  O  O72  1  0.42812950  0.29430050  0.62837000  1
  O  O73  1  0.59464600  0.72411400  0.62401200  1
  O  O74  1  0.75547450  0.10714050  0.65750400  1
  O  O75  1  0.23515250  0.93096650  0.62048200  1
  O  O76  1  0.75547450  0.89285950  0.15750400  1
  O  O77  1  0.23515250  0.06903350  0.12048200  1
  O  O78  1  0.59464600  0.27588600  0.12401200  1
  O  O79  1  0.42812950  0.70569950  0.12837000  1
  O  O80  1  0.55889250  0.73711950  0.37882300  1
  O  O81  1  0.44729850  0.28305150  0.39495200  1
  O  O82  1  0.23194350  0.95272050  0.38411900  1
  O  O83  1  0.77582700  0.03816800  0.36515200  1
  O  O84  1  0.23194350  0.04727950  0.88411900  1
  O  O85  1  0.77582700  0.96183200  0.86515200  1
  O  O86  1  0.44729850  0.71694850  0.89495200  1
  O  O87  1  0.55889250  0.26288050  0.87882300  1
  O  O88  1  0.99588950  0.46938050  0.68061000  1
  O  O89  1  0.99588950  0.53061950  0.18061000  1
  O  O90  1  0.99917400  0.52206400  0.30742400  1
  O  O91  1  0.99917400  0.47793600  0.80742400  1
  O  O92  1  0.92812950  0.79430050  0.62837000  1
  O  O93  1  0.09464600  0.22411400  0.62401200  1
  O  O94  1  0.25547450  0.60714050  0.65750400  1
  O  O95  1  0.73515250  0.43096650  0.62048200  1
  O  O96  1  0.25547450  0.39285950  0.15750400  1
  O  O97  1  0.73515250  0.56903350  0.12048200  1
  O  O98  1  0.09464600  0.77588600  0.12401200  1
  O  O99  1  0.92812950  0.20569950  0.12837000  1
  O  O100  1  0.05889250  0.23711950  0.37882300  1
  O  O101  1  0.94729850  0.78305150  0.39495200  1
  O  O102  1  0.73194350  0.45272050  0.38411900  1
  O  O103  1  0.27582700  0.53816800  0.36515200  1
  O  O104  1  0.73194350  0.54727950  0.88411900  1
  O  O105  1  0.27582700  0.46183200  0.86515200  1
  O  O106  1  0.94729850  0.21694850  0.89495200  1
  O  O107  1  0.05889250  0.76288050  0.87882300  1
