# generated using pymatgen
data_H(CO)2
_symmetry_space_group_name_H-M   'P 1'
_cell_length_a   8.75884600
_cell_length_b   5.58736800
_cell_length_c   6.19088256
_cell_angle_alpha   90.00000000
_cell_angle_beta   134.99206846
_cell_angle_gamma   90.00000000
_symmetry_Int_Tables_number   1
_chemical_formula_structural   H(CO)2
_chemical_formula_sum   'H4 C8 O8'
_cell_volume   214.26530156
_cell_formula_units_Z   4
loop_
 _symmetry_equiv_pos_site_id
 _symmetry_equiv_pos_as_xyz
  1  'x, y, z'
loop_
 _atom_site_type_symbol
 _atom_site_label
 _atom_site_symmetry_multiplicity
 _atom_site_fract_x
 _atom_site_fract_y
 _atom_site_fract_z
 _atom_site_occupancy
  H  H0  1  0.51824800  0.00000000  0.54400700  1
  H  H1  1  0.52561050  0.50000000  0.50285900  1
  H  H2  1  0.01824800  0.50000000  0.54400700  1
  H  H3  1  0.02561050  0.00000000  0.50285900  1
  C  C4  1  0.66132900  0.00000000  0.21975200  1
  C  C5  1  0.55551600  0.00000000  0.90250200  1
  C  C6  1  0.94292300  0.50000000  0.10564600  1
  C  C7  1  0.84601700  0.50000000  0.79190300  1
  C  C8  1  0.16132900  0.50000000  0.21975200  1
  C  C9  1  0.05551600  0.50000000  0.90250200  1
  C  C10  1  0.44292300  0.00000000  0.10564600  1
  C  C11  1  0.34601700  0.00000000  0.79190300  1
  O  O12  1  0.85129500  0.00000000  0.47744500  1
  O  O13  1  0.86917000  0.50000000  0.21936400  1
  O  O14  1  0.63420200  0.00000000  0.78884500  1
  O  O15  1  0.65559000  0.50000000  0.51847700  1
  O  O16  1  0.35129500  0.50000000  0.47744500  1
  O  O17  1  0.36917000  0.00000000  0.21936400  1
  O  O18  1  0.13420200  0.50000000  0.78884500  1
  O  O19  1  0.15559000  0.00000000  0.51847700  1
