# generated using pymatgen
data_KSb(MoO4)2
_symmetry_space_group_name_H-M   'P 1'
_cell_length_a   5.10420900
_cell_length_b   7.55811417
_cell_length_c   10.43993559
_cell_angle_alpha   90.50678840
_cell_angle_beta   100.56288230
_cell_angle_gamma   107.64586938
_symmetry_Int_Tables_number   1
_chemical_formula_structural   KSb(MoO4)2
_chemical_formula_sum   'K2 Sb2 Mo4 O16'
_cell_volume   376.40682878
_cell_formula_units_Z   2
loop_
 _symmetry_equiv_pos_site_id
 _symmetry_equiv_pos_as_xyz
  1  'x, y, z'
loop_
 _atom_site_type_symbol
 _atom_site_label
 _atom_site_symmetry_multiplicity
 _atom_site_fract_x
 _atom_site_fract_y
 _atom_site_fract_z
 _atom_site_occupancy
  K  K0  1  0.59676900  0.96372600  0.68826100  1
  K  K1  1  0.40323100  0.03627400  0.31173900  1
  Sb  Sb2  1  0.94803300  0.52999400  0.80803300  1
  Sb  Sb3  1  0.05196700  0.47000600  0.19196700  1
  Mo  Mo4  1  0.64246200  0.75560100  0.07340800  1
  Mo  Mo5  1  0.78789700  0.63542200  0.45997800  1
  Mo  Mo6  1  0.35753800  0.24439900  0.92659200  1
  Mo  Mo7  1  0.21210300  0.36457800  0.54002200  1
  O  O8  1  0.13432500  0.37891400  0.71311100  1
  O  O9  1  0.89701300  0.95937600  0.14537800  1
  O  O10  1  0.86415000  0.32578100  0.44655800  1
  O  O11  1  0.50539200  0.80981700  0.91770400  1
  O  O12  1  0.49460800  0.19018300  0.08229600  1
  O  O13  1  0.19643800  0.42748700  0.96644500  1
  O  O14  1  0.35914100  0.70805100  0.17396700  1
  O  O15  1  0.73426700  0.85172900  0.46150500  1
  O  O16  1  0.26573300  0.14827100  0.53849500  1
  O  O17  1  0.37181100  0.46884600  0.38520900  1
  O  O18  1  0.80356200  0.57251300  0.03355500  1
  O  O19  1  0.10298700  0.04062400  0.85462200  1
  O  O20  1  0.64085900  0.29194900  0.82603300  1
  O  O21  1  0.86567500  0.62108600  0.28688900  1
  O  O22  1  0.13585000  0.67421900  0.55344200  1
  O  O23  1  0.62818900  0.53115400  0.61479100  1
