# generated using pymatgen
data_Na4UC3O11
_symmetry_space_group_name_H-M   'P 1'
_cell_length_a   9.43457558
_cell_length_b   9.43457558
_cell_length_c   13.21487300
_cell_angle_alpha   90.00000000
_cell_angle_beta   90.00000000
_cell_angle_gamma   120.00000000
_symmetry_Int_Tables_number   1
_chemical_formula_structural   Na4UC3O11
_chemical_formula_sum   'Na16 U4 C12 O44'
_cell_volume   1018.68136352
_cell_formula_units_Z   4
loop_
 _symmetry_equiv_pos_site_id
 _symmetry_equiv_pos_as_xyz
  1  'x, y, z'
loop_
 _atom_site_type_symbol
 _atom_site_label
 _atom_site_symmetry_multiplicity
 _atom_site_fract_x
 _atom_site_fract_y
 _atom_site_fract_z
 _atom_site_occupancy
  Na  Na0  1  0.69189300  0.12881700  0.87551400  1
  Na  Na1  1  0.87118300  0.56307600  0.87551400  1
  Na  Na2  1  0.43692400  0.30810700  0.87551400  1
  Na  Na3  1  0.56307600  0.87118300  0.62448600  1
  Na  Na4  1  0.30810700  0.43692400  0.62448600  1
  Na  Na5  1  0.12881700  0.69189300  0.62448600  1
  Na  Na6  1  0.30810700  0.87118300  0.12448600  1
  Na  Na7  1  0.12881700  0.43692400  0.12448600  1
  Na  Na8  1  0.56307600  0.69189300  0.12448600  1
  Na  Na9  1  0.43692400  0.12881700  0.37551400  1
  Na  Na10  1  0.69189300  0.56307600  0.37551400  1
  Na  Na11  1  0.87118300  0.30810700  0.37551400  1
  Na  Na12  1  0.00000000  0.00000000  0.50000000  1
  Na  Na13  1  0.00000000  0.00000000  0.00000000  1
  Na  Na14  1  0.00000000  0.00000000  0.75000000  1
  Na  Na15  1  0.00000000  0.00000000  0.25000000  1
  U  U16  1  0.66666667  0.33333333  0.62959300  1
  U  U17  1  0.33333333  0.66666667  0.87040700  1
  U  U18  1  0.33333333  0.66666667  0.37040700  1
  U  U19  1  0.66666667  0.33333333  0.12959300  1
  C  C20  1  0.25306700  0.92344800  0.87212600  1
  C  C21  1  0.07655200  0.32961900  0.87212600  1
  C  C22  1  0.67038100  0.74693300  0.87212600  1
  C  C23  1  0.32961900  0.07655200  0.62787400  1
  C  C24  1  0.74693300  0.67038100  0.62787400  1
  C  C25  1  0.92344800  0.25306700  0.62787400  1
  C  C26  1  0.74693300  0.07655200  0.12787400  1
  C  C27  1  0.92344800  0.67038100  0.12787400  1
  C  C28  1  0.32961900  0.25306700  0.12787400  1
  C  C29  1  0.67038100  0.92344800  0.37212600  1
  C  C30  1  0.25306700  0.32961900  0.37212600  1
  C  C31  1  0.07655200  0.74693300  0.37212600  1
  O  O32  1  0.62316900  0.85525100  0.85808200  1
  O  O33  1  0.14474900  0.76791800  0.85808200  1
  O  O34  1  0.23208200  0.37683100  0.85808200  1
  O  O35  1  0.76791800  0.14474900  0.64191800  1
  O  O36  1  0.37683100  0.23208200  0.64191800  1
  O  O37  1  0.85525100  0.62316900  0.64191800  1
  O  O38  1  0.37683100  0.14474900  0.14191800  1
  O  O39  1  0.85525100  0.23208200  0.14191800  1
  O  O40  1  0.76791800  0.62316900  0.14191800  1
  O  O41  1  0.23208200  0.85525100  0.35808200  1
  O  O42  1  0.62316900  0.76791800  0.35808200  1
  O  O43  1  0.14474900  0.37683100  0.35808200  1
  O  O44  1  0.40376700  0.95234300  0.88112000  1
  O  O45  1  0.04765700  0.45142400  0.88112000  1
  O  O46  1  0.54857600  0.59623300  0.88112000  1
  O  O47  1  0.45142400  0.04765700  0.61888000  1
  O  O48  1  0.59623300  0.54857600  0.61888000  1
  O  O49  1  0.95234300  0.40376700  0.61888000  1
  O  O50  1  0.59623300  0.04765700  0.11888000  1
  O  O51  1  0.95234300  0.54857600  0.11888000  1
  O  O52  1  0.45142400  0.40376700  0.11888000  1
  O  O53  1  0.54857600  0.95234300  0.38112000  1
  O  O54  1  0.40376700  0.45142400  0.38112000  1
  O  O55  1  0.04765700  0.59623300  0.38112000  1
  O  O56  1  0.21516700  0.03442500  0.87739600  1
  O  O57  1  0.96557500  0.18074200  0.87739600  1
  O  O58  1  0.81925800  0.78483300  0.87739600  1
  O  O59  1  0.18074200  0.96557500  0.62260400  1
  O  O60  1  0.78483300  0.81925800  0.62260400  1
  O  O61  1  0.03442500  0.21516700  0.62260400  1
  O  O62  1  0.78483300  0.96557500  0.12260400  1
  O  O63  1  0.03442500  0.81925800  0.12260400  1
  O  O64  1  0.18074200  0.21516700  0.12260400  1
  O  O65  1  0.81925800  0.03442500  0.37739600  1
  O  O66  1  0.21516700  0.18074200  0.37739600  1
  O  O67  1  0.96557500  0.78483300  0.37739600  1
  O  O68  1  0.66666667  0.33333333  0.48864100  1
  O  O69  1  0.33333333  0.66666667  0.01135900  1
  O  O70  1  0.33333333  0.66666667  0.51135900  1
  O  O71  1  0.66666667  0.33333333  0.98864100  1
  O  O72  1  0.66666667  0.33333333  0.77074800  1
  O  O73  1  0.33333333  0.66666667  0.72925200  1
  O  O74  1  0.33333333  0.66666667  0.22925200  1
  O  O75  1  0.66666667  0.33333333  0.27074800  1
