# generated using pymatgen
data_NbTl2PO6
_symmetry_space_group_name_H-M   'P 1'
_cell_length_a   8.87368127
_cell_length_b   8.87368127
_cell_length_c   45.42939397
_cell_angle_alpha   90.00000000
_cell_angle_beta   90.00000000
_cell_angle_gamma   120.00000000
_symmetry_Int_Tables_number   1
_chemical_formula_structural   NbTl2PO6
_chemical_formula_sum   'Nb18 Tl36 P18 O108'
_cell_volume   3097.95586455
_cell_formula_units_Z   18
loop_
 _symmetry_equiv_pos_site_id
 _symmetry_equiv_pos_as_xyz
  1  'x, y, z'
loop_
 _atom_site_type_symbol
 _atom_site_label
 _atom_site_symmetry_multiplicity
 _atom_site_fract_x
 _atom_site_fract_y
 _atom_site_fract_z
 _atom_site_occupancy
  Nb  Nb0  1  0.99746500  0.24263500  0.24678300  1
  Nb  Nb1  1  0.42149667  0.33079833  0.08655033  1
  Nb  Nb2  1  0.66920167  0.09069833  0.08655033  1
  Nb  Nb3  1  0.75736500  0.75483000  0.24678300  1
  Nb  Nb4  1  0.90930167  0.57850333  0.08655033  1
  Nb  Nb5  1  0.24517000  0.00253500  0.24678300  1
  Nb  Nb6  1  0.66413167  0.57596833  0.58011633  1
  Nb  Nb7  1  0.08816333  0.66413167  0.41988367  1
  Nb  Nb8  1  0.33586833  0.42403167  0.41988367  1
  Nb  Nb9  1  0.42403167  0.08816333  0.58011633  1
  Nb  Nb10  1  0.57596833  0.91183667  0.41988367  1
  Nb  Nb11  1  0.91183667  0.33586833  0.58011633  1
  Nb  Nb12  1  0.33079833  0.90930167  0.91344967  1
  Nb  Nb13  1  0.75483000  0.99746500  0.75321700  1
  Nb  Nb14  1  0.00253500  0.75736500  0.75321700  1
  Nb  Nb15  1  0.09069833  0.42149667  0.91344967  1
  Nb  Nb16  1  0.24263500  0.24517000  0.75321700  1
  Nb  Nb17  1  0.57850333  0.66920167  0.91344967  1
  Tl  Tl18  1  0.07818100  0.35996800  0.02869600  1
  Tl  Tl19  1  0.67564933  0.72685067  0.13952867  1
  Tl  Tl20  1  0.39351733  0.38453467  0.19380467  1
  Tl  Tl21  1  0.61546533  0.00898267  0.19380467  1
  Tl  Tl22  1  0.28178700  0.92181900  0.02869600  1
  Tl  Tl23  1  0.27314933  0.94879867  0.13952867  1
  Tl  Tl24  1  0.64003200  0.71821300  0.02869600  1
  Tl  Tl25  1  0.05120133  0.32435067  0.13952867  1
  Tl  Tl26  1  0.58848567  0.97336533  0.30463733  1
  Tl  Tl27  1  0.02663467  0.61512033  0.30463733  1
  Tl  Tl28  1  0.38487967  0.41151433  0.30463733  1
  Tl  Tl29  1  0.99101733  0.60648267  0.19380467  1
  Tl  Tl30  1  0.74484767  0.69330133  0.36202933  1
  Tl  Tl31  1  0.34231600  0.06018400  0.47286200  1
  Tl  Tl32  1  0.06018400  0.71786800  0.52713800  1
  Tl  Tl33  1  0.28213200  0.34231600  0.52713800  1
  Tl  Tl34  1  0.94845367  0.25515233  0.36202933  1
  Tl  Tl35  1  0.93981600  0.28213200  0.47286200  1
  Tl  Tl36  1  0.30669867  0.05154633  0.36202933  1
  Tl  Tl37  1  0.71786800  0.65768400  0.47286200  1
  Tl  Tl38  1  0.25515233  0.30669867  0.63797067  1
  Tl  Tl39  1  0.69330133  0.94845367  0.63797067  1
  Tl  Tl40  1  0.05154633  0.74484767  0.63797067  1
  Tl  Tl41  1  0.65768400  0.93981600  0.52713800  1
  Tl  Tl42  1  0.41151433  0.02663467  0.69536267  1
  Tl  Tl43  1  0.00898267  0.39351733  0.80619533  1
  Tl  Tl44  1  0.72685067  0.05120133  0.86047133  1
  Tl  Tl45  1  0.94879867  0.67564933  0.86047133  1
  Tl  Tl46  1  0.61512033  0.58848567  0.69536267  1
  Tl  Tl47  1  0.60648267  0.61546533  0.80619533  1
  Tl  Tl48  1  0.97336533  0.38487967  0.69536267  1
  Tl  Tl49  1  0.38453467  0.99101733  0.80619533  1
  Tl  Tl50  1  0.92181900  0.64003200  0.97130400  1
  Tl  Tl51  1  0.35996800  0.28178700  0.97130400  1
  Tl  Tl52  1  0.71821300  0.07818100  0.97130400  1
  Tl  Tl53  1  0.32435067  0.27314933  0.86047133  1
  P  P54  1  0.33333333  0.66666667  0.08419167  1
  P  P55  1  0.00000000  0.00000000  0.30595200  1
  P  P56  1  0.00000000  0.00000000  0.08307600  1
  P  P57  1  0.33333333  0.66666667  0.24914167  1
  P  P58  1  0.66666667  0.33333333  0.25025733  1
  P  P59  1  0.66666667  0.33333333  0.02738133  1
  P  P60  1  0.00000000  0.00000000  0.41752500  1
  P  P61  1  0.66666667  0.33333333  0.63928533  1
  P  P62  1  0.66666667  0.33333333  0.41640933  1
  P  P63  1  0.00000000  0.00000000  0.58247500  1
  P  P64  1  0.33333333  0.66666667  0.58359067  1
  P  P65  1  0.33333333  0.66666667  0.36071467  1
  P  P66  1  0.66666667  0.33333333  0.75085833  1
  P  P67  1  0.33333333  0.66666667  0.97261867  1
  P  P68  1  0.33333333  0.66666667  0.74974267  1
  P  P69  1  0.66666667  0.33333333  0.91580833  1
  P  P70  1  0.00000000  0.00000000  0.91692400  1
  P  P71  1  0.00000000  0.00000000  0.69404800  1
  O  O72  1  0.47822833  0.14482867  0.09122867  1
  O  O73  1  0.33333333  0.66666667  0.32652967  1
  O  O74  1  0.00006633  0.81156167  0.24210467  1
  O  O75  1  0.16260600  0.99225300  0.29472400  1
  O  O76  1  0.33333333  0.66666667  0.21572967  1
  O  O77  1  0.00774700  0.17035300  0.29472400  1
  O  O78  1  0.68777167  0.68468333  0.20942333  1
  O  O79  1  0.47975933  0.84151867  0.07042067  1
  O  O80  1  0.66975500  0.02110500  0.12391000  1
  O  O81  1  0.66666667  0.33333333  0.21658133  1
  O  O82  1  0.85517133  0.33339967  0.09122867  1
  O  O83  1  0.97724233  0.82664267  0.06988967  1
  O  O84  1  0.31531667  0.00308833  0.20942333  1
  O  O85  1  0.36175933  0.52024067  0.07042067  1
  O  O86  1  0.00000000  0.00000000  0.11675200  1
  O  O87  1  0.30490733  0.81309267  0.26291267  1
  O  O88  1  0.68942433  0.50669067  0.26344367  1
  O  O89  1  0.82964700  0.83739400  0.29472400  1
  O  O90  1  0.15848133  0.63824067  0.07042067  1
  O  O91  1  0.50818533  0.69509267  0.26291267  1
  O  O92  1  0.81726633  0.31057567  0.26344367  1
  O  O93  1  0.33333333  0.66666667  0.00680367  1
  O  O94  1  0.81149533  0.99993367  0.24210467  1
  O  O95  1  0.17335733  0.15059967  0.06988967  1
  O  O96  1  0.65891967  0.16298033  0.03860933  1
  O  O97  1  0.18843833  0.18850467  0.24210467  1
  O  O98  1  0.18690733  0.49181467  0.26291267  1
  O  O99  1  0.83701967  0.49593933  0.03860933  1
  O  O100  1  0.66660033  0.52177167  0.09122867  1
  O  O101  1  0.35135000  0.33024500  0.12391000  1
  O  O102  1  0.50406067  0.34108033  0.03860933  1
  O  O103  1  0.97889500  0.64865000  0.12391000  1
  O  O104  1  0.84940033  0.02275767  0.06988967  1
  O  O105  1  0.33333333  0.66666667  0.11760367  1
  O  O106  1  0.99691167  0.31222833  0.20942333  1
  O  O107  1  0.49330933  0.18273367  0.26344367  1
  O  O108  1  0.14489500  0.47816200  0.42456200  1
  O  O109  1  0.00000000  0.00000000  0.65986300  1
  O  O110  1  0.66673300  0.14489500  0.57543800  1
  O  O111  1  0.82927267  0.32558633  0.62805733  1
  O  O112  1  0.00000000  0.00000000  0.54906300  1
  O  O113  1  0.67441367  0.50368633  0.62805733  1
  O  O114  1  0.35443833  0.01801667  0.54275667  1
  O  O115  1  0.14642600  0.17485200  0.40375400  1
  O  O116  1  0.33642167  0.35443833  0.45724333  1
  O  O117  1  0.33333333  0.66666667  0.54991467  1
  O  O118  1  0.52183800  0.66673300  0.42456200  1
  O  O119  1  0.64390900  0.15997600  0.40322300  1
  O  O120  1  0.98198333  0.33642167  0.54275667  1
  O  O121  1  0.02842600  0.85357400  0.40375400  1
  O  O122  1  0.66666667  0.33333333  0.45008533  1
  O  O123  1  0.97157400  0.14642600  0.59624600  1
  O  O124  1  0.35609100  0.84002400  0.59677700  1
  O  O125  1  0.49631367  0.17072733  0.62805733  1
  O  O126  1  0.82514800  0.97157400  0.40375400  1
  O  O127  1  0.17485200  0.02842600  0.59624600  1
  O  O128  1  0.48393300  0.64390900  0.59677700  1
  O  O129  1  0.00000000  0.00000000  0.34013700  1
  O  O130  1  0.47816200  0.33326700  0.57543800  1
  O  O131  1  0.84002400  0.48393300  0.40322300  1
  O  O132  1  0.32558633  0.49631367  0.37194267  1
  O  O133  1  0.85510500  0.52183800  0.57543800  1
  O  O134  1  0.85357400  0.82514800  0.59624600  1
  O  O135  1  0.50368633  0.82927267  0.37194267  1
  O  O136  1  0.33326700  0.85510500  0.42456200  1
  O  O137  1  0.01801667  0.66357833  0.45724333  1
  O  O138  1  0.17072733  0.67441367  0.37194267  1
  O  O139  1  0.64556167  0.98198333  0.45724333  1
  O  O140  1  0.51606700  0.35609100  0.40322300  1
  O  O141  1  0.00000000  0.00000000  0.45093700  1
  O  O142  1  0.66357833  0.64556167  0.54275667  1
  O  O143  1  0.15997600  0.51606700  0.59677700  1
  O  O144  1  0.81156167  0.81149533  0.75789533  1
  O  O145  1  0.66666667  0.33333333  0.99319633  1
  O  O146  1  0.33339967  0.47822833  0.90877133  1
  O  O147  1  0.49593933  0.65891967  0.96139067  1
  O  O148  1  0.66666667  0.33333333  0.88239633  1
  O  O149  1  0.34108033  0.83701967  0.96139067  1
  O  O150  1  0.02110500  0.35135000  0.87609000  1
  O  O151  1  0.81309267  0.50818533  0.73708733  1
  O  O152  1  0.00308833  0.68777167  0.79057667  1
  O  O153  1  0.00000000  0.00000000  0.88324800  1
  O  O154  1  0.18850467  0.00006633  0.75789533  1
  O  O155  1  0.31057567  0.49330933  0.73655633  1
  O  O156  1  0.64865000  0.66975500  0.87609000  1
  O  O157  1  0.69509267  0.18690733  0.73708733  1
  O  O158  1  0.33333333  0.66666667  0.78341867  1
  O  O159  1  0.63824067  0.47975933  0.92957933  1
  O  O160  1  0.02275767  0.17335733  0.93011033  1
  O  O161  1  0.16298033  0.50406067  0.96139067  1
  O  O162  1  0.49181467  0.30490733  0.73708733  1
  O  O163  1  0.84151867  0.36175933  0.92957933  1
  O  O164  1  0.15059967  0.97724233  0.93011033  1
  O  O165  1  0.66666667  0.33333333  0.67347033  1
  O  O166  1  0.14482867  0.66660033  0.90877133  1
  O  O167  1  0.50669067  0.81726633  0.73655633  1
  O  O168  1  0.99225300  0.82964700  0.70527600  1
  O  O169  1  0.52177167  0.85517133  0.90877133  1
  O  O170  1  0.52024067  0.15848133  0.92957933  1
  O  O171  1  0.17035300  0.16260600  0.70527600  1
  O  O172  1  0.99993367  0.18843833  0.75789533  1
  O  O173  1  0.68468333  0.99691167  0.79057667  1
  O  O174  1  0.83739400  0.00774700  0.70527600  1
  O  O175  1  0.31222833  0.31531667  0.79057667  1
  O  O176  1  0.18273367  0.68942433  0.73655633  1
  O  O177  1  0.66666667  0.33333333  0.78427033  1
  O  O178  1  0.33024500  0.97889500  0.87609000  1
  O  O179  1  0.82664267  0.84940033  0.93011033  1
