# generated using pymatgen
data_Ho3Se3N
_symmetry_space_group_name_H-M   'P 1'
_cell_length_a   11.59061600
_cell_length_b   10.13343400
_cell_length_c   12.56107567
_cell_angle_alpha   90.00000000
_cell_angle_beta   112.73073275
_cell_angle_gamma   90.00000000
_symmetry_Int_Tables_number   1
_chemical_formula_structural   Ho3Se3N
_chemical_formula_sum   'Ho24 Se24 N8'
_cell_volume   1360.74510436
_cell_formula_units_Z   8
loop_
 _symmetry_equiv_pos_site_id
 _symmetry_equiv_pos_as_xyz
  1  'x, y, z'
loop_
 _atom_site_type_symbol
 _atom_site_label
 _atom_site_symmetry_multiplicity
 _atom_site_fract_x
 _atom_site_fract_y
 _atom_site_fract_z
 _atom_site_occupancy
  Ho  Ho0  1  0.81997700  0.42824700  0.61287400  1
  Ho  Ho1  1  0.07457250  0.86259950  0.12262500  1
  Ho  Ho2  1  0.92542750  0.86259950  0.37737500  1
  Ho  Ho3  1  0.68052800  0.65922700  0.38269500  1
  Ho  Ho4  1  0.92542750  0.13740050  0.87737500  1
  Ho  Ho5  1  0.18002300  0.42824700  0.88712600  1
  Ho  Ho6  1  0.07457250  0.13740050  0.62262500  1
  Ho  Ho7  1  0.81997700  0.57175300  0.11287400  1
  Ho  Ho8  1  0.31947200  0.65922700  0.11730500  1
  Ho  Ho9  1  0.18002300  0.57175300  0.38712600  1
  Ho  Ho10  1  0.68052800  0.34077300  0.88269500  1
  Ho  Ho11  1  0.31947200  0.34077300  0.61730500  1
  Ho  Ho12  1  0.31997700  0.92824700  0.61287400  1
  Ho  Ho13  1  0.57457250  0.36259950  0.12262500  1
  Ho  Ho14  1  0.42542750  0.36259950  0.37737500  1
  Ho  Ho15  1  0.18052800  0.15922700  0.38269500  1
  Ho  Ho16  1  0.42542750  0.63740050  0.87737500  1
  Ho  Ho17  1  0.68002300  0.92824700  0.88712600  1
  Ho  Ho18  1  0.57457250  0.63740050  0.62262500  1
  Ho  Ho19  1  0.31997700  0.07175300  0.11287400  1
  Ho  Ho20  1  0.81947200  0.15922700  0.11730500  1
  Ho  Ho21  1  0.68002300  0.07175300  0.38712600  1
  Ho  Ho22  1  0.18052800  0.84077300  0.88269500  1
  Ho  Ho23  1  0.81947200  0.84077300  0.61730500  1
  Se  Se24  1  0.92730500  0.14678200  0.37324000  1
  Se  Se25  1  0.08073550  0.58448950  0.14026100  1
  Se  Se26  1  0.08073550  0.41551050  0.64026100  1
  Se  Se27  1  0.67412650  0.63312850  0.87187500  1
  Se  Se28  1  0.92730500  0.85321800  0.87324000  1
  Se  Se29  1  0.07269500  0.85321800  0.62676000  1
  Se  Se30  1  0.32587350  0.63312850  0.62812500  1
  Se  Se31  1  0.07269500  0.14678200  0.12676000  1
  Se  Se32  1  0.32587350  0.36687150  0.12812500  1
  Se  Se33  1  0.91926450  0.41551050  0.85973900  1
  Se  Se34  1  0.67412650  0.36687150  0.37187500  1
  Se  Se35  1  0.91926450  0.58448950  0.35973900  1
  Se  Se36  1  0.42730500  0.64678200  0.37324000  1
  Se  Se37  1  0.58073550  0.08448950  0.14026100  1
  Se  Se38  1  0.58073550  0.91551050  0.64026100  1
  Se  Se39  1  0.17412650  0.13312850  0.87187500  1
  Se  Se40  1  0.42730500  0.35321800  0.87324000  1
  Se  Se41  1  0.57269500  0.35321800  0.62676000  1
  Se  Se42  1  0.82587350  0.13312850  0.62812500  1
  Se  Se43  1  0.57269500  0.64678200  0.12676000  1
  Se  Se44  1  0.82587350  0.86687150  0.12812500  1
  Se  Se45  1  0.41926450  0.91551050  0.85973900  1
  Se  Se46  1  0.17412650  0.86687150  0.37187500  1
  Se  Se47  1  0.41926450  0.08448950  0.35973900  1
  N  N48  1  0.25757350  0.63273850  0.92400500  1
  N  N49  1  0.74242650  0.63273850  0.57599500  1
  N  N50  1  0.25757350  0.36726150  0.42400500  1
  N  N51  1  0.74242650  0.36726150  0.07599500  1
  N  N52  1  0.75757350  0.13273850  0.92400500  1
  N  N53  1  0.24242650  0.13273850  0.57599500  1
  N  N54  1  0.75757350  0.86726150  0.42400500  1
  N  N55  1  0.24242650  0.86726150  0.07599500  1
