# generated using pymatgen
data_Pb2Se(NO4)2
_symmetry_space_group_name_H-M   'P 1'
_cell_length_a   5.62790600
_cell_length_b   6.95379200
_cell_length_c   10.50141600
_cell_angle_alpha   90.00000000
_cell_angle_beta   90.00000000
_cell_angle_gamma   90.00000000
_symmetry_Int_Tables_number   1
_chemical_formula_structural   Pb2Se(NO4)2
_chemical_formula_sum   'Pb4 Se2 N4 O16'
_cell_volume   410.97593662
_cell_formula_units_Z   2
loop_
 _symmetry_equiv_pos_site_id
 _symmetry_equiv_pos_as_xyz
  1  'x, y, z'
loop_
 _atom_site_type_symbol
 _atom_site_label
 _atom_site_symmetry_multiplicity
 _atom_site_fract_x
 _atom_site_fract_y
 _atom_site_fract_z
 _atom_site_occupancy
  Pb  Pb0  1  0.50000000  0.76984700  0.98319300  1
  Pb  Pb1  1  0.50000000  0.50191200  0.33098100  1
  Pb  Pb2  1  0.00000000  0.00191200  0.66901900  1
  Pb  Pb3  1  0.00000000  0.26984700  0.01680700  1
  Se  Se4  1  0.00000000  0.79711400  0.18516600  1
  Se  Se5  1  0.50000000  0.29711400  0.81483400  1
  N  N6  1  0.00000000  0.36971200  0.48343800  1
  N  N7  1  0.50000000  0.86971200  0.51656200  1
  N  N8  1  0.00000000  0.59497100  0.81359200  1
  N  N9  1  0.50000000  0.09497100  0.18640800  1
  O  O10  1  0.69018700  0.17670900  0.22274100  1
  O  O11  1  0.00000000  0.47000500  0.38241000  1
  O  O12  1  0.00000000  0.91776900  0.04139200  1
  O  O13  1  0.30981300  0.17670900  0.22274100  1
  O  O14  1  0.19598100  0.31841300  0.53321800  1
  O  O15  1  0.50000000  0.97000500  0.61759000  1
  O  O16  1  0.25899000  0.14429500  0.84379400  1
  O  O17  1  0.80401900  0.31841300  0.53321800  1
  O  O18  1  0.74101000  0.14429500  0.84379400  1
  O  O19  1  0.75899000  0.64429500  0.15620600  1
  O  O20  1  0.50000000  0.41776900  0.95860800  1
  O  O21  1  0.80981300  0.67670900  0.77725900  1
  O  O22  1  0.24101000  0.64429500  0.15620600  1
  O  O23  1  0.19018700  0.67670900  0.77725900  1
  O  O24  1  0.69598100  0.81841300  0.46678200  1
  O  O25  1  0.30401900  0.81841300  0.46678200  1
