# generated using pymatgen
data_Ga4Hg11(AsBr4)4
_symmetry_space_group_name_H-M   'P 1'
_cell_length_a   13.77901000
_cell_length_b   7.85356400
_cell_length_c   23.32367110
_cell_angle_alpha   90.00000000
_cell_angle_beta   98.63918443
_cell_angle_gamma   90.00000000
_symmetry_Int_Tables_number   1
_chemical_formula_structural   Ga4Hg11(AsBr4)4
_chemical_formula_sum   'Ga8 Hg22 As8 Br32'
_cell_volume   2495.31850653
_cell_formula_units_Z   2
loop_
 _symmetry_equiv_pos_site_id
 _symmetry_equiv_pos_as_xyz
  1  'x, y, z'
loop_
 _atom_site_type_symbol
 _atom_site_label
 _atom_site_symmetry_multiplicity
 _atom_site_fract_x
 _atom_site_fract_y
 _atom_site_fract_z
 _atom_site_occupancy
  Ga  Ga0  1  0.63870800  0.00000000  0.89040200  1
  Ga  Ga1  1  0.86129200  0.50000000  0.10959800  1
  Ga  Ga2  1  0.75919700  0.00000000  0.38598800  1
  Ga  Ga3  1  0.74080300  0.50000000  0.61401200  1
  Ga  Ga4  1  0.13870800  0.50000000  0.89040200  1
  Ga  Ga5  1  0.36129200  0.00000000  0.10959800  1
  Ga  Ga6  1  0.25919700  0.50000000  0.38598800  1
  Ga  Ga7  1  0.24080300  0.00000000  0.61401200  1
  Hg  Hg8  1  0.53164800  0.50000000  0.11639400  1
  Hg  Hg9  1  0.76647600  0.00000000  0.71698700  1
  Hg  Hg10  1  0.97081500  0.50000000  0.44266500  1
  Hg  Hg11  1  0.98400200  0.25100400  0.27922200  1
  Hg  Hg12  1  0.51599800  0.24899600  0.72077800  1
  Hg  Hg13  1  0.51599800  0.75100400  0.72077800  1
  Hg  Hg14  1  0.98400200  0.74899600  0.27922200  1
  Hg  Hg15  1  0.52918500  0.00000000  0.55733500  1
  Hg  Hg16  1  0.96835200  0.00000000  0.88360600  1
  Hg  Hg17  1  0.00000000  0.00000000  0.00000000  1
  Hg  Hg18  1  0.73352400  0.50000000  0.28301300  1
  Hg  Hg19  1  0.03164800  0.00000000  0.11639400  1
  Hg  Hg20  1  0.26647600  0.50000000  0.71698700  1
  Hg  Hg21  1  0.47081500  0.00000000  0.44266500  1
  Hg  Hg22  1  0.48400200  0.75100400  0.27922200  1
  Hg  Hg23  1  0.01599800  0.74899600  0.72077800  1
  Hg  Hg24  1  0.01599800  0.25100400  0.72077800  1
  Hg  Hg25  1  0.48400200  0.24899600  0.27922200  1
  Hg  Hg26  1  0.02918500  0.50000000  0.55733500  1
  Hg  Hg27  1  0.46835200  0.50000000  0.88360600  1
  Hg  Hg28  1  0.50000000  0.50000000  0.00000000  1
  Hg  Hg29  1  0.23352400  0.00000000  0.28301300  1
  As  As30  1  0.94286200  0.00000000  0.76860300  1
  As  As31  1  0.55713800  0.50000000  0.23139700  1
  As  As32  1  0.58641200  0.00000000  0.66993600  1
  As  As33  1  0.91358800  0.50000000  0.33006400  1
  As  As34  1  0.44286200  0.50000000  0.76860300  1
  As  As35  1  0.05713800  0.00000000  0.23139700  1
  As  As36  1  0.08641200  0.50000000  0.66993600  1
  As  As37  1  0.41358800  0.00000000  0.33006400  1
  Br  Br38  1  0.79139050  0.25785450  0.14916800  1
  Br  Br39  1  0.57139500  0.50000000  0.57928500  1
  Br  Br40  1  0.53109100  0.00000000  0.14894000  1
  Br  Br41  1  0.68207200  0.24794600  0.41506400  1
  Br  Br42  1  0.73753400  0.00000000  0.28332500  1
  Br  Br43  1  0.83703900  0.50000000  0.00908300  1
  Br  Br44  1  0.70860950  0.24214550  0.85083200  1
  Br  Br45  1  0.70860950  0.75785450  0.85083200  1
  Br  Br46  1  0.96890900  0.50000000  0.85106000  1
  Br  Br47  1  0.81792800  0.25205400  0.58493600  1
  Br  Br48  1  0.66296100  0.00000000  0.99091700  1
  Br  Br49  1  0.68207200  0.75205400  0.41506400  1
  Br  Br50  1  0.76246600  0.50000000  0.71667500  1
  Br  Br51  1  0.81792800  0.74794600  0.58493600  1
  Br  Br52  1  0.92860500  0.00000000  0.42071500  1
  Br  Br53  1  0.79139050  0.74214550  0.14916800  1
  Br  Br54  1  0.29139050  0.75785450  0.14916800  1
  Br  Br55  1  0.07139500  0.00000000  0.57928500  1
  Br  Br56  1  0.03109100  0.50000000  0.14894000  1
  Br  Br57  1  0.18207200  0.74794600  0.41506400  1
  Br  Br58  1  0.23753400  0.50000000  0.28332500  1
  Br  Br59  1  0.33703900  0.00000000  0.00908300  1
  Br  Br60  1  0.20860950  0.74214550  0.85083200  1
  Br  Br61  1  0.20860950  0.25785450  0.85083200  1
  Br  Br62  1  0.46890900  0.00000000  0.85106000  1
  Br  Br63  1  0.31792800  0.75205400  0.58493600  1
  Br  Br64  1  0.16296100  0.50000000  0.99091700  1
  Br  Br65  1  0.18207200  0.25205400  0.41506400  1
  Br  Br66  1  0.26246600  0.00000000  0.71667500  1
  Br  Br67  1  0.31792800  0.24794600  0.58493600  1
  Br  Br68  1  0.42860500  0.50000000  0.42071500  1
  Br  Br69  1  0.29139050  0.24214550  0.14916800  1
