# generated using pymatgen
data_Hg4Pb2N6O19
_symmetry_space_group_name_H-M   'P 1'
_cell_length_a   15.87314600
_cell_length_b   15.87314600
_cell_length_c   15.87314600
_cell_angle_alpha   90.00000000
_cell_angle_beta   90.00000000
_cell_angle_gamma   90.00000000
_symmetry_Int_Tables_number   1
_chemical_formula_structural   Hg4Pb2N6O19
_chemical_formula_sum   'Hg32 Pb16 N48 O152'
_cell_volume   3999.34649966
_cell_formula_units_Z   8
loop_
 _symmetry_equiv_pos_site_id
 _symmetry_equiv_pos_as_xyz
  1  'x, y, z'
loop_
 _atom_site_type_symbol
 _atom_site_label
 _atom_site_symmetry_multiplicity
 _atom_site_fract_x
 _atom_site_fract_y
 _atom_site_fract_z
 _atom_site_occupancy
  Hg  Hg0  1  0.32886067  0.67113933  0.32886067  1
  Hg  Hg1  1  0.17113933  0.67113933  0.17113933  1
  Hg  Hg2  1  0.42113933  0.92113933  0.07886067  1
  Hg  Hg3  1  0.07886067  0.92113933  0.42113933  1
  Hg  Hg4  1  0.42113933  0.57886067  0.42113933  1
  Hg  Hg5  1  0.32886067  0.82886067  0.17113933  1
  Hg  Hg6  1  0.07886067  0.57886067  0.07886067  1
  Hg  Hg7  1  0.17113933  0.82886067  0.32886067  1
  Hg  Hg8  1  0.32886067  0.17113933  0.82886067  1
  Hg  Hg9  1  0.17113933  0.17113933  0.67113933  1
  Hg  Hg10  1  0.42113933  0.42113933  0.57886067  1
  Hg  Hg11  1  0.07886067  0.42113933  0.92113933  1
  Hg  Hg12  1  0.42113933  0.07886067  0.92113933  1
  Hg  Hg13  1  0.32886067  0.32886067  0.67113933  1
  Hg  Hg14  1  0.07886067  0.07886067  0.57886067  1
  Hg  Hg15  1  0.17113933  0.32886067  0.82886067  1
  Hg  Hg16  1  0.82886067  0.67113933  0.82886067  1
  Hg  Hg17  1  0.67113933  0.67113933  0.67113933  1
  Hg  Hg18  1  0.92113933  0.92113933  0.57886067  1
  Hg  Hg19  1  0.57886067  0.92113933  0.92113933  1
  Hg  Hg20  1  0.92113933  0.57886067  0.92113933  1
  Hg  Hg21  1  0.82886067  0.82886067  0.67113933  1
  Hg  Hg22  1  0.57886067  0.57886067  0.57886067  1
  Hg  Hg23  1  0.67113933  0.82886067  0.82886067  1
  Hg  Hg24  1  0.82886067  0.17113933  0.32886067  1
  Hg  Hg25  1  0.67113933  0.17113933  0.17113933  1
  Hg  Hg26  1  0.92113933  0.42113933  0.07886067  1
  Hg  Hg27  1  0.57886067  0.42113933  0.42113933  1
  Hg  Hg28  1  0.92113933  0.07886067  0.42113933  1
  Hg  Hg29  1  0.82886067  0.32886067  0.17113933  1
  Hg  Hg30  1  0.57886067  0.07886067  0.07886067  1
  Hg  Hg31  1  0.67113933  0.32886067  0.32886067  1
  Pb  Pb32  1  0.37500000  0.12500000  0.37500000  1
  Pb  Pb33  1  0.62500000  0.87500000  0.37500000  1
  Pb  Pb34  1  0.87500000  0.87500000  0.12500000  1
  Pb  Pb35  1  0.12500000  0.12500000  0.12500000  1
  Pb  Pb36  1  0.37500000  0.62500000  0.87500000  1
  Pb  Pb37  1  0.62500000  0.37500000  0.87500000  1
  Pb  Pb38  1  0.87500000  0.37500000  0.62500000  1
  Pb  Pb39  1  0.12500000  0.62500000  0.62500000  1
  Pb  Pb40  1  0.87500000  0.12500000  0.87500000  1
  Pb  Pb41  1  0.12500000  0.87500000  0.87500000  1
  Pb  Pb42  1  0.37500000  0.87500000  0.62500000  1
  Pb  Pb43  1  0.62500000  0.12500000  0.62500000  1
  Pb  Pb44  1  0.87500000  0.62500000  0.37500000  1
  Pb  Pb45  1  0.12500000  0.37500000  0.37500000  1
  Pb  Pb46  1  0.37500000  0.37500000  0.12500000  1
  Pb  Pb47  1  0.62500000  0.62500000  0.12500000  1
  N  N48  1  0.50000000  0.00000000  0.25957200  1
  N  N49  1  0.25000000  0.25000000  0.49042800  1
  N  N50  1  0.25000000  0.00957200  0.25000000  1
  N  N51  1  0.25000000  0.49042800  0.25000000  1
  N  N52  1  0.25000000  0.25000000  0.00957200  1
  N  N53  1  0.74042800  0.00000000  0.50000000  1
  N  N54  1  0.49042800  0.25000000  0.25000000  1
  N  N55  1  0.00000000  0.00000000  0.24042800  1
  N  N56  1  0.50000000  0.24042800  0.50000000  1
  N  N57  1  0.00957200  0.25000000  0.25000000  1
  N  N58  1  0.25957200  0.00000000  0.50000000  1
  N  N59  1  0.50000000  0.75957200  0.50000000  1
  N  N60  1  0.50000000  0.50000000  0.75957200  1
  N  N61  1  0.25000000  0.75000000  0.99042800  1
  N  N62  1  0.25000000  0.50957200  0.75000000  1
  N  N63  1  0.25000000  0.99042800  0.75000000  1
  N  N64  1  0.25000000  0.75000000  0.50957200  1
  N  N65  1  0.74042800  0.50000000  0.00000000  1
  N  N66  1  0.49042800  0.75000000  0.75000000  1
  N  N67  1  0.00000000  0.50000000  0.74042800  1
  N  N68  1  0.50000000  0.74042800  0.00000000  1
  N  N69  1  0.00957200  0.75000000  0.75000000  1
  N  N70  1  0.25957200  0.50000000  0.00000000  1
  N  N71  1  0.50000000  0.25957200  0.00000000  1
  N  N72  1  0.00000000  0.00000000  0.75957200  1
  N  N73  1  0.75000000  0.25000000  0.99042800  1
  N  N74  1  0.75000000  0.00957200  0.75000000  1
  N  N75  1  0.75000000  0.49042800  0.75000000  1
  N  N76  1  0.75000000  0.25000000  0.50957200  1
  N  N77  1  0.24042800  0.00000000  0.00000000  1
  N  N78  1  0.99042800  0.25000000  0.75000000  1
  N  N79  1  0.50000000  0.00000000  0.74042800  1
  N  N80  1  0.00000000  0.24042800  0.00000000  1
  N  N81  1  0.50957200  0.25000000  0.75000000  1
  N  N82  1  0.75957200  0.00000000  0.00000000  1
  N  N83  1  0.00000000  0.75957200  0.00000000  1
  N  N84  1  0.00000000  0.50000000  0.25957200  1
  N  N85  1  0.75000000  0.75000000  0.49042800  1
  N  N86  1  0.75000000  0.50957200  0.25000000  1
  N  N87  1  0.75000000  0.99042800  0.25000000  1
  N  N88  1  0.75000000  0.75000000  0.00957200  1
  N  N89  1  0.24042800  0.50000000  0.50000000  1
  N  N90  1  0.99042800  0.75000000  0.25000000  1
  N  N91  1  0.50000000  0.50000000  0.24042800  1
  N  N92  1  0.00000000  0.74042800  0.50000000  1
  N  N93  1  0.50957200  0.75000000  0.25000000  1
  N  N94  1  0.75957200  0.50000000  0.50000000  1
  N  N95  1  0.00000000  0.25957200  0.50000000  1
  O  O96  1  0.54907150  0.72003400  0.45092850  1
  O  O97  1  0.77996600  0.95092850  0.45092850  1
  O  O98  1  0.34021400  0.00000000  0.50000000  1
  O  O99  1  0.02996600  0.79907150  0.20092850  1
  O  O100  1  0.04907150  0.04907150  0.27996600  1
  O  O101  1  0.45092850  0.27996600  0.45092850  1
  O  O102  1  0.79907150  0.20092850  0.02996600  1
  O  O103  1  0.29907150  0.97003400  0.29907150  1
  O  O104  1  0.25000000  0.09021400  0.25000000  1
  O  O105  1  0.50000000  0.84021400  0.50000000  1
  O  O106  1  0.50000000  0.00000000  0.34021400  1
  O  O107  1  0.70092850  0.20092850  0.47003400  1
  O  O108  1  0.27996600  0.04907150  0.04907150  1
  O  O109  1  0.65978600  0.00000000  0.50000000  1
  O  O110  1  0.50000000  0.15978600  0.50000000  1
  O  O111  1  0.20092850  0.97003400  0.20092850  1
  O  O112  1  0.72003400  0.95092850  0.04907150  1
  O  O113  1  0.09021400  0.25000000  0.25000000  1
  O  O114  1  0.47003400  0.79907150  0.29907150  1
  O  O115  1  0.54907150  0.95092850  0.22003400  1
  O  O116  1  0.79907150  0.02996600  0.20092850  1
  O  O117  1  0.29907150  0.79907150  0.47003400  1
  O  O118  1  0.20092850  0.79907150  0.02996600  1
  O  O119  1  0.70092850  0.02996600  0.29907150  1
  O  O120  1  0.25000000  0.25000000  0.09021400  1
  O  O121  1  0.40978600  0.25000000  0.25000000  1
  O  O122  1  0.25000000  0.75000000  0.25000000  1
  O  O123  1  0.00000000  0.00000000  0.15978600  1
  O  O124  1  0.25000000  0.40978600  0.25000000  1
  O  O125  1  0.97003400  0.20092850  0.20092850  1
  O  O126  1  0.52996600  0.20092850  0.29907150  1
  O  O127  1  0.95092850  0.72003400  0.04907150  1
  O  O128  1  0.00000000  0.00000000  0.50000000  1
  O  O129  1  0.04907150  0.27996600  0.04907150  1
  O  O130  1  0.45092850  0.04907150  0.22003400  1
  O  O131  1  0.22003400  0.04907150  0.45092850  1
  O  O132  1  0.95092850  0.95092850  0.27996600  1
  O  O133  1  0.25000000  0.25000000  0.40978600  1
  O  O134  1  0.54907150  0.22003400  0.95092850  1
  O  O135  1  0.77996600  0.45092850  0.95092850  1
  O  O136  1  0.34021400  0.50000000  0.00000000  1
  O  O137  1  0.02996600  0.29907150  0.70092850  1
  O  O138  1  0.04907150  0.54907150  0.77996600  1
  O  O139  1  0.45092850  0.77996600  0.95092850  1
  O  O140  1  0.79907150  0.70092850  0.52996600  1
  O  O141  1  0.29907150  0.47003400  0.79907150  1
  O  O142  1  0.25000000  0.59021400  0.75000000  1
  O  O143  1  0.50000000  0.34021400  0.00000000  1
  O  O144  1  0.50000000  0.50000000  0.84021400  1
  O  O145  1  0.70092850  0.70092850  0.97003400  1
  O  O146  1  0.27996600  0.54907150  0.54907150  1
  O  O147  1  0.65978600  0.50000000  0.00000000  1
  O  O148  1  0.50000000  0.65978600  0.00000000  1
  O  O149  1  0.20092850  0.47003400  0.70092850  1
  O  O150  1  0.72003400  0.45092850  0.54907150  1
  O  O151  1  0.09021400  0.75000000  0.75000000  1
  O  O152  1  0.47003400  0.29907150  0.79907150  1
  O  O153  1  0.54907150  0.45092850  0.72003400  1
  O  O154  1  0.79907150  0.52996600  0.70092850  1
  O  O155  1  0.29907150  0.29907150  0.97003400  1
  O  O156  1  0.20092850  0.29907150  0.52996600  1
  O  O157  1  0.70092850  0.52996600  0.79907150  1
  O  O158  1  0.25000000  0.75000000  0.59021400  1
  O  O159  1  0.40978600  0.75000000  0.75000000  1
  O  O160  1  0.25000000  0.25000000  0.75000000  1
  O  O161  1  0.00000000  0.50000000  0.65978600  1
  O  O162  1  0.25000000  0.90978600  0.75000000  1
  O  O163  1  0.97003400  0.70092850  0.70092850  1
  O  O164  1  0.52996600  0.70092850  0.79907150  1
  O  O165  1  0.95092850  0.22003400  0.54907150  1
  O  O166  1  0.00000000  0.50000000  0.00000000  1
  O  O167  1  0.04907150  0.77996600  0.54907150  1
  O  O168  1  0.45092850  0.54907150  0.72003400  1
  O  O169  1  0.22003400  0.54907150  0.95092850  1
  O  O170  1  0.95092850  0.45092850  0.77996600  1
  O  O171  1  0.25000000  0.75000000  0.90978600  1
  O  O172  1  0.04907150  0.72003400  0.95092850  1
  O  O173  1  0.27996600  0.95092850  0.95092850  1
  O  O174  1  0.84021400  0.00000000  0.00000000  1
  O  O175  1  0.52996600  0.79907150  0.70092850  1
  O  O176  1  0.54907150  0.04907150  0.77996600  1
  O  O177  1  0.95092850  0.27996600  0.95092850  1
  O  O178  1  0.29907150  0.20092850  0.52996600  1
  O  O179  1  0.79907150  0.97003400  0.79907150  1
  O  O180  1  0.75000000  0.09021400  0.75000000  1
  O  O181  1  0.00000000  0.84021400  0.00000000  1
  O  O182  1  0.00000000  0.00000000  0.84021400  1
  O  O183  1  0.20092850  0.20092850  0.97003400  1
  O  O184  1  0.77996600  0.04907150  0.54907150  1
  O  O185  1  0.15978600  0.00000000  0.00000000  1
  O  O186  1  0.00000000  0.15978600  0.00000000  1
  O  O187  1  0.70092850  0.97003400  0.70092850  1
  O  O188  1  0.22003400  0.95092850  0.54907150  1
  O  O189  1  0.59021400  0.25000000  0.75000000  1
  O  O190  1  0.97003400  0.79907150  0.79907150  1
  O  O191  1  0.04907150  0.95092850  0.72003400  1
  O  O192  1  0.29907150  0.02996600  0.70092850  1
  O  O193  1  0.79907150  0.79907150  0.97003400  1
  O  O194  1  0.70092850  0.79907150  0.52996600  1
  O  O195  1  0.20092850  0.02996600  0.79907150  1
  O  O196  1  0.75000000  0.25000000  0.59021400  1
  O  O197  1  0.90978600  0.25000000  0.75000000  1
  O  O198  1  0.75000000  0.75000000  0.75000000  1
  O  O199  1  0.50000000  0.00000000  0.65978600  1
  O  O200  1  0.75000000  0.40978600  0.75000000  1
  O  O201  1  0.47003400  0.20092850  0.70092850  1
  O  O202  1  0.02996600  0.20092850  0.79907150  1
  O  O203  1  0.45092850  0.72003400  0.54907150  1
  O  O204  1  0.50000000  0.00000000  0.00000000  1
  O  O205  1  0.54907150  0.27996600  0.54907150  1
  O  O206  1  0.95092850  0.04907150  0.72003400  1
  O  O207  1  0.72003400  0.04907150  0.95092850  1
  O  O208  1  0.45092850  0.95092850  0.77996600  1
  O  O209  1  0.75000000  0.25000000  0.90978600  1
  O  O210  1  0.04907150  0.22003400  0.45092850  1
  O  O211  1  0.27996600  0.45092850  0.45092850  1
  O  O212  1  0.84021400  0.50000000  0.50000000  1
  O  O213  1  0.52996600  0.29907150  0.20092850  1
  O  O214  1  0.54907150  0.54907150  0.27996600  1
  O  O215  1  0.95092850  0.77996600  0.45092850  1
  O  O216  1  0.29907150  0.70092850  0.02996600  1
  O  O217  1  0.79907150  0.47003400  0.29907150  1
  O  O218  1  0.75000000  0.59021400  0.25000000  1
  O  O219  1  0.00000000  0.34021400  0.50000000  1
  O  O220  1  0.00000000  0.50000000  0.34021400  1
  O  O221  1  0.20092850  0.70092850  0.47003400  1
  O  O222  1  0.77996600  0.54907150  0.04907150  1
  O  O223  1  0.15978600  0.50000000  0.50000000  1
  O  O224  1  0.00000000  0.65978600  0.50000000  1
  O  O225  1  0.70092850  0.47003400  0.20092850  1
  O  O226  1  0.22003400  0.45092850  0.04907150  1
  O  O227  1  0.59021400  0.75000000  0.25000000  1
  O  O228  1  0.97003400  0.29907150  0.29907150  1
  O  O229  1  0.04907150  0.45092850  0.22003400  1
  O  O230  1  0.29907150  0.52996600  0.20092850  1
  O  O231  1  0.79907150  0.29907150  0.47003400  1
  O  O232  1  0.70092850  0.29907150  0.02996600  1
  O  O233  1  0.20092850  0.52996600  0.29907150  1
  O  O234  1  0.75000000  0.75000000  0.09021400  1
  O  O235  1  0.90978600  0.75000000  0.25000000  1
  O  O236  1  0.75000000  0.25000000  0.25000000  1
  O  O237  1  0.50000000  0.50000000  0.15978600  1
  O  O238  1  0.75000000  0.90978600  0.25000000  1
  O  O239  1  0.47003400  0.70092850  0.20092850  1
  O  O240  1  0.02996600  0.70092850  0.29907150  1
  O  O241  1  0.45092850  0.22003400  0.04907150  1
  O  O242  1  0.50000000  0.50000000  0.50000000  1
  O  O243  1  0.54907150  0.77996600  0.04907150  1
  O  O244  1  0.95092850  0.54907150  0.22003400  1
  O  O245  1  0.72003400  0.54907150  0.45092850  1
  O  O246  1  0.45092850  0.45092850  0.27996600  1
  O  O247  1  0.75000000  0.75000000  0.40978600  1
