# generated using pymatgen
data_NaTeH6O6F
_symmetry_space_group_name_H-M   'P 1'
_cell_length_a   6.10343195
_cell_length_b   6.10343195
_cell_length_c   13.47559288
_cell_angle_alpha   90.00000000
_cell_angle_beta   90.00000000
_cell_angle_gamma   120.00000000
_symmetry_Int_Tables_number   1
_chemical_formula_structural   NaTeH6O6F
_chemical_formula_sum   'Na3 Te3 H18 O18 F3'
_cell_volume   434.73712346
_cell_formula_units_Z   3
loop_
 _symmetry_equiv_pos_site_id
 _symmetry_equiv_pos_as_xyz
  1  'x, y, z'
loop_
 _atom_site_type_symbol
 _atom_site_label
 _atom_site_symmetry_multiplicity
 _atom_site_fract_x
 _atom_site_fract_y
 _atom_site_fract_z
 _atom_site_occupancy
  Na  Na0  1  0.33333333  0.66666667  0.29044867  1
  Na  Na1  1  0.00000000  0.00000000  0.62378200  1
  Na  Na2  1  0.66666667  0.33333333  0.95711533  1
  Te  Te3  1  0.33333333  0.66666667  0.66384867  1
  Te  Te4  1  0.00000000  0.00000000  0.99718200  1
  Te  Te5  1  0.66666667  0.33333333  0.33051533  1
  H  H6  1  0.79243500  0.14612600  0.19108900  1
  H  H7  1  0.35369100  0.20756500  0.19108900  1
  H  H8  1  0.85387400  0.64630900  0.19108900  1
  H  H9  1  0.11360067  0.40821233  0.08757933  1
  H  H10  1  0.29461167  0.88639933  0.08757933  1
  H  H11  1  0.59178767  0.70538833  0.08757933  1
  H  H12  1  0.45910167  0.47945933  0.52442233  1
  H  H13  1  0.02035767  0.54089833  0.52442233  1
  H  H14  1  0.52054067  0.97964233  0.52442233  1
  H  H15  1  0.78026733  0.74154567  0.42091267  1
  H  H16  1  0.96127833  0.21973267  0.42091267  1
  H  H17  1  0.25845433  0.03872167  0.42091267  1
  H  H18  1  0.12576833  0.81279267  0.85775567  1
  H  H19  1  0.68702433  0.87423167  0.85775567  1
  H  H20  1  0.18720733  0.31297567  0.85775567  1
  H  H21  1  0.44693400  0.07487900  0.75424600  1
  H  H22  1  0.62794500  0.55306600  0.75424600  1
  H  H23  1  0.92512100  0.37205500  0.75424600  1
  O  O24  1  0.68363767  0.07513033  0.25156733  1
  O  O25  1  0.39149267  0.31636233  0.25156733  1
  O  O26  1  0.92486967  0.60850733  0.25156733  1
  O  O27  1  0.94987133  0.23682367  0.07912267  1
  O  O28  1  0.28695233  0.05012867  0.07912267  1
  O  O29  1  0.76317633  0.71304767  0.07912267  1
  O  O30  1  0.35030433  0.40846367  0.58490067  1
  O  O31  1  0.05815933  0.64969567  0.58490067  1
  O  O32  1  0.59153633  0.94184067  0.58490067  1
  O  O33  1  0.61653800  0.57015700  0.41245600  1
  O  O34  1  0.95361900  0.38346200  0.41245600  1
  O  O35  1  0.42984300  0.04638100  0.41245600  1
  O  O36  1  0.01697100  0.74179700  0.91823400  1
  O  O37  1  0.72482600  0.98302900  0.91823400  1
  O  O38  1  0.25820300  0.27517400  0.91823400  1
  O  O39  1  0.28320467  0.90349033  0.74578933  1
  O  O40  1  0.62028567  0.71679533  0.74578933  1
  O  O41  1  0.09650967  0.37971433  0.74578933  1
  F  F42  1  0.33333333  0.66666667  0.11052967  1
  F  F43  1  0.00000000  0.00000000  0.44386300  1
  F  F44  1  0.66666667  0.33333333  0.77719633  1
