# generated using pymatgen
data_HfTl8(MoO4)6
_symmetry_space_group_name_H-M   'P 1'
_cell_length_a   10.18601800
_cell_length_b   19.23878800
_cell_length_c   8.00524455
_cell_angle_alpha   90.00000000
_cell_angle_beta   108.61787379
_cell_angle_gamma   90.00000000
_symmetry_Int_Tables_number   1
_chemical_formula_structural   HfTl8(MoO4)6
_chemical_formula_sum   'Hf2 Tl16 Mo12 O48'
_cell_volume   1486.66584290
_cell_formula_units_Z   2
loop_
 _symmetry_equiv_pos_site_id
 _symmetry_equiv_pos_as_xyz
  1  'x, y, z'
loop_
 _atom_site_type_symbol
 _atom_site_label
 _atom_site_symmetry_multiplicity
 _atom_site_fract_x
 _atom_site_fract_y
 _atom_site_fract_z
 _atom_site_occupancy
  Hf  Hf0  1  0.00000000  0.00000000  0.00000000  1
  Hf  Hf1  1  0.50000000  0.50000000  0.00000000  1
  Tl  Tl2  1  0.21487300  0.00000000  0.64114100  1
  Tl  Tl3  1  0.18978350  0.67384550  0.10311900  1
  Tl  Tl4  1  0.50000000  0.83360500  0.50000000  1
  Tl  Tl5  1  0.78512700  0.00000000  0.35885900  1
  Tl  Tl6  1  0.31021650  0.82615450  0.89688100  1
  Tl  Tl7  1  0.00000000  0.66639500  0.50000000  1
  Tl  Tl8  1  0.68978350  0.82615450  0.10311900  1
  Tl  Tl9  1  0.81021650  0.67384550  0.89688100  1
  Tl  Tl10  1  0.71487300  0.50000000  0.64114100  1
  Tl  Tl11  1  0.68978350  0.17384550  0.10311900  1
  Tl  Tl12  1  0.00000000  0.33360500  0.50000000  1
  Tl  Tl13  1  0.28512700  0.50000000  0.35885900  1
  Tl  Tl14  1  0.81021650  0.32615450  0.89688100  1
  Tl  Tl15  1  0.50000000  0.16639500  0.50000000  1
  Tl  Tl16  1  0.18978350  0.32615450  0.10311900  1
  Tl  Tl17  1  0.31021650  0.17384550  0.89688100  1
  Mo  Mo18  1  0.60202850  0.65774850  0.29166900  1
  Mo  Mo19  1  0.89797150  0.84225150  0.70833100  1
  Mo  Mo20  1  0.61253700  0.00000000  0.78674800  1
  Mo  Mo21  1  0.39797150  0.65774850  0.70833100  1
  Mo  Mo22  1  0.10202850  0.84225150  0.29166900  1
  Mo  Mo23  1  0.38746300  0.00000000  0.21325200  1
  Mo  Mo24  1  0.10202850  0.15774850  0.29166900  1
  Mo  Mo25  1  0.39797150  0.34225150  0.70833100  1
  Mo  Mo26  1  0.11253700  0.50000000  0.78674800  1
  Mo  Mo27  1  0.89797150  0.15774850  0.70833100  1
  Mo  Mo28  1  0.60202850  0.34225150  0.29166900  1
  Mo  Mo29  1  0.88746300  0.50000000  0.21325200  1
  O  O30  1  0.98416700  0.92472800  0.80771400  1
  O  O31  1  0.75989300  0.82470400  0.79258200  1
  O  O32  1  0.48416700  0.57527200  0.80771400  1
  O  O33  1  0.48699400  0.72994200  0.22915700  1
  O  O34  1  0.51583300  0.57527200  0.19228600  1
  O  O35  1  0.01300600  0.77005800  0.77084300  1
  O  O36  1  0.32714300  0.65015500  0.47442600  1
  O  O37  1  0.48785250  0.92535750  0.20044100  1
  O  O38  1  0.67285700  0.65015500  0.52557400  1
  O  O39  1  0.98699400  0.77005800  0.22915700  1
  O  O40  1  0.24010700  0.82470400  0.20741800  1
  O  O41  1  0.01214750  0.57464250  0.79955900  1
  O  O42  1  0.78507900  0.00000000  0.96408300  1
  O  O43  1  0.51300600  0.72994200  0.77084300  1
  O  O44  1  0.17285700  0.84984500  0.52557400  1
  O  O45  1  0.98785250  0.57464250  0.20044100  1
  O  O46  1  0.82714300  0.84984500  0.47442600  1
  O  O47  1  0.25989300  0.67529600  0.79258200  1
  O  O48  1  0.74010700  0.67529600  0.20741800  1
  O  O49  1  0.34953300  0.00000000  0.41488800  1
  O  O50  1  0.21492100  0.00000000  0.03591700  1
  O  O51  1  0.01583300  0.92472800  0.19228600  1
  O  O52  1  0.65046700  0.00000000  0.58511200  1
  O  O53  1  0.51214750  0.92535750  0.79955900  1
  O  O54  1  0.48416700  0.42472800  0.80771400  1
  O  O55  1  0.25989300  0.32470400  0.79258200  1
  O  O56  1  0.98416700  0.07527200  0.80771400  1
  O  O57  1  0.98699400  0.22994200  0.22915700  1
  O  O58  1  0.01583300  0.07527200  0.19228600  1
  O  O59  1  0.51300600  0.27005800  0.77084300  1
  O  O60  1  0.82714300  0.15015500  0.47442600  1
  O  O61  1  0.98785250  0.42535750  0.20044100  1
  O  O62  1  0.17285700  0.15015500  0.52557400  1
  O  O63  1  0.48699400  0.27005800  0.22915700  1
  O  O64  1  0.74010700  0.32470400  0.20741800  1
  O  O65  1  0.51214750  0.07464250  0.79955900  1
  O  O66  1  0.28507900  0.50000000  0.96408300  1
  O  O67  1  0.01300600  0.22994200  0.77084300  1
  O  O68  1  0.67285700  0.34984500  0.52557400  1
  O  O69  1  0.48785250  0.07464250  0.20044100  1
  O  O70  1  0.32714300  0.34984500  0.47442600  1
  O  O71  1  0.75989300  0.17529600  0.79258200  1
  O  O72  1  0.24010700  0.17529600  0.20741800  1
  O  O73  1  0.84953300  0.50000000  0.41488800  1
  O  O74  1  0.71492100  0.50000000  0.03591700  1
  O  O75  1  0.51583300  0.42472800  0.19228600  1
  O  O76  1  0.15046700  0.50000000  0.58511200  1
  O  O77  1  0.01214750  0.42535750  0.79955900  1
