# generated using pymatgen
data_Tl9BiSe6
_symmetry_space_group_name_H-M   'P 1'
_cell_length_a   8.58931000
_cell_length_b   8.58931000
_cell_length_c   13.27089200
_cell_angle_alpha   90.00000000
_cell_angle_beta   90.00000000
_cell_angle_gamma   90.00000000
_symmetry_Int_Tables_number   1
_chemical_formula_structural   Tl9BiSe6
_chemical_formula_sum   'Tl18 Bi2 Se12'
_cell_volume   979.07659650
_cell_formula_units_Z   2
loop_
 _symmetry_equiv_pos_site_id
 _symmetry_equiv_pos_as_xyz
  1  'x, y, z'
loop_
 _atom_site_type_symbol
 _atom_site_label
 _atom_site_symmetry_multiplicity
 _atom_site_fract_x
 _atom_site_fract_y
 _atom_site_fract_z
 _atom_site_occupancy
  Tl  Tl0  1  0.14638200  0.65319900  0.34689100  1
  Tl  Tl1  1  0.84680100  0.64638200  0.15310900  1
  Tl  Tl2  1  0.00000000  0.00000000  0.00000000  1
  Tl  Tl3  1  0.85361800  0.34680100  0.34689100  1
  Tl  Tl4  1  0.15319900  0.35361800  0.15310900  1
  Tl  Tl5  1  0.34680100  0.14638200  0.34689100  1
  Tl  Tl6  1  0.64638200  0.15319900  0.15310900  1
  Tl  Tl7  1  0.65319900  0.85361800  0.34689100  1
  Tl  Tl8  1  0.35361800  0.84680100  0.15310900  1
  Tl  Tl9  1  0.64638200  0.15319900  0.84689100  1
  Tl  Tl10  1  0.34680100  0.14638200  0.65310900  1
  Tl  Tl11  1  0.50000000  0.50000000  0.50000000  1
  Tl  Tl12  1  0.35361800  0.84680100  0.84689100  1
  Tl  Tl13  1  0.65319900  0.85361800  0.65310900  1
  Tl  Tl14  1  0.84680100  0.64638200  0.84689100  1
  Tl  Tl15  1  0.14638200  0.65319900  0.65310900  1
  Tl  Tl16  1  0.15319900  0.35361800  0.84689100  1
  Tl  Tl17  1  0.85361800  0.34680100  0.65310900  1
  Bi  Bi18  1  0.50000000  0.50000000  0.00000000  1
  Bi  Bi19  1  0.00000000  0.00000000  0.50000000  1
  Se  Se20  1  0.50000000  0.50000000  0.22724500  1
  Se  Se21  1  0.14858550  0.31996550  0.50000000  1
  Se  Se22  1  0.18003450  0.64858550  0.00000000  1
  Se  Se23  1  0.00000000  0.00000000  0.27275500  1
  Se  Se24  1  0.81996550  0.35141450  0.00000000  1
  Se  Se25  1  0.35141450  0.18003450  0.00000000  1
  Se  Se26  1  0.00000000  0.00000000  0.72724500  1
  Se  Se27  1  0.64858550  0.81996550  0.00000000  1
  Se  Se28  1  0.68003450  0.14858550  0.50000000  1
  Se  Se29  1  0.50000000  0.50000000  0.77275500  1
  Se  Se30  1  0.31996550  0.85141450  0.50000000  1
  Se  Se31  1  0.85141450  0.68003450  0.50000000  1
