# generated using pymatgen
data_P2O5
_symmetry_space_group_name_H-M   'P 1'
_cell_length_a   8.18541300
_cell_length_b   8.22124279
_cell_length_c   8.47116094
_cell_angle_alpha   89.58349885
_cell_angle_beta   89.97636788
_cell_angle_gamma   88.06111613
_symmetry_Int_Tables_number   1
_chemical_formula_structural   P2O5
_chemical_formula_sum   'P8 O20'
_cell_volume   569.71914142
_cell_formula_units_Z   4
loop_
 _symmetry_equiv_pos_site_id
 _symmetry_equiv_pos_as_xyz
  1  'x, y, z'
loop_
 _atom_site_type_symbol
 _atom_site_label
 _atom_site_symmetry_multiplicity
 _atom_site_fract_x
 _atom_site_fract_y
 _atom_site_fract_z
 _atom_site_occupancy
  P  P0  1  0.01541900  0.27181400  0.02361700  1
  P  P1  1  0.27335600  0.99940100  0.02626000  1
  P  P2  1  0.96213500  0.98395200  0.20370000  1
  P  P3  1  0.89347500  0.88899200  0.86819500  1
  P  P4  1  0.78306400  0.50682500  0.51936900  1
  P  P5  1  0.48948400  0.46367700  0.70494000  1
  P  P6  1  0.38279400  0.40149600  0.36704900  1
  P  P7  1  0.51100600  0.76642100  0.52796200  1
  O  O8  1  0.28568300  0.56414600  0.33778100  1
  O  O9  1  0.28723900  0.26647000  0.30318200  1
  O  O10  1  0.43024700  0.40271300  0.85466000  1
  O  O11  1  0.06540000  0.78552900  0.86453000  1
  O  O12  1  0.85834200  0.92589600  0.05560500  1
  O  O13  1  0.89915100  0.25408100  0.88535100  1
  O  O14  1  0.68218900  0.44785300  0.67784600  1
  O  O15  1  0.90360300  0.05193400  0.77758900  1
  O  O16  1  0.77233000  0.77335900  0.80933700  1
  O  O17  1  0.95501900  0.18035200  0.18328500  1
  O  O18  1  0.38308700  0.76291700  0.39737100  1
  O  O19  1  0.23314000  0.88000700  0.88343600  1
  O  O20  1  0.68095200  0.67842400  0.47573300  1
  O  O21  1  0.41990700  0.37272600  0.55310400  1
  O  O22  1  0.56127200  0.41530300  0.28375500  1
  O  O23  1  0.90323400  0.92874200  0.35678500  1
  O  O24  1  0.14840700  0.93482400  0.16450500  1
  O  O25  1  0.18492100  0.18111900  0.98142400  1
  O  O26  1  0.44683600  0.65474200  0.67432800  1
  O  O27  1  0.72431000  0.39228600  0.37529900  1
