# generated using pymatgen
data_RbTeNO3F4
_symmetry_space_group_name_H-M   'P 1'
_cell_length_a   8.20974300
_cell_length_b   8.36746458
_cell_length_c   10.79590082
_cell_angle_alpha   109.38868992
_cell_angle_beta   89.31481623
_cell_angle_gamma   108.01928397
_symmetry_Int_Tables_number   1
_chemical_formula_structural   RbTeNO3F4
_chemical_formula_sum   'Rb4 Te4 N4 O12 F16'
_cell_volume   661.83906462
_cell_formula_units_Z   4
loop_
 _symmetry_equiv_pos_site_id
 _symmetry_equiv_pos_as_xyz
  1  'x, y, z'
loop_
 _atom_site_type_symbol
 _atom_site_label
 _atom_site_symmetry_multiplicity
 _atom_site_fract_x
 _atom_site_fract_y
 _atom_site_fract_z
 _atom_site_occupancy
  Rb  Rb0  1  0.11728100  0.25904600  0.77775700  1
  Rb  Rb1  1  0.59881000  0.23382300  0.85199100  1
  Rb  Rb2  1  0.40119000  0.76617700  0.14800900  1
  Rb  Rb3  1  0.88271900  0.74095400  0.22224300  1
  Te  Te4  1  0.18010300  0.75971000  0.53884100  1
  Te  Te5  1  0.68414200  0.75841400  0.82948000  1
  Te  Te6  1  0.31585800  0.24158600  0.17052000  1
  Te  Te7  1  0.81989700  0.24029000  0.46115900  1
  N  N8  1  0.01591100  0.67378900  0.87255300  1
  N  N9  1  0.48246200  0.32977600  0.53855600  1
  N  N10  1  0.51753800  0.67022400  0.46144400  1
  N  N11  1  0.98408900  0.32621100  0.12744700  1
  O  O12  1  0.36913600  0.39391300  0.58751900  1
  O  O13  1  0.63086400  0.60608700  0.41248100  1
  O  O14  1  0.14885800  0.64045300  0.89397200  1
  O  O15  1  0.01903500  0.79514300  0.82590200  1
  O  O16  1  0.36816700  0.61763900  0.39176200  1
  O  O17  1  0.46368400  0.21668900  0.42414300  1
  O  O18  1  0.13184100  0.41565200  0.10227400  1
  O  O19  1  0.63183300  0.38236100  0.60823800  1
  O  O20  1  0.98096500  0.20485700  0.17409800  1
  O  O21  1  0.85114200  0.35954700  0.10602800  1
  O  O22  1  0.53631600  0.78331100  0.57585700  1
  O  O23  1  0.86815900  0.58434800  0.89772600  1
  F  F24  1  0.01440700  0.15556100  0.42481400  1
  F  F25  1  0.26771500  0.14347600  0.98205600  1
  F  F26  1  0.98895200  0.43951000  0.60490800  1
  F  F27  1  0.01104800  0.56049000  0.39509200  1
  F  F28  1  0.78427400  0.13920000  0.59840800  1
  F  F29  1  0.30910600  0.01589100  0.65011000  1
  F  F30  1  0.81237200  0.01264300  0.84569400  1
  F  F31  1  0.98559300  0.84443900  0.57518600  1
  F  F32  1  0.18762800  0.98735700  0.15430600  1
  F  F33  1  0.50943900  0.56484600  0.87867700  1
  F  F34  1  0.73228500  0.85652400  0.01794400  1
  F  F35  1  0.49476400  0.85258100  0.84636000  1
  F  F36  1  0.50523600  0.14741900  0.15364000  1
  F  F37  1  0.69089400  0.98410900  0.34989000  1
  F  F38  1  0.49056100  0.43515400  0.12132300  1
  F  F39  1  0.21572600  0.86080000  0.40159200  1
