# generated using pymatgen
data_TlPbCl3
_symmetry_space_group_name_H-M   'P 1'
_cell_length_a   15.74996200
_cell_length_b   16.96173200
_cell_length_c   17.26782000
_cell_angle_alpha   90.00000000
_cell_angle_beta   90.00000000
_cell_angle_gamma   90.00000000
_symmetry_Int_Tables_number   1
_chemical_formula_structural   TlPbCl3
_chemical_formula_sum   'Tl32 Pb32 Cl96'
_cell_volume   4613.03999736
_cell_formula_units_Z   32
loop_
 _symmetry_equiv_pos_site_id
 _symmetry_equiv_pos_as_xyz
  1  'x, y, z'
loop_
 _atom_site_type_symbol
 _atom_site_label
 _atom_site_symmetry_multiplicity
 _atom_site_fract_x
 _atom_site_fract_y
 _atom_site_fract_z
 _atom_site_occupancy
  Tl  Tl0  1  0.18517900  0.00000000  0.65943100  1
  Tl  Tl1  1  0.81482100  0.00000000  0.65943100  1
  Tl  Tl2  1  0.68775650  0.16180850  0.50086300  1
  Tl  Tl3  1  0.68775650  0.83819150  0.50086300  1
  Tl  Tl4  1  0.50000000  0.75069600  0.75334600  1
  Tl  Tl5  1  0.31224350  0.16180850  0.50086300  1
  Tl  Tl6  1  0.31224350  0.83819150  0.50086300  1
  Tl  Tl7  1  0.50000000  0.24930400  0.75334600  1
  Tl  Tl8  1  0.18517900  0.50000000  0.15943100  1
  Tl  Tl9  1  0.81482100  0.50000000  0.15943100  1
  Tl  Tl10  1  0.68775650  0.66180850  0.00086300  1
  Tl  Tl11  1  0.68775650  0.33819150  0.00086300  1
  Tl  Tl12  1  0.50000000  0.25069600  0.25334600  1
  Tl  Tl13  1  0.31224350  0.66180850  0.00086300  1
  Tl  Tl14  1  0.31224350  0.33819150  0.00086300  1
  Tl  Tl15  1  0.50000000  0.74930400  0.25334600  1
  Tl  Tl16  1  0.68517900  0.00000000  0.15943100  1
  Tl  Tl17  1  0.31482100  0.00000000  0.15943100  1
  Tl  Tl18  1  0.18775650  0.16180850  0.00086300  1
  Tl  Tl19  1  0.18775650  0.83819150  0.00086300  1
  Tl  Tl20  1  0.00000000  0.75069600  0.25334600  1
  Tl  Tl21  1  0.81224350  0.16180850  0.00086300  1
  Tl  Tl22  1  0.81224350  0.83819150  0.00086300  1
  Tl  Tl23  1  0.00000000  0.24930400  0.25334600  1
  Tl  Tl24  1  0.68517900  0.50000000  0.65943100  1
  Tl  Tl25  1  0.31482100  0.50000000  0.65943100  1
  Tl  Tl26  1  0.18775650  0.66180850  0.50086300  1
  Tl  Tl27  1  0.18775650  0.33819150  0.50086300  1
  Tl  Tl28  1  0.00000000  0.25069600  0.75334600  1
  Tl  Tl29  1  0.81224350  0.66180850  0.50086300  1
  Tl  Tl30  1  0.81224350  0.33819150  0.50086300  1
  Tl  Tl31  1  0.00000000  0.74930400  0.75334600  1
  Pb  Pb32  1  0.25000000  0.25000000  0.75279400  1
  Pb  Pb33  1  0.50000000  0.00000000  0.63424900  1
  Pb  Pb34  1  0.00000000  0.85178650  0.50962650  1
  Pb  Pb35  1  0.67348500  0.00000000  0.83415800  1
  Pb  Pb36  1  0.00000000  0.14821350  0.50962650  1
  Pb  Pb37  1  0.32651500  0.00000000  0.83415800  1
  Pb  Pb38  1  0.00000000  0.00000000  0.85032900  1
  Pb  Pb39  1  0.25000000  0.75000000  0.75279400  1
  Pb  Pb40  1  0.25000000  0.75000000  0.25279400  1
  Pb  Pb41  1  0.50000000  0.50000000  0.13424900  1
  Pb  Pb42  1  0.00000000  0.35178650  0.00962650  1
  Pb  Pb43  1  0.67348500  0.50000000  0.33415800  1
  Pb  Pb44  1  0.00000000  0.64821350  0.00962650  1
  Pb  Pb45  1  0.32651500  0.50000000  0.33415800  1
  Pb  Pb46  1  0.00000000  0.50000000  0.35032900  1
  Pb  Pb47  1  0.25000000  0.25000000  0.25279400  1
  Pb  Pb48  1  0.75000000  0.25000000  0.25279400  1
  Pb  Pb49  1  0.00000000  0.00000000  0.13424900  1
  Pb  Pb50  1  0.50000000  0.85178650  0.00962650  1
  Pb  Pb51  1  0.17348500  0.00000000  0.33415800  1
  Pb  Pb52  1  0.50000000  0.14821350  0.00962650  1
  Pb  Pb53  1  0.82651500  0.00000000  0.33415800  1
  Pb  Pb54  1  0.50000000  0.00000000  0.35032900  1
  Pb  Pb55  1  0.75000000  0.75000000  0.25279400  1
  Pb  Pb56  1  0.75000000  0.75000000  0.75279400  1
  Pb  Pb57  1  0.00000000  0.50000000  0.63424900  1
  Pb  Pb58  1  0.50000000  0.35178650  0.50962650  1
  Pb  Pb59  1  0.17348500  0.50000000  0.83415800  1
  Pb  Pb60  1  0.50000000  0.64821350  0.50962650  1
  Pb  Pb61  1  0.82651500  0.50000000  0.83415800  1
  Pb  Pb62  1  0.50000000  0.50000000  0.85032900  1
  Pb  Pb63  1  0.75000000  0.25000000  0.75279400  1
  Cl  Cl64  1  0.36066400  0.11194750  0.68739050  1
  Cl  Cl65  1  0.86354500  0.81612050  0.62066650  1
  Cl  Cl66  1  0.00000000  0.00000000  0.68653100  1
  Cl  Cl67  1  0.13933600  0.38805250  0.68739050  1
  Cl  Cl68  1  0.13933600  0.61194750  0.68739050  1
  Cl  Cl69  1  0.50000000  0.69134650  0.99394550  1
  Cl  Cl70  1  0.13645500  0.18387950  0.62066650  1
  Cl  Cl71  1  0.13645500  0.81612050  0.62066650  1
  Cl  Cl72  1  0.11047350  0.00000000  0.99944150  1
  Cl  Cl73  1  0.62619900  0.00000000  0.98959900  1
  Cl  Cl74  1  0.36066400  0.88805250  0.68739050  1
  Cl  Cl75  1  0.86354500  0.18387950  0.62066650  1
  Cl  Cl76  1  0.63952300  0.82567250  0.87941150  1
  Cl  Cl77  1  0.14902700  0.11180550  0.81938650  1
  Cl  Cl78  1  0.88952650  0.00000000  0.99944150  1
  Cl  Cl79  1  0.37380100  0.00000000  0.98959900  1
  Cl  Cl80  1  0.36047700  0.17432750  0.87941150  1
  Cl  Cl81  1  0.36047700  0.82567250  0.87941150  1
  Cl  Cl82  1  0.50000000  0.30865350  0.99394550  1
  Cl  Cl83  1  0.35097300  0.38819450  0.81938650  1
  Cl  Cl84  1  0.35097300  0.61180550  0.81938650  1
  Cl  Cl85  1  0.50000000  0.00000000  0.81333400  1
  Cl  Cl86  1  0.63952300  0.17432750  0.87941150  1
  Cl  Cl87  1  0.14902700  0.88819450  0.81938650  1
  Cl  Cl88  1  0.36066400  0.61194750  0.18739050  1
  Cl  Cl89  1  0.86354500  0.31612050  0.12066650  1
  Cl  Cl90  1  0.00000000  0.50000000  0.18653100  1
  Cl  Cl91  1  0.13933600  0.88805250  0.18739050  1
  Cl  Cl92  1  0.13933600  0.11194750  0.18739050  1
  Cl  Cl93  1  0.50000000  0.19134650  0.49394550  1
  Cl  Cl94  1  0.13645500  0.68387950  0.12066650  1
  Cl  Cl95  1  0.13645500  0.31612050  0.12066650  1
  Cl  Cl96  1  0.11047350  0.50000000  0.49944150  1
  Cl  Cl97  1  0.62619900  0.50000000  0.48959900  1
  Cl  Cl98  1  0.36066400  0.38805250  0.18739050  1
  Cl  Cl99  1  0.86354500  0.68387950  0.12066650  1
  Cl  Cl100  1  0.63952300  0.32567250  0.37941150  1
  Cl  Cl101  1  0.14902700  0.61180550  0.31938650  1
  Cl  Cl102  1  0.88952650  0.50000000  0.49944150  1
  Cl  Cl103  1  0.37380100  0.50000000  0.48959900  1
  Cl  Cl104  1  0.36047700  0.67432750  0.37941150  1
  Cl  Cl105  1  0.36047700  0.32567250  0.37941150  1
  Cl  Cl106  1  0.50000000  0.80865350  0.49394550  1
  Cl  Cl107  1  0.35097300  0.88819450  0.31938650  1
  Cl  Cl108  1  0.35097300  0.11180550  0.31938650  1
  Cl  Cl109  1  0.50000000  0.50000000  0.31333400  1
  Cl  Cl110  1  0.63952300  0.67432750  0.37941150  1
  Cl  Cl111  1  0.14902700  0.38819450  0.31938650  1
  Cl  Cl112  1  0.86066400  0.11194750  0.18739050  1
  Cl  Cl113  1  0.36354500  0.81612050  0.12066650  1
  Cl  Cl114  1  0.50000000  0.00000000  0.18653100  1
  Cl  Cl115  1  0.63933600  0.38805250  0.18739050  1
  Cl  Cl116  1  0.63933600  0.61194750  0.18739050  1
  Cl  Cl117  1  0.00000000  0.69134650  0.49394550  1
  Cl  Cl118  1  0.63645500  0.18387950  0.12066650  1
  Cl  Cl119  1  0.63645500  0.81612050  0.12066650  1
  Cl  Cl120  1  0.61047350  0.00000000  0.49944150  1
  Cl  Cl121  1  0.12619900  0.00000000  0.48959900  1
  Cl  Cl122  1  0.86066400  0.88805250  0.18739050  1
  Cl  Cl123  1  0.36354500  0.18387950  0.12066650  1
  Cl  Cl124  1  0.13952300  0.82567250  0.37941150  1
  Cl  Cl125  1  0.64902700  0.11180550  0.31938650  1
  Cl  Cl126  1  0.38952650  0.00000000  0.49944150  1
  Cl  Cl127  1  0.87380100  0.00000000  0.48959900  1
  Cl  Cl128  1  0.86047700  0.17432750  0.37941150  1
  Cl  Cl129  1  0.86047700  0.82567250  0.37941150  1
  Cl  Cl130  1  0.00000000  0.30865350  0.49394550  1
  Cl  Cl131  1  0.85097300  0.38819450  0.31938650  1
  Cl  Cl132  1  0.85097300  0.61180550  0.31938650  1
  Cl  Cl133  1  0.00000000  0.00000000  0.31333400  1
  Cl  Cl134  1  0.13952300  0.17432750  0.37941150  1
  Cl  Cl135  1  0.64902700  0.88819450  0.31938650  1
  Cl  Cl136  1  0.86066400  0.61194750  0.68739050  1
  Cl  Cl137  1  0.36354500  0.31612050  0.62066650  1
  Cl  Cl138  1  0.50000000  0.50000000  0.68653100  1
  Cl  Cl139  1  0.63933600  0.88805250  0.68739050  1
  Cl  Cl140  1  0.63933600  0.11194750  0.68739050  1
  Cl  Cl141  1  0.00000000  0.19134650  0.99394550  1
  Cl  Cl142  1  0.63645500  0.68387950  0.62066650  1
  Cl  Cl143  1  0.63645500  0.31612050  0.62066650  1
  Cl  Cl144  1  0.61047350  0.50000000  0.99944150  1
  Cl  Cl145  1  0.12619900  0.50000000  0.98959900  1
  Cl  Cl146  1  0.86066400  0.38805250  0.68739050  1
  Cl  Cl147  1  0.36354500  0.68387950  0.62066650  1
  Cl  Cl148  1  0.13952300  0.32567250  0.87941150  1
  Cl  Cl149  1  0.64902700  0.61180550  0.81938650  1
  Cl  Cl150  1  0.38952650  0.50000000  0.99944150  1
  Cl  Cl151  1  0.87380100  0.50000000  0.98959900  1
  Cl  Cl152  1  0.86047700  0.67432750  0.87941150  1
  Cl  Cl153  1  0.86047700  0.32567250  0.87941150  1
  Cl  Cl154  1  0.00000000  0.80865350  0.99394550  1
  Cl  Cl155  1  0.85097300  0.88819450  0.81938650  1
  Cl  Cl156  1  0.85097300  0.11180550  0.81938650  1
  Cl  Cl157  1  0.00000000  0.50000000  0.81333400  1
  Cl  Cl158  1  0.13952300  0.67432750  0.87941150  1
  Cl  Cl159  1  0.64902700  0.38819450  0.81938650  1
