# generated using pymatgen
data_K3(MoO3)10
_symmetry_space_group_name_H-M   'P 1'
_cell_length_a   9.55653506
_cell_length_b   9.68994427
_cell_length_c   9.74778970
_cell_angle_alpha   111.93597063
_cell_angle_beta   100.82853234
_cell_angle_gamma   110.15705188
_symmetry_Int_Tables_number   1
_chemical_formula_structural   K3(MoO3)10
_chemical_formula_sum   'K3 Mo10 O30'
_cell_volume   732.23837413
_cell_formula_units_Z   1
loop_
 _symmetry_equiv_pos_site_id
 _symmetry_equiv_pos_as_xyz
  1  'x, y, z'
loop_
 _atom_site_type_symbol
 _atom_site_label
 _atom_site_symmetry_multiplicity
 _atom_site_fract_x
 _atom_site_fract_y
 _atom_site_fract_z
 _atom_site_occupancy
  K  K0  1  0.93308326  0.52874684  0.72333935  1
  K  K1  1  0.50000000  0.00000000  0.50000000  1
  K  K2  1  0.06691674  0.47125316  0.27666065  1
  Mo  Mo3  1  0.22088743  0.92010934  0.29871037  1
  Mo  Mo4  1  0.84065421  0.69224210  0.39726320  1
  Mo  Mo5  1  0.50641293  0.76071730  0.31476008  1
  Mo  Mo6  1  0.54042679  0.62244529  0.80018935  1
  Mo  Mo7  1  0.95098366  0.17460470  0.03688100  1
  Mo  Mo8  1  0.04901634  0.82539530  0.96311900  1
  Mo  Mo9  1  0.45957321  0.37755471  0.19981065  1
  Mo  Mo10  1  0.49358707  0.23928270  0.68523992  1
  Mo  Mo11  1  0.15934579  0.30775790  0.60273680  1
  Mo  Mo12  1  0.77911257  0.07989066  0.70128963  1
  O  O13  1  0.00787737  0.07544367  0.64511068  1
  O  O14  1  0.04356850  0.68169578  0.40817290  1
  O  O15  1  0.29075845  0.99558699  0.82661974  1
  O  O16  1  0.64312745  0.45731782  0.20976419  1
  O  O17  1  0.65548392  0.73768442  0.38052247  1
  O  O18  1  0.09051545  0.10410454  0.04803324  1
  O  O19  1  0.96994505  0.71884446  0.17791926  1
  O  O20  1  0.66973364  0.03613013  0.89505292  1
  O  O21  1  0.49583319  0.29981322  0.82538610  1
  O  O22  1  0.73071141  0.64970673  0.63536205  1
  O  O23  1  0.30931006  0.54174904  0.49949941  1
  O  O24  1  0.64631735  0.15221168  0.61331097  1
  O  O25  1  0.40370748  0.16832981  0.23782017  1
  O  O26  1  0.97084579  0.31801940  0.11099370  1
  O  O27  1  0.02915421  0.68198060  0.88900630  1
  O  O28  1  0.59629252  0.83167019  0.76217983  1
  O  O29  1  0.35368265  0.84778832  0.38668903  1
  O  O30  1  0.69068994  0.45825096  0.50050059  1
  O  O31  1  0.26928859  0.35029327  0.36463795  1
  O  O32  1  0.50416681  0.70018678  0.17461390  1
  O  O33  1  0.50000000  0.50000000  0.00000000  1
  O  O34  1  0.33026636  0.96386987  0.10494708  1
  O  O35  1  0.03005495  0.28115554  0.82208074  1
  O  O36  1  0.90948455  0.89589546  0.95196676  1
  O  O37  1  0.34451608  0.26231558  0.61947753  1
  O  O38  1  0.35687255  0.54268218  0.79023581  1
  O  O39  1  0.70924155  0.00441301  0.17338026  1
  O  O40  1  0.95643150  0.31830422  0.59182710  1
  O  O41  1  0.00000000  0.00000000  0.50000000  1
  O  O42  1  0.99212263  0.92455633  0.35488932  1
