# generated using pymatgen
data_BaYAgSe3
_symmetry_space_group_name_H-M   'P 1'
_cell_length_a   4.29685000
_cell_length_b   14.34226000
_cell_length_c   10.81311900
_cell_angle_alpha   90.00000000
_cell_angle_beta   90.00000000
_cell_angle_gamma   90.00000000
_symmetry_Int_Tables_number   1
_chemical_formula_structural   BaYAgSe3
_chemical_formula_sum   'Ba4 Y4 Ag4 Se12'
_cell_volume   666.37510929
_cell_formula_units_Z   4
loop_
 _symmetry_equiv_pos_site_id
 _symmetry_equiv_pos_as_xyz
  1  'x, y, z'
loop_
 _atom_site_type_symbol
 _atom_site_label
 _atom_site_symmetry_multiplicity
 _atom_site_fract_x
 _atom_site_fract_y
 _atom_site_fract_z
 _atom_site_occupancy
  Ba  Ba0  1  0.50000000  0.25124600  0.75000000  1
  Ba  Ba1  1  0.00000000  0.24875400  0.25000000  1
  Ba  Ba2  1  0.00000000  0.75124600  0.75000000  1
  Ba  Ba3  1  0.50000000  0.74875400  0.25000000  1
  Y  Y4  1  0.00000000  0.00000000  0.50000000  1
  Y  Y5  1  0.00000000  0.00000000  0.00000000  1
  Y  Y6  1  0.50000000  0.50000000  0.50000000  1
  Y  Y7  1  0.50000000  0.50000000  0.00000000  1
  Ag  Ag8  1  0.00000000  0.46962500  0.75000000  1
  Ag  Ag9  1  0.50000000  0.03037500  0.25000000  1
  Ag  Ag10  1  0.50000000  0.96962500  0.75000000  1
  Ag  Ag11  1  0.00000000  0.53037500  0.25000000  1
  Se  Se12  1  0.50000000  0.13545600  0.05008800  1
  Se  Se13  1  0.00000000  0.36454400  0.94991200  1
  Se  Se14  1  0.00000000  0.36454400  0.55008800  1
  Se  Se15  1  0.50000000  0.42041100  0.25000000  1
  Se  Se16  1  0.00000000  0.07958900  0.75000000  1
  Se  Se17  1  0.50000000  0.13545600  0.44991200  1
  Se  Se18  1  0.00000000  0.63545600  0.05008800  1
  Se  Se19  1  0.50000000  0.86454400  0.94991200  1
  Se  Se20  1  0.50000000  0.86454400  0.55008800  1
  Se  Se21  1  0.00000000  0.92041100  0.25000000  1
  Se  Se22  1  0.50000000  0.57958900  0.75000000  1
  Se  Se23  1  0.00000000  0.63545600  0.44991200  1
