# generated using pymatgen
data_Na3NO2
_symmetry_space_group_name_H-M   'P 1'
_cell_length_a   6.29537600
_cell_length_b   6.58551400
_cell_length_c   8.99506400
_cell_angle_alpha   90.00000000
_cell_angle_beta   90.00000000
_cell_angle_gamma   90.00000000
_symmetry_Int_Tables_number   1
_chemical_formula_structural   Na3NO2
_chemical_formula_sum   'Na12 N4 O8'
_cell_volume   372.91994295
_cell_formula_units_Z   4
loop_
 _symmetry_equiv_pos_site_id
 _symmetry_equiv_pos_as_xyz
  1  'x, y, z'
loop_
 _atom_site_type_symbol
 _atom_site_label
 _atom_site_symmetry_multiplicity
 _atom_site_fract_x
 _atom_site_fract_y
 _atom_site_fract_z
 _atom_site_occupancy
  Na  Na0  1  0.80091550  0.74955600  0.50424850  1
  Na  Na1  1  0.52990200  0.50341850  0.25000000  1
  Na  Na2  1  0.30091550  0.24955600  0.49575150  1
  Na  Na3  1  0.52990200  0.49658150  0.75000000  1
  Na  Na4  1  0.30091550  0.75044400  0.50424850  1
  Na  Na5  1  0.80091550  0.25044400  0.49575150  1
  Na  Na6  1  0.30091550  0.24955600  0.00424850  1
  Na  Na7  1  0.02990200  0.00341850  0.75000000  1
  Na  Na8  1  0.80091550  0.74955600  0.99575150  1
  Na  Na9  1  0.02990200  0.99658150  0.25000000  1
  Na  Na10  1  0.80091550  0.25044400  0.00424850  1
  Na  Na11  1  0.30091550  0.75044400  0.99575150  1
  N  N12  1  0.09491500  0.42113650  0.25000000  1
  N  N13  1  0.09491500  0.57886350  0.75000000  1
  N  N14  1  0.59491500  0.92113650  0.75000000  1
  N  N15  1  0.59491500  0.07886350  0.25000000  1
  O  O16  1  0.55378400  0.50000000  0.50000000  1
  O  O17  1  0.55378400  0.50000000  0.00000000  1
  O  O18  1  0.13191900  0.38739650  0.75000000  1
  O  O19  1  0.13191900  0.61260350  0.25000000  1
  O  O20  1  0.05378400  0.00000000  0.00000000  1
  O  O21  1  0.05378400  0.00000000  0.50000000  1
  O  O22  1  0.63191900  0.88739650  0.25000000  1
  O  O23  1  0.63191900  0.11260350  0.75000000  1
