# generated using pymatgen
data_Li4Ti9O20
_symmetry_space_group_name_H-M   'P 1'
_cell_length_a   13.68823400
_cell_length_b   13.68823400
_cell_length_c   8.36533200
_cell_angle_alpha   90.00000000
_cell_angle_beta   90.00000000
_cell_angle_gamma   90.00000000
_symmetry_Int_Tables_number   1
_chemical_formula_structural   Li4Ti9O20
_chemical_formula_sum   'Li16 Ti36 O80'
_cell_volume   1567.39343517
_cell_formula_units_Z   4
loop_
 _symmetry_equiv_pos_site_id
 _symmetry_equiv_pos_as_xyz
  1  'x, y, z'
loop_
 _atom_site_type_symbol
 _atom_site_label
 _atom_site_symmetry_multiplicity
 _atom_site_fract_x
 _atom_site_fract_y
 _atom_site_fract_z
 _atom_site_occupancy
  Li  Li0  1  0.29606300  0.88670800  0.81208700  1
  Li  Li1  1  0.61329200  0.29606300  0.06208700  1
  Li  Li2  1  0.38670800  0.70393700  0.06208700  1
  Li  Li3  1  0.79606300  0.88670800  0.43791300  1
  Li  Li4  1  0.70393700  0.11329200  0.81208700  1
  Li  Li5  1  0.61329200  0.79606300  0.68791300  1
  Li  Li6  1  0.38670800  0.20393700  0.68791300  1
  Li  Li7  1  0.20393700  0.11329200  0.43791300  1
  Li  Li8  1  0.79606300  0.38670800  0.31208700  1
  Li  Li9  1  0.11329200  0.79606300  0.56208700  1
  Li  Li10  1  0.88670800  0.20393700  0.56208700  1
  Li  Li11  1  0.29606300  0.38670800  0.93791300  1
  Li  Li12  1  0.20393700  0.61329200  0.31208700  1
  Li  Li13  1  0.11329200  0.29606300  0.18791300  1
  Li  Li14  1  0.88670800  0.70393700  0.18791300  1
  Li  Li15  1  0.70393700  0.61329200  0.93791300  1
  Ti  Ti16  1  0.09659000  0.93797100  0.85863000  1
  Ti  Ti17  1  0.56202900  0.59659000  0.64137000  1
  Ti  Ti18  1  0.56202900  0.09659000  0.10863000  1
  Ti  Ti19  1  0.00000000  0.00000000  0.50000000  1
  Ti  Ti20  1  0.90341000  0.06202900  0.85863000  1
  Ti  Ti21  1  0.36343150  0.19536650  0.10982550  1
  Ti  Ti22  1  0.36343150  0.69536650  0.64017450  1
  Ti  Ti23  1  0.30463350  0.86343150  0.39017450  1
  Ti  Ti24  1  0.80463350  0.86343150  0.85982550  1
  Ti  Ti25  1  0.69536650  0.13656850  0.39017450  1
  Ti  Ti26  1  0.19536650  0.13656850  0.85982550  1
  Ti  Ti27  1  0.63656850  0.30463350  0.64017450  1
  Ti  Ti28  1  0.63656850  0.80463350  0.10982550  1
  Ti  Ti29  1  0.59659000  0.93797100  0.39137000  1
  Ti  Ti30  1  0.50000000  0.00000000  0.75000000  1
  Ti  Ti31  1  0.43797100  0.90341000  0.10863000  1
  Ti  Ti32  1  0.43797100  0.40341000  0.64137000  1
  Ti  Ti33  1  0.40341000  0.06202900  0.39137000  1
  Ti  Ti34  1  0.59659000  0.43797100  0.35863000  1
  Ti  Ti35  1  0.06202900  0.09659000  0.14137000  1
  Ti  Ti36  1  0.06202900  0.59659000  0.60863000  1
  Ti  Ti37  1  0.50000000  0.50000000  0.00000000  1
  Ti  Ti38  1  0.40341000  0.56202900  0.35863000  1
  Ti  Ti39  1  0.86343150  0.69536650  0.60982550  1
  Ti  Ti40  1  0.86343150  0.19536650  0.14017450  1
  Ti  Ti41  1  0.80463350  0.36343150  0.89017450  1
  Ti  Ti42  1  0.30463350  0.36343150  0.35982550  1
  Ti  Ti43  1  0.19536650  0.63656850  0.89017450  1
  Ti  Ti44  1  0.69536650  0.63656850  0.35982550  1
  Ti  Ti45  1  0.13656850  0.80463350  0.14017450  1
  Ti  Ti46  1  0.13656850  0.30463350  0.60982550  1
  Ti  Ti47  1  0.09659000  0.43797100  0.89137000  1
  Ti  Ti48  1  0.00000000  0.50000000  0.25000000  1
  Ti  Ti49  1  0.93797100  0.40341000  0.60863000  1
  Ti  Ti50  1  0.93797100  0.90341000  0.14137000  1
  Ti  Ti51  1  0.90341000  0.56202900  0.89137000  1
  O  O52  1  0.32463550  0.68075850  0.85413050  1
  O  O53  1  0.21908950  0.00606350  0.84274550  1
  O  O54  1  0.65559800  0.31992600  0.40095300  1
  O  O55  1  0.68007400  0.15559800  0.15095300  1
  O  O56  1  0.07795350  0.92803550  0.63318750  1
  O  O57  1  0.55153600  0.58599000  0.39234200  1
  O  O58  1  0.49393650  0.21908950  0.09274550  1
  O  O59  1  0.49393650  0.71908950  0.65725450  1
  O  O60  1  0.44846400  0.41401000  0.39234200  1
  O  O61  1  0.42803550  0.42204650  0.86681250  1
  O  O62  1  0.42803550  0.92204650  0.88318750  1
  O  O63  1  0.41401000  0.05153600  0.14234200  1
  O  O64  1  0.91401000  0.05153600  0.10765800  1
  O  O65  1  0.92204650  0.07196450  0.63318750  1
  O  O66  1  0.31992600  0.84440200  0.15095300  1
  O  O67  1  0.34440200  0.68007400  0.40095300  1
  O  O68  1  0.31924150  0.82463550  0.60413050  1
  O  O69  1  0.81924150  0.82463550  0.64586950  1
  O  O70  1  0.32463550  0.18075850  0.89586950  1
  O  O71  1  0.78091050  0.99393650  0.84274550  1
  O  O72  1  0.71908950  0.00606350  0.40725450  1
  O  O73  1  0.67536450  0.31924150  0.85413050  1
  O  O74  1  0.68075850  0.17536450  0.60413050  1
  O  O75  1  0.18075850  0.17536450  0.64586950  1
  O  O76  1  0.65559800  0.81992600  0.34904700  1
  O  O77  1  0.18007400  0.15559800  0.09904700  1
  O  O78  1  0.57795350  0.92803550  0.61681250  1
  O  O79  1  0.08599000  0.94846400  0.10765800  1
  O  O80  1  0.58599000  0.94846400  0.14234200  1
  O  O81  1  0.57196450  0.57795350  0.86681250  1
  O  O82  1  0.57196450  0.07795350  0.88318750  1
  O  O83  1  0.55153600  0.08599000  0.35765800  1
  O  O84  1  0.50606350  0.28091050  0.65725450  1
  O  O85  1  0.50606350  0.78091050  0.09274550  1
  O  O86  1  0.44846400  0.91401000  0.35765800  1
  O  O87  1  0.42204650  0.07196450  0.61681250  1
  O  O88  1  0.81992600  0.84440200  0.09904700  1
  O  O89  1  0.34440200  0.18007400  0.34904700  1
  O  O90  1  0.28091050  0.99393650  0.40725450  1
  O  O91  1  0.67536450  0.81924150  0.89586950  1
  O  O92  1  0.82463550  0.18075850  0.35413050  1
  O  O93  1  0.71908950  0.50606350  0.34274550  1
  O  O94  1  0.15559800  0.81992600  0.90095300  1
  O  O95  1  0.18007400  0.65559800  0.65095300  1
  O  O96  1  0.57795350  0.42803550  0.13318750  1
  O  O97  1  0.05153600  0.08599000  0.89234200  1
  O  O98  1  0.99393650  0.71908950  0.59274550  1
  O  O99  1  0.99393650  0.21908950  0.15725450  1
  O  O100  1  0.94846400  0.91401000  0.89234200  1
  O  O101  1  0.92803550  0.92204650  0.36681250  1
  O  O102  1  0.92803550  0.42204650  0.38318750  1
  O  O103  1  0.91401000  0.55153600  0.64234200  1
  O  O104  1  0.41401000  0.55153600  0.60765800  1
  O  O105  1  0.42204650  0.57196450  0.13318750  1
  O  O106  1  0.81992600  0.34440200  0.65095300  1
  O  O107  1  0.84440200  0.18007400  0.90095300  1
  O  O108  1  0.81924150  0.32463550  0.10413050  1
  O  O109  1  0.31924150  0.32463550  0.14586950  1
  O  O110  1  0.82463550  0.68075850  0.39586950  1
  O  O111  1  0.28091050  0.49393650  0.34274550  1
  O  O112  1  0.21908950  0.50606350  0.90725450  1
  O  O113  1  0.17536450  0.81924150  0.35413050  1
  O  O114  1  0.18075850  0.67536450  0.10413050  1
  O  O115  1  0.68075850  0.67536450  0.14586950  1
  O  O116  1  0.15559800  0.31992600  0.84904700  1
  O  O117  1  0.68007400  0.65559800  0.59904700  1
  O  O118  1  0.07795350  0.42803550  0.11681250  1
  O  O119  1  0.58599000  0.44846400  0.60765800  1
  O  O120  1  0.08599000  0.44846400  0.64234200  1
  O  O121  1  0.07196450  0.07795350  0.36681250  1
  O  O122  1  0.07196450  0.57795350  0.38318750  1
  O  O123  1  0.05153600  0.58599000  0.85765800  1
  O  O124  1  0.00606350  0.78091050  0.15725450  1
  O  O125  1  0.00606350  0.28091050  0.59274550  1
  O  O126  1  0.94846400  0.41401000  0.85765800  1
  O  O127  1  0.92204650  0.57196450  0.11681250  1
  O  O128  1  0.31992600  0.34440200  0.59904700  1
  O  O129  1  0.84440200  0.68007400  0.84904700  1
  O  O130  1  0.78091050  0.49393650  0.90725450  1
  O  O131  1  0.17536450  0.31924150  0.39586950  1
