# generated using pymatgen
data_BeH8SeO8
_symmetry_space_group_name_H-M   'P 1'
_cell_length_a   11.53133800
_cell_length_b   12.01826600
_cell_length_c   10.90323700
_cell_angle_alpha   90.00000000
_cell_angle_beta   90.00000000
_cell_angle_gamma   90.00000000
_symmetry_Int_Tables_number   1
_chemical_formula_structural   BeH8SeO8
_chemical_formula_sum   'Be8 H64 Se8 O64'
_cell_volume   1511.04349798
_cell_formula_units_Z   8
loop_
 _symmetry_equiv_pos_site_id
 _symmetry_equiv_pos_as_xyz
  1  'x, y, z'
loop_
 _atom_site_type_symbol
 _atom_site_label
 _atom_site_symmetry_multiplicity
 _atom_site_fract_x
 _atom_site_fract_y
 _atom_site_fract_z
 _atom_site_occupancy
  Be  Be0  1  0.24738300  0.00000000  0.76745600  1
  Be  Be1  1  0.75261700  0.00000000  0.23254400  1
  Be  Be2  1  0.25261700  0.00000000  0.26745600  1
  Be  Be3  1  0.74738300  0.00000000  0.73254400  1
  Be  Be4  1  0.74738300  0.50000000  0.76745600  1
  Be  Be5  1  0.25261700  0.50000000  0.23254400  1
  Be  Be6  1  0.75261700  0.50000000  0.26745600  1
  Be  Be7  1  0.24738300  0.50000000  0.73254400  1
  H  H8  1  0.20525450  0.14601650  0.63516100  1
  H  H9  1  0.79474550  0.14601650  0.36483900  1
  H  H10  1  0.29474550  0.14601650  0.13516100  1
  H  H11  1  0.70525450  0.14601650  0.86483900  1
  H  H12  1  0.79474550  0.85398350  0.36483900  1
  H  H13  1  0.20525450  0.85398350  0.63516100  1
  H  H14  1  0.70525450  0.85398350  0.86483900  1
  H  H15  1  0.29474550  0.85398350  0.13516100  1
  H  H16  1  0.34419450  0.14143550  0.66617800  1
  H  H17  1  0.65580550  0.14143550  0.33382200  1
  H  H18  1  0.15580550  0.14143550  0.16617800  1
  H  H19  1  0.84419450  0.14143550  0.83382200  1
  H  H20  1  0.65580550  0.85856450  0.33382200  1
  H  H21  1  0.34419450  0.85856450  0.66617800  1
  H  H22  1  0.84419450  0.85856450  0.83382200  1
  H  H23  1  0.15580550  0.85856450  0.16617800  1
  H  H24  1  0.06981250  0.06802250  0.83797300  1
  H  H25  1  0.93018750  0.06802250  0.16202700  1
  H  H26  1  0.43018750  0.06802250  0.33797300  1
  H  H27  1  0.56981250  0.06802250  0.66202700  1
  H  H28  1  0.93018750  0.93197750  0.16202700  1
  H  H29  1  0.06981250  0.93197750  0.83797300  1
  H  H30  1  0.56981250  0.93197750  0.66202700  1
  H  H31  1  0.43018750  0.93197750  0.33797300  1
  H  H32  1  0.36541200  0.06803600  0.92203500  1
  H  H33  1  0.63458800  0.06803600  0.07796500  1
  H  H34  1  0.13458800  0.06803600  0.42203500  1
  H  H35  1  0.86541200  0.06803600  0.57796500  1
  H  H36  1  0.63458800  0.93196400  0.07796500  1
  H  H37  1  0.36541200  0.93196400  0.92203500  1
  H  H38  1  0.86541200  0.93196400  0.57796500  1
  H  H39  1  0.13458800  0.93196400  0.42203500  1
  H  H40  1  0.70525450  0.64601650  0.63516100  1
  H  H41  1  0.29474550  0.64601650  0.36483900  1
  H  H42  1  0.79474550  0.64601650  0.13516100  1
  H  H43  1  0.20525450  0.64601650  0.86483900  1
  H  H44  1  0.29474550  0.35398350  0.36483900  1
  H  H45  1  0.70525450  0.35398350  0.63516100  1
  H  H46  1  0.20525450  0.35398350  0.86483900  1
  H  H47  1  0.79474550  0.35398350  0.13516100  1
  H  H48  1  0.84419450  0.64143550  0.66617800  1
  H  H49  1  0.15580550  0.64143550  0.33382200  1
  H  H50  1  0.65580550  0.64143550  0.16617800  1
  H  H51  1  0.34419450  0.64143550  0.83382200  1
  H  H52  1  0.15580550  0.35856450  0.33382200  1
  H  H53  1  0.84419450  0.35856450  0.66617800  1
  H  H54  1  0.34419450  0.35856450  0.83382200  1
  H  H55  1  0.65580550  0.35856450  0.16617800  1
  H  H56  1  0.56981250  0.56802250  0.83797300  1
  H  H57  1  0.43018750  0.56802250  0.16202700  1
  H  H58  1  0.93018750  0.56802250  0.33797300  1
  H  H59  1  0.06981250  0.56802250  0.66202700  1
  H  H60  1  0.43018750  0.43197750  0.16202700  1
  H  H61  1  0.56981250  0.43197750  0.83797300  1
  H  H62  1  0.06981250  0.43197750  0.66202700  1
  H  H63  1  0.93018750  0.43197750  0.33797300  1
  H  H64  1  0.86541200  0.56803600  0.92203500  1
  H  H65  1  0.13458800  0.56803600  0.07796500  1
  H  H66  1  0.63458800  0.56803600  0.42203500  1
  H  H67  1  0.36541200  0.56803600  0.57796500  1
  H  H68  1  0.13458800  0.43196400  0.07796500  1
  H  H69  1  0.86541200  0.43196400  0.92203500  1
  H  H70  1  0.36541200  0.43196400  0.57796500  1
  H  H71  1  0.63458800  0.43196400  0.42203500  1
  Se  Se72  1  0.50000000  0.24674000  0.50000000  1
  Se  Se73  1  0.50000000  0.74674000  0.00000000  1
  Se  Se74  1  0.50000000  0.75326000  0.50000000  1
  Se  Se75  1  0.50000000  0.25326000  0.00000000  1
  Se  Se76  1  0.00000000  0.74674000  0.50000000  1
  Se  Se77  1  0.00000000  0.24674000  0.00000000  1
  Se  Se78  1  0.00000000  0.25326000  0.50000000  1
  Se  Se79  1  0.00000000  0.75326000  0.00000000  1
  O  O80  1  0.38252100  0.32696400  0.48308600  1
  O  O81  1  0.61747900  0.32696400  0.51691400  1
  O  O82  1  0.61747900  0.82696400  0.98308600  1
  O  O83  1  0.38252100  0.82696400  0.01691400  1
  O  O84  1  0.61747900  0.67303600  0.51691400  1
  O  O85  1  0.38252100  0.67303600  0.48308600  1
  O  O86  1  0.38252100  0.17303600  0.01691400  1
  O  O87  1  0.61747900  0.17303600  0.98308600  1
  O  O88  1  0.48077300  0.16735600  0.62509300  1
  O  O89  1  0.51922700  0.16735600  0.37490700  1
  O  O90  1  0.51922700  0.66735600  0.12509300  1
  O  O91  1  0.48077300  0.66735600  0.87490700  1
  O  O92  1  0.51922700  0.83264400  0.37490700  1
  O  O93  1  0.48077300  0.83264400  0.62509300  1
  O  O94  1  0.48077300  0.33264400  0.87490700  1
  O  O95  1  0.51922700  0.33264400  0.12509300  1
  O  O96  1  0.11450900  0.00000000  0.81271600  1
  O  O97  1  0.88549100  0.00000000  0.18728400  1
  O  O98  1  0.38549100  0.00000000  0.31271600  1
  O  O99  1  0.61450900  0.00000000  0.68728400  1
  O  O100  1  0.34952400  0.00000000  0.87091900  1
  O  O101  1  0.65047600  0.00000000  0.12908100  1
  O  O102  1  0.15047600  0.00000000  0.37091900  1
  O  O103  1  0.84952400  0.00000000  0.62908100  1
  O  O104  1  0.26513700  0.11716800  0.69372800  1
  O  O105  1  0.73486300  0.11716800  0.30627200  1
  O  O106  1  0.23486300  0.11716800  0.19372800  1
  O  O107  1  0.76513700  0.11716800  0.80627200  1
  O  O108  1  0.73486300  0.88283200  0.30627200  1
  O  O109  1  0.26513700  0.88283200  0.69372800  1
  O  O110  1  0.76513700  0.88283200  0.80627200  1
  O  O111  1  0.23486300  0.88283200  0.19372800  1
  O  O112  1  0.88252100  0.82696400  0.48308600  1
  O  O113  1  0.11747900  0.82696400  0.51691400  1
  O  O114  1  0.11747900  0.32696400  0.98308600  1
  O  O115  1  0.88252100  0.32696400  0.01691400  1
  O  O116  1  0.11747900  0.17303600  0.51691400  1
  O  O117  1  0.88252100  0.17303600  0.48308600  1
  O  O118  1  0.88252100  0.67303600  0.01691400  1
  O  O119  1  0.11747900  0.67303600  0.98308600  1
  O  O120  1  0.98077300  0.66735600  0.62509300  1
  O  O121  1  0.01922700  0.66735600  0.37490700  1
  O  O122  1  0.01922700  0.16735600  0.12509300  1
  O  O123  1  0.98077300  0.16735600  0.87490700  1
  O  O124  1  0.01922700  0.33264400  0.37490700  1
  O  O125  1  0.98077300  0.33264400  0.62509300  1
  O  O126  1  0.98077300  0.83264400  0.87490700  1
  O  O127  1  0.01922700  0.83264400  0.12509300  1
  O  O128  1  0.61450900  0.50000000  0.81271600  1
  O  O129  1  0.38549100  0.50000000  0.18728400  1
  O  O130  1  0.88549100  0.50000000  0.31271600  1
  O  O131  1  0.11450900  0.50000000  0.68728400  1
  O  O132  1  0.84952400  0.50000000  0.87091900  1
  O  O133  1  0.15047600  0.50000000  0.12908100  1
  O  O134  1  0.65047600  0.50000000  0.37091900  1
  O  O135  1  0.34952400  0.50000000  0.62908100  1
  O  O136  1  0.76513700  0.61716800  0.69372800  1
  O  O137  1  0.23486300  0.61716800  0.30627200  1
  O  O138  1  0.73486300  0.61716800  0.19372800  1
  O  O139  1  0.26513700  0.61716800  0.80627200  1
  O  O140  1  0.23486300  0.38283200  0.30627200  1
  O  O141  1  0.76513700  0.38283200  0.69372800  1
  O  O142  1  0.26513700  0.38283200  0.80627200  1
  O  O143  1  0.73486300  0.38283200  0.19372800  1
