# generated using pymatgen
data_Li4Ti11O24
_symmetry_space_group_name_H-M   'P 1'
_cell_length_a   19.63436000
_cell_length_b   5.98948800
_cell_length_c   8.50023487
_cell_angle_alpha   90.00000000
_cell_angle_beta   115.23995084
_cell_angle_gamma   90.00000000
_symmetry_Int_Tables_number   1
_chemical_formula_structural   Li4Ti11O24
_chemical_formula_sum   'Li8 Ti22 O48'
_cell_volume   904.19130165
_cell_formula_units_Z   2
loop_
 _symmetry_equiv_pos_site_id
 _symmetry_equiv_pos_as_xyz
  1  'x, y, z'
loop_
 _atom_site_type_symbol
 _atom_site_label
 _atom_site_symmetry_multiplicity
 _atom_site_fract_x
 _atom_site_fract_y
 _atom_site_fract_z
 _atom_site_occupancy
  Li  Li0  1  0.08403400  0.50000000  0.46801600  1
  Li  Li1  1  0.41596600  0.00000000  0.53198400  1
  Li  Li2  1  0.08905600  0.00000000  0.21092400  1
  Li  Li3  1  0.41094400  0.50000000  0.78907600  1
  Li  Li4  1  0.58403400  0.00000000  0.46801600  1
  Li  Li5  1  0.91596600  0.50000000  0.53198400  1
  Li  Li6  1  0.58905600  0.50000000  0.21092400  1
  Li  Li7  1  0.91094400  0.00000000  0.78907600  1
  Ti  Ti8  1  0.42218000  0.75538700  0.16111000  1
  Ti  Ti9  1  0.07782000  0.25538700  0.83889000  1
  Ti  Ti10  1  0.17057000  0.00000000  0.68574100  1
  Ti  Ti11  1  0.34146600  0.00000000  0.84272100  1
  Ti  Ti12  1  0.42218000  0.24461300  0.16111000  1
  Ti  Ti13  1  0.07782000  0.74461300  0.83889000  1
  Ti  Ti14  1  0.25000000  0.25000000  0.50000000  1
  Ti  Ti15  1  0.32943000  0.50000000  0.31425900  1
  Ti  Ti16  1  0.15853400  0.50000000  0.15727900  1
  Ti  Ti17  1  0.00000000  0.00000000  0.50000000  1
  Ti  Ti18  1  0.25000000  0.75000000  0.50000000  1
  Ti  Ti19  1  0.92218000  0.25538700  0.16111000  1
  Ti  Ti20  1  0.57782000  0.75538700  0.83889000  1
  Ti  Ti21  1  0.67057000  0.50000000  0.68574100  1
  Ti  Ti22  1  0.84146600  0.50000000  0.84272100  1
  Ti  Ti23  1  0.92218000  0.74461300  0.16111000  1
  Ti  Ti24  1  0.57782000  0.24461300  0.83889000  1
  Ti  Ti25  1  0.75000000  0.75000000  0.50000000  1
  Ti  Ti26  1  0.82943000  0.00000000  0.31425900  1
  Ti  Ti27  1  0.65853400  0.00000000  0.15727900  1
  Ti  Ti28  1  0.50000000  0.50000000  0.50000000  1
  Ti  Ti29  1  0.75000000  0.25000000  0.50000000  1
  O  O30  1  0.08373750  0.21785450  0.59531500  1
  O  O31  1  0.41626250  0.71785450  0.40468500  1
  O  O32  1  0.40911550  0.75573250  0.92825400  1
  O  O33  1  0.17797100  0.00000000  0.43581500  1
  O  O34  1  0.15579600  0.00000000  0.88639500  1
  O  O35  1  0.48936200  0.00000000  0.25163300  1
  O  O36  1  0.34617600  0.00000000  0.07666100  1
  O  O37  1  0.32721100  0.00000000  0.58717700  1
  O  O38  1  0.01063800  0.50000000  0.74836700  1
  O  O39  1  0.24977100  0.21574300  0.72900500  1
  O  O40  1  0.40911550  0.24426750  0.92825400  1
  O  O41  1  0.09088450  0.25573250  0.07174600  1
  O  O42  1  0.08373750  0.78214550  0.59531500  1
  O  O43  1  0.41626250  0.28214550  0.40468500  1
  O  O44  1  0.25022900  0.28425700  0.27099500  1
  O  O45  1  0.00708000  0.00000000  0.74413500  1
  O  O46  1  0.17278900  0.50000000  0.41282300  1
  O  O47  1  0.49292000  0.50000000  0.25586500  1
  O  O48  1  0.34420400  0.50000000  0.11360500  1
  O  O49  1  0.32202900  0.50000000  0.56418500  1
  O  O50  1  0.15382400  0.50000000  0.92333900  1
  O  O51  1  0.25022900  0.71574300  0.27099500  1
  O  O52  1  0.09088450  0.74426750  0.07174600  1
  O  O53  1  0.24977100  0.78425700  0.72900500  1
  O  O54  1  0.58373750  0.71785450  0.59531500  1
  O  O55  1  0.91626250  0.21785450  0.40468500  1
  O  O56  1  0.90911550  0.25573250  0.92825400  1
  O  O57  1  0.67797100  0.50000000  0.43581500  1
  O  O58  1  0.65579600  0.50000000  0.88639500  1
  O  O59  1  0.98936200  0.50000000  0.25163300  1
  O  O60  1  0.84617600  0.50000000  0.07666100  1
  O  O61  1  0.82721100  0.50000000  0.58717700  1
  O  O62  1  0.51063800  0.00000000  0.74836700  1
  O  O63  1  0.74977100  0.71574300  0.72900500  1
  O  O64  1  0.90911550  0.74426750  0.92825400  1
  O  O65  1  0.59088450  0.75573250  0.07174600  1
  O  O66  1  0.58373750  0.28214550  0.59531500  1
  O  O67  1  0.91626250  0.78214550  0.40468500  1
  O  O68  1  0.75022900  0.78425700  0.27099500  1
  O  O69  1  0.50708000  0.50000000  0.74413500  1
  O  O70  1  0.67278900  0.00000000  0.41282300  1
  O  O71  1  0.99292000  0.00000000  0.25586500  1
  O  O72  1  0.84420400  0.00000000  0.11360500  1
  O  O73  1  0.82202900  0.00000000  0.56418500  1
  O  O74  1  0.65382400  0.00000000  0.92333900  1
  O  O75  1  0.75022900  0.21574300  0.27099500  1
  O  O76  1  0.59088450  0.24426750  0.07174600  1
  O  O77  1  0.74977100  0.28425700  0.72900500  1
