# generated using pymatgen
data_Li8TiMn3O12
_symmetry_space_group_name_H-M   'P 1'
_cell_length_a   4.95421356
_cell_length_b   8.44879800
_cell_length_c   4.97666151
_cell_angle_alpha   90.00000000
_cell_angle_beta   90.06819789
_cell_angle_gamma   90.00000000
_symmetry_Int_Tables_number   1
_chemical_formula_structural   Li8TiMn3O12
_chemical_formula_sum   'Li8 Ti1 Mn3 O12'
_cell_volume   208.30871777
_cell_formula_units_Z   1
loop_
 _symmetry_equiv_pos_site_id
 _symmetry_equiv_pos_as_xyz
  1  'x, y, z'
loop_
 _atom_site_type_symbol
 _atom_site_label
 _atom_site_symmetry_multiplicity
 _atom_site_fract_x
 _atom_site_fract_y
 _atom_site_fract_z
 _atom_site_occupancy
  Li  Li0  1  0.00000000  0.07858700  0.50000000  1
  Li  Li1  1  0.00000000  0.76876450  0.50000000  1
  Li  Li2  1  0.00000000  0.43640850  0.00000000  1
  Li  Li3  1  0.00000000  0.74704600  0.00000000  1
  Li  Li4  1  0.50000000  0.24251350  0.50000000  1
  Li  Li5  1  0.50000000  0.27217550  0.00000000  1
  Li  Li6  1  0.50000000  0.58450250  0.00000000  1
  Li  Li7  1  0.50000000  0.92855350  0.50000000  1
  Ti  Ti8  1  0.00000000  0.09905600  0.00000000  1
  Mn  Mn9  1  0.00000000  0.42041200  0.50000000  1
  Mn  Mn10  1  0.50000000  0.91500100  0.00000000  1
  Mn  Mn11  1  0.50000000  0.59627750  0.50000000  1
  O  O12  1  0.86153250  0.25888900  0.74534600  1
  O  O13  1  0.13846750  0.25888900  0.25465400  1
  O  O14  1  0.82425300  0.58179450  0.71394000  1
  O  O15  1  0.17574700  0.58179450  0.28606000  1
  O  O16  1  0.82037150  0.93019750  0.78305900  1
  O  O17  1  0.17962850  0.93019750  0.21694100  1
  O  O18  1  0.67360950  0.43273900  0.28530700  1
  O  O19  1  0.32639050  0.43273900  0.71469300  1
  O  O20  1  0.67032350  0.07870500  0.21766900  1
  O  O21  1  0.32967650  0.07870500  0.78233100  1
  O  O22  1  0.64742500  0.75490950  0.24847000  1
  O  O23  1  0.35257500  0.75490950  0.75153000  1
