# generated using pymatgen
data_Gd2W2O9
_symmetry_space_group_name_H-M   'P 1'
_cell_length_a   6.81499400
_cell_length_b   7.19472492
_cell_length_c   7.43247653
_cell_angle_alpha   69.97555652
_cell_angle_beta   84.92879622
_cell_angle_gamma   83.18181817
_symmetry_Int_Tables_number   1
_chemical_formula_structural   Gd2W2O9
_chemical_formula_sum   'Gd4 W4 O18'
_cell_volume   339.53130333
_cell_formula_units_Z   2
loop_
 _symmetry_equiv_pos_site_id
 _symmetry_equiv_pos_as_xyz
  1  'x, y, z'
loop_
 _atom_site_type_symbol
 _atom_site_label
 _atom_site_symmetry_multiplicity
 _atom_site_fract_x
 _atom_site_fract_y
 _atom_site_fract_z
 _atom_site_occupancy
  Gd  Gd0  1  0.15313300  0.25864700  0.15471100  1
  Gd  Gd1  1  0.61687000  0.28070700  0.38418700  1
  Gd  Gd2  1  0.38313000  0.71929300  0.61581300  1
  Gd  Gd3  1  0.84686700  0.74135300  0.84528900  1
  W  W4  1  0.27200500  0.73406400  0.05740400  1
  W  W5  1  0.84221800  0.79194300  0.36283800  1
  W  W6  1  0.15778200  0.20805700  0.63716200  1
  W  W7  1  0.72799500  0.26593600  0.94259600  1
  O  O8  1  0.49748500  0.22823400  0.09396700  1
  O  O9  1  0.85799900  0.06345400  0.20318700  1
  O  O10  1  0.81478000  0.42583900  0.09172300  1
  O  O11  1  0.33503000  0.49691300  0.24768500  1
  O  O12  1  0.96963200  0.72907100  0.14481000  1
  O  O13  1  0.26768500  0.92239200  0.17400200  1
  O  O14  1  0.31577500  0.08723100  0.46818100  1
  O  O15  1  0.63892800  0.63942500  0.37614100  1
  O  O16  1  0.96407200  0.30153400  0.46278900  1
  O  O17  1  0.03592800  0.69846600  0.53721100  1
  O  O18  1  0.36107200  0.36057500  0.62385900  1
  O  O19  1  0.68422500  0.91276900  0.53181900  1
  O  O20  1  0.73231500  0.07760800  0.82599800  1
  O  O21  1  0.03036800  0.27092900  0.85519000  1
  O  O22  1  0.66497000  0.50308700  0.75231500  1
  O  O23  1  0.18522000  0.57416100  0.90827700  1
  O  O24  1  0.14200100  0.93654600  0.79681300  1
  O  O25  1  0.50251500  0.77176600  0.90603300  1
