# generated using pymatgen
data_CoP2H17N4O9
_symmetry_space_group_name_H-M   'P 1'
_cell_length_a   7.63771600
_cell_length_b   14.28027200
_cell_length_c   11.54677851
_cell_angle_alpha   90.00000000
_cell_angle_beta   92.29534224
_cell_angle_gamma   90.00000000
_symmetry_Int_Tables_number   1
_chemical_formula_structural   CoP2H17N4O9
_chemical_formula_sum   'Co4 P8 H68 N16 O36'
_cell_volume   1258.38121408
_cell_formula_units_Z   4
loop_
 _symmetry_equiv_pos_site_id
 _symmetry_equiv_pos_as_xyz
  1  'x, y, z'
loop_
 _atom_site_type_symbol
 _atom_site_label
 _atom_site_symmetry_multiplicity
 _atom_site_fract_x
 _atom_site_fract_y
 _atom_site_fract_z
 _atom_site_occupancy
  Co  Co0  1  0.09707000  0.04018900  0.72151000  1
  Co  Co1  1  0.90293000  0.54018900  0.77849000  1
  Co  Co2  1  0.90293000  0.95981100  0.27849000  1
  Co  Co3  1  0.09707000  0.45981100  0.22151000  1
  P  P4  1  0.83876800  0.18585900  0.60053400  1
  P  P5  1  0.16123200  0.68585900  0.89946600  1
  P  P6  1  0.16123200  0.81414100  0.39946600  1
  P  P7  1  0.83876800  0.31414100  0.10053400  1
  P  P8  1  0.71910100  0.08467900  0.80945000  1
  P  P9  1  0.28089900  0.58467900  0.69055000  1
  P  P10  1  0.28089900  0.91532100  0.19055000  1
  P  P11  1  0.71910100  0.41532100  0.30945000  1
  H  H12  1  0.19830800  0.00951800  0.93578700  1
  H  H13  1  0.80169200  0.50951800  0.56421300  1
  H  H14  1  0.80169200  0.99048200  0.06421300  1
  H  H15  1  0.19830800  0.49048200  0.43578700  1
  H  H16  1  0.19698300  0.90442300  0.87284900  1
  H  H17  1  0.80301700  0.40442300  0.62715100  1
  H  H18  1  0.80301700  0.09557700  0.12715100  1
  H  H19  1  0.19698300  0.59557700  0.37284900  1
  H  H20  1  0.36557700  0.97750700  0.85709700  1
  H  H21  1  0.63442300  0.47750700  0.64290300  1
  H  H22  1  0.63442300  0.02249300  0.14290300  1
  H  H23  1  0.36557700  0.52249300  0.35709700  1
  H  H24  1  0.41976300  0.99934100  0.66637300  1
  H  H25  1  0.58023700  0.49934100  0.83362700  1
  H  H26  1  0.58023700  0.00065900  0.33362700  1
  H  H27  1  0.41976300  0.50065900  0.16637300  1
  H  H28  1  0.31894600  0.05975100  0.55947400  1
  H  H29  1  0.68105400  0.55975100  0.94052600  1
  H  H30  1  0.68105400  0.94024900  0.44052600  1
  H  H31  1  0.31894600  0.44024900  0.05947400  1
  H  H32  1  0.28473200  0.94321100  0.57413100  1
  H  H33  1  0.71526800  0.44321100  0.92586900  1
  H  H34  1  0.71526800  0.05678900  0.42586900  1
  H  H35  1  0.28473200  0.55678900  0.07413100  1
  H  H36  1  0.96794700  0.91130500  0.58485900  1
  H  H37  1  0.03205300  0.41130500  0.91514100  1
  H  H38  1  0.03205300  0.08869500  0.41514100  1
  H  H39  1  0.96794700  0.58869500  0.08485900  1
  H  H40  1  0.02001900  0.85792200  0.70936800  1
  H  H41  1  0.97998100  0.35792200  0.79063200  1
  H  H42  1  0.97998100  0.14207800  0.29063200  1
  H  H43  1  0.02001900  0.64207800  0.20936800  1
  H  H44  1  0.83466600  0.91900500  0.69376300  1
  H  H45  1  0.16533400  0.41900500  0.80623700  1
  H  H46  1  0.16533400  0.08099500  0.30623700  1
  H  H47  1  0.83466600  0.58099500  0.19376300  1
  H  H48  1  0.24976600  0.16916200  0.85760600  1
  H  H49  1  0.75023400  0.66916200  0.64239400  1
  H  H50  1  0.75023400  0.83083800  0.14239400  1
  H  H51  1  0.24976600  0.33083800  0.35760600  1
  H  H52  1  0.15980100  0.21729800  0.73776200  1
  H  H53  1  0.84019900  0.71729800  0.76223800  1
  H  H54  1  0.84019900  0.78270200  0.26223800  1
  H  H55  1  0.15980100  0.28270200  0.23776200  1
  H  H56  1  0.35666400  0.16783100  0.73593300  1
  H  H57  1  0.64333600  0.66783100  0.76406700  1
  H  H58  1  0.64333600  0.83216900  0.26406700  1
  H  H59  1  0.35666400  0.33216900  0.23593300  1
  H  H60  1  0.29629700  0.10978900  0.10056100  1
  H  H61  1  0.70370300  0.60978900  0.39943900  1
  H  H62  1  0.70370300  0.89021100  0.89943900  1
  H  H63  1  0.29629700  0.39021100  0.60056100  1
  H  H64  1  0.12454600  0.17030300  0.07826700  1
  H  H65  1  0.87545400  0.67030300  0.42173300  1
  H  H66  1  0.87545400  0.82969700  0.92173300  1
  H  H67  1  0.12454600  0.32969700  0.57826700  1
  H  H68  1  0.49172400  0.17359600  0.46959000  1
  H  H69  1  0.50827600  0.67359600  0.03041000  1
  H  H70  1  0.50827600  0.82640400  0.53041000  1
  H  H71  1  0.49172400  0.32640400  0.96959000  1
  H  H72  1  0.32534500  0.22920200  0.50025800  1
  H  H73  1  0.67465500  0.72920200  0.99974200  1
  H  H74  1  0.67465500  0.77079800  0.49974200  1
  H  H75  1  0.32534500  0.27079800  0.00025800  1
  H  H76  1  0.68400400  0.20521300  0.93326000  1
  H  H77  1  0.31599600  0.70521300  0.56674000  1
  H  H78  1  0.31599600  0.79478700  0.06674000  1
  H  H79  1  0.68400400  0.29478700  0.43326000  1
  N  N80  1  0.23123900  0.97370500  0.86311200  1
  N  N81  1  0.76876100  0.47370500  0.63688800  1
  N  N82  1  0.76876100  0.02629500  0.13688800  1
  N  N83  1  0.23123900  0.52629500  0.36311200  1
  N  N84  1  0.30448400  0.00524300  0.61767300  1
  N  N85  1  0.69551600  0.50524300  0.88232700  1
  N  N86  1  0.69551600  0.99475700  0.38232700  1
  N  N87  1  0.30448400  0.49475700  0.11767300  1
  N  N88  1  0.96404300  0.91699800  0.67326700  1
  N  N89  1  0.03595700  0.41699800  0.82673300  1
  N  N90  1  0.03595700  0.08300200  0.32673300  1
  N  N91  1  0.96404300  0.58300200  0.17326700  1
  N  N92  1  0.23521300  0.16296800  0.76948300  1
  N  N93  1  0.76478700  0.66296800  0.73051700  1
  N  N94  1  0.76478700  0.83703200  0.23051700  1
  N  N95  1  0.23521300  0.33703200  0.26948300  1
  O  O96  1  0.97464000  0.10441900  0.59180400  1
  O  O97  1  0.02536000  0.60441900  0.90819600  1
  O  O98  1  0.02536000  0.89558100  0.40819600  1
  O  O99  1  0.97464000  0.39558100  0.09180400  1
  O  O100  1  0.73514300  0.19723200  0.48599300  1
  O  O101  1  0.26485700  0.69723200  0.01400700  1
  O  O102  1  0.26485700  0.80276800  0.51400700  1
  O  O103  1  0.73514300  0.30276800  0.98599300  1
  O  O104  1  0.92301300  0.27454800  0.64987200  1
  O  O105  1  0.07698700  0.77454800  0.85012800  1
  O  O106  1  0.07698700  0.72545200  0.35012800  1
  O  O107  1  0.92301300  0.22545200  0.14987200  1
  O  O108  1  0.69325400  0.14633000  0.69063500  1
  O  O109  1  0.30674600  0.64633000  0.80936500  1
  O  O110  1  0.30674600  0.85367000  0.30936500  1
  O  O111  1  0.69325400  0.35367000  0.19063500  1
  O  O112  1  0.91603600  0.07656900  0.83765300  1
  O  O113  1  0.08396400  0.57656900  0.66234700  1
  O  O114  1  0.08396400  0.92343100  0.16234700  1
  O  O115  1  0.91603600  0.42343100  0.33765300  1
  O  O116  1  0.61917000  0.99422100  0.79329100  1
  O  O117  1  0.38083000  0.49422100  0.70670900  1
  O  O118  1  0.38083000  0.00577900  0.20670900  1
  O  O119  1  0.61917000  0.50577900  0.29329100  1
  O  O120  1  0.62659700  0.14419100  0.90373200  1
  O  O121  1  0.37340300  0.64419100  0.59626800  1
  O  O122  1  0.37340300  0.85580900  0.09626800  1
  O  O123  1  0.62659700  0.35580900  0.40373200  1
  O  O124  1  0.23679300  0.15286500  0.04464500  1
  O  O125  1  0.76320700  0.65286500  0.45535500  1
  O  O126  1  0.76320700  0.84713500  0.95535500  1
  O  O127  1  0.23679300  0.34713500  0.54464500  1
  O  O128  1  0.36282700  0.16767100  0.47086500  1
  O  O129  1  0.63717300  0.66767100  0.02913500  1
  O  O130  1  0.63717300  0.83232900  0.52913500  1
  O  O131  1  0.36282700  0.33232900  0.97086500  1
