# generated using pymatgen
data_Na2Ni(H7N3)2
_symmetry_space_group_name_H-M   'P 1'
_cell_length_a   9.06112600
_cell_length_b   9.06112600
_cell_length_c   11.34798200
_cell_angle_alpha   90.00000000
_cell_angle_beta   90.00000000
_cell_angle_gamma   90.00000000
_symmetry_Int_Tables_number   1
_chemical_formula_structural   Na2Ni(H7N3)2
_chemical_formula_sum   'Na8 Ni4 H56 N24'
_cell_volume   931.71476392
_cell_formula_units_Z   4
loop_
 _symmetry_equiv_pos_site_id
 _symmetry_equiv_pos_as_xyz
  1  'x, y, z'
loop_
 _atom_site_type_symbol
 _atom_site_label
 _atom_site_symmetry_multiplicity
 _atom_site_fract_x
 _atom_site_fract_y
 _atom_site_fract_z
 _atom_site_occupancy
  Na  Na0  1  0.10038300  0.23517500  0.50000000  1
  Na  Na1  1  0.23517500  0.89961700  0.50000000  1
  Na  Na2  1  0.26482500  0.60038300  0.00000000  1
  Na  Na3  1  0.39961700  0.26482500  0.00000000  1
  Na  Na4  1  0.60038300  0.73517500  0.00000000  1
  Na  Na5  1  0.73517500  0.39961700  0.00000000  1
  Na  Na6  1  0.76482500  0.10038300  0.50000000  1
  Na  Na7  1  0.89961700  0.76482500  0.50000000  1
  Ni  Ni8  1  0.00000000  0.00000000  0.32419900  1
  Ni  Ni9  1  0.00000000  0.00000000  0.67580100  1
  Ni  Ni10  1  0.50000000  0.50000000  0.82419900  1
  Ni  Ni11  1  0.50000000  0.50000000  0.17580100  1
  H  H12  1  0.71779150  0.48375650  0.42805850  1
  H  H13  1  0.41422250  0.14368550  0.50000000  1
  H  H14  1  0.82456900  0.20605400  0.69901000  1
  H  H15  1  0.82456900  0.20605400  0.30099000  1
  H  H16  1  0.01624350  0.21779150  0.07194150  1
  H  H17  1  0.98875650  0.26469950  0.27643750  1
  H  H18  1  0.98875650  0.26469950  0.72356250  1
  H  H19  1  0.85631450  0.41422250  0.50000000  1
  H  H20  1  0.98375650  0.78220850  0.07194150  1
  H  H21  1  0.20605400  0.17543100  0.30099000  1
  H  H22  1  0.20605400  0.17543100  0.69901000  1
  H  H23  1  0.21779150  0.98375650  0.07194150  1
  H  H24  1  0.23530050  0.48875650  0.22356250  1
  H  H25  1  0.23530050  0.48875650  0.77643750  1
  H  H26  1  0.26469950  0.01124350  0.27643750  1
  H  H27  1  0.26469950  0.01124350  0.72356250  1
  H  H28  1  0.28220850  0.51624350  0.42805850  1
  H  H29  1  0.29394600  0.32456900  0.80099000  1
  H  H30  1  0.29394600  0.32456900  0.19901000  1
  H  H31  1  0.51624350  0.71779150  0.42805850  1
  H  H32  1  0.64368550  0.08577750  0.00000000  1
  H  H33  1  0.51124350  0.23530050  0.22356250  1
  H  H34  1  0.51124350  0.23530050  0.77643750  1
  H  H35  1  0.48375650  0.28220850  0.42805850  1
  H  H36  1  0.67543100  0.29394600  0.80099000  1
  H  H37  1  0.67543100  0.29394600  0.19901000  1
  H  H38  1  0.08577750  0.35631450  0.00000000  1
  H  H39  1  0.78220850  0.01624350  0.07194150  1
  H  H40  1  0.21779150  0.98375650  0.92805850  1
  H  H41  1  0.91422250  0.64368550  0.00000000  1
  H  H42  1  0.32456900  0.70605400  0.19901000  1
  H  H43  1  0.32456900  0.70605400  0.80099000  1
  H  H44  1  0.51624350  0.71779150  0.57194150  1
  H  H45  1  0.48875650  0.76469950  0.77643750  1
  H  H46  1  0.48875650  0.76469950  0.22356250  1
  H  H47  1  0.35631450  0.91422250  0.00000000  1
  H  H48  1  0.48375650  0.28220850  0.57194150  1
  H  H49  1  0.70605400  0.67543100  0.80099000  1
  H  H50  1  0.70605400  0.67543100  0.19901000  1
  H  H51  1  0.71779150  0.48375650  0.57194150  1
  H  H52  1  0.73530050  0.98875650  0.72356250  1
  H  H53  1  0.73530050  0.98875650  0.27643750  1
  H  H54  1  0.76469950  0.51124350  0.77643750  1
  H  H55  1  0.76469950  0.51124350  0.22356250  1
  H  H56  1  0.78220850  0.01624350  0.92805850  1
  H  H57  1  0.79394600  0.82456900  0.30099000  1
  H  H58  1  0.79394600  0.82456900  0.69901000  1
  H  H59  1  0.01624350  0.21779150  0.92805850  1
  H  H60  1  0.14368550  0.58577750  0.50000000  1
  H  H61  1  0.01124350  0.73530050  0.72356250  1
  H  H62  1  0.01124350  0.73530050  0.27643750  1
  H  H63  1  0.98375650  0.78220850  0.92805850  1
  H  H64  1  0.17543100  0.79394600  0.30099000  1
  H  H65  1  0.17543100  0.79394600  0.69901000  1
  H  H66  1  0.58577750  0.85631450  0.50000000  1
  H  H67  1  0.28220850  0.51624350  0.57194150  1
  N  N68  1  0.93041650  0.19952750  0.66603150  1
  N  N69  1  0.93041650  0.19952750  0.33396850  1
  N  N70  1  0.28397500  0.00185600  0.00000000  1
  N  N71  1  0.19952750  0.06958350  0.33396850  1
  N  N72  1  0.19952750  0.06958350  0.66603150  1
  N  N73  1  0.00185600  0.71602500  0.00000000  1
  N  N74  1  0.49814400  0.78397500  0.50000000  1
  N  N75  1  0.30047250  0.43041650  0.16603150  1
  N  N76  1  0.30047250  0.43041650  0.83396850  1
  N  N77  1  0.21602500  0.49814400  0.50000000  1
  N  N78  1  0.56958350  0.30047250  0.83396850  1
  N  N79  1  0.56958350  0.30047250  0.16603150  1
  N  N80  1  0.43041650  0.69952750  0.16603150  1
  N  N81  1  0.43041650  0.69952750  0.83396850  1
  N  N82  1  0.78397500  0.50185600  0.50000000  1
  N  N83  1  0.69952750  0.56958350  0.83396850  1
  N  N84  1  0.69952750  0.56958350  0.16603150  1
  N  N85  1  0.50185600  0.21602500  0.50000000  1
  N  N86  1  0.99814400  0.28397500  0.00000000  1
  N  N87  1  0.80047250  0.93041650  0.66603150  1
  N  N88  1  0.80047250  0.93041650  0.33396850  1
  N  N89  1  0.71602500  0.99814400  0.00000000  1
  N  N90  1  0.06958350  0.80047250  0.33396850  1
  N  N91  1  0.06958350  0.80047250  0.66603150  1
