# generated using pymatgen
data_Ce6Y2O15
_symmetry_space_group_name_H-M   'P 1'
_cell_length_a   15.40073400
_cell_length_b   10.90650000
_cell_length_c   10.88670822
_cell_angle_alpha   90.00000000
_cell_angle_beta   134.98674423
_cell_angle_gamma   90.00000000
_symmetry_Int_Tables_number   1
_chemical_formula_structural   Ce6Y2O15
_chemical_formula_sum   'Ce24 Y8 O60'
_cell_volume   1293.32854427
_cell_formula_units_Z   4
loop_
 _symmetry_equiv_pos_site_id
 _symmetry_equiv_pos_as_xyz
  1  'x, y, z'
loop_
 _atom_site_type_symbol
 _atom_site_label
 _atom_site_symmetry_multiplicity
 _atom_site_fract_x
 _atom_site_fract_y
 _atom_site_fract_z
 _atom_site_occupancy
  Ce  Ce0  1  0.49749800  0.25430600  0.74449000  1
  Ce  Ce1  1  0.74500100  0.98760200  0.48253300  1
  Ce  Ce2  1  0.74843650  0.50089950  0.00074900  1
  Ce  Ce3  1  0.49853050  0.99652350  0.99654400  1
  Ce  Ce4  1  0.01146200  0.74037400  0.25741600  1
  Ce  Ce5  1  0.49853050  0.00347650  0.49654400  1
  Ce  Ce6  1  0.51146200  0.75962600  0.75741600  1
  Ce  Ce7  1  0.75254800  0.75157800  0.75047300  1
  Ce  Ce8  1  0.75254800  0.24842200  0.25047300  1
  Ce  Ce9  1  0.74500100  0.01239800  0.98253300  1
  Ce  Ce10  1  0.74843650  0.49910050  0.50074900  1
  Ce  Ce11  1  0.99749800  0.24569400  0.24449000  1
  Ce  Ce12  1  0.99749800  0.75430600  0.74449000  1
  Ce  Ce13  1  0.24500100  0.48760200  0.48253300  1
  Ce  Ce14  1  0.24843650  0.00089950  0.00074900  1
  Ce  Ce15  1  0.99853050  0.49652350  0.99654400  1
  Ce  Ce16  1  0.51146200  0.24037400  0.25741600  1
  Ce  Ce17  1  0.99853050  0.50347650  0.49654400  1
  Ce  Ce18  1  0.01146200  0.25962600  0.75741600  1
  Ce  Ce19  1  0.25254800  0.25157800  0.75047300  1
  Ce  Ce20  1  0.25254800  0.74842200  0.25047300  1
  Ce  Ce21  1  0.24500100  0.51239800  0.98253300  1
  Ce  Ce22  1  0.24843650  0.99910050  0.50074900  1
  Ce  Ce23  1  0.49749800  0.74569400  0.24449000  1
  Y  Y24  1  0.00720950  0.01169550  0.51995800  1
  Y  Y25  1  0.73669650  0.26287250  0.74467600  1
  Y  Y26  1  0.73669650  0.73712750  0.24467600  1
  Y  Y27  1  0.50720950  0.48830450  0.01995800  1
  Y  Y28  1  0.50720950  0.51169550  0.51995800  1
  Y  Y29  1  0.23669650  0.76287250  0.74467600  1
  Y  Y30  1  0.23669650  0.23712750  0.24467600  1
  Y  Y31  1  0.00720950  0.98830450  0.01995800  1
  O  O32  1  0.61602250  0.13230250  0.73813400  1
  O  O33  1  0.87454150  0.89020950  0.74811600  1
  O  O34  1  0.37476350  0.13988050  0.24930400  1
  O  O35  1  0.86928250  0.12580250  0.97369100  1
  O  O36  1  0.86928250  0.87419750  0.47369100  1
  O  O37  1  0.62684000  0.11625900  0.24367500  1
  O  O38  1  0.64750200  0.87787500  0.01571400  1
  O  O39  1  0.14750200  0.62212500  0.51571400  1
  O  O40  1  0.62303850  0.38346950  0.75619600  1
  O  O41  1  0.59787400  0.62476500  0.97427000  1
  O  O42  1  0.59787400  0.37523500  0.47427000  1
  O  O43  1  0.11602250  0.36769750  0.23813400  1
  O  O44  1  0.63252700  0.36495300  0.25948900  1
  O  O45  1  0.62289850  0.12800650  0.99224900  1
  O  O46  1  0.13252700  0.13504700  0.75948900  1
  O  O47  1  0.37148150  0.12105750  0.50065700  1
  O  O48  1  0.87148150  0.37894250  0.00065700  1
  O  O49  1  0.37765100  0.37194200  0.02656000  1
  O  O50  1  0.37588050  0.12547850  0.75101800  1
  O  O51  1  0.87765100  0.12805800  0.52656000  1
  O  O52  1  0.87454150  0.10979050  0.24811600  1
  O  O53  1  0.88005200  0.62276100  0.00110400  1
  O  O54  1  0.88005200  0.37723900  0.50110400  1
  O  O55  1  0.37476350  0.86011950  0.74930400  1
  O  O56  1  0.62684000  0.88374100  0.74367500  1
  O  O57  1  0.63027650  0.62792950  0.50900600  1
  O  O58  1  0.63027650  0.37207050  0.00900600  1
  O  O59  1  0.62303850  0.61653050  0.25619600  1
  O  O60  1  0.12289850  0.37199350  0.49224900  1
  O  O61  1  0.87588050  0.37452150  0.25101800  1
  O  O62  1  0.11602250  0.63230250  0.73813400  1
  O  O63  1  0.37454150  0.39020950  0.74811600  1
  O  O64  1  0.87476350  0.63988050  0.24930400  1
  O  O65  1  0.36928250  0.62580250  0.97369100  1
  O  O66  1  0.36928250  0.37419750  0.47369100  1
  O  O67  1  0.12684000  0.61625900  0.24367500  1
  O  O68  1  0.14750200  0.37787500  0.01571400  1
  O  O69  1  0.64750200  0.12212500  0.51571400  1
  O  O70  1  0.12303850  0.88346950  0.75619600  1
  O  O71  1  0.09787400  0.12476500  0.97427000  1
  O  O72  1  0.09787400  0.87523500  0.47427000  1
  O  O73  1  0.61602250  0.86769750  0.23813400  1
  O  O74  1  0.13252700  0.86495300  0.25948900  1
  O  O75  1  0.12289850  0.62800650  0.99224900  1
  O  O76  1  0.63252700  0.63504700  0.75948900  1
  O  O77  1  0.87148150  0.62105750  0.50065700  1
  O  O78  1  0.37148150  0.87894250  0.00065700  1
  O  O79  1  0.87765100  0.87194200  0.02656000  1
  O  O80  1  0.87588050  0.62547850  0.75101800  1
  O  O81  1  0.37765100  0.62805800  0.52656000  1
  O  O82  1  0.37454150  0.60979050  0.24811600  1
  O  O83  1  0.38005200  0.12276100  0.00110400  1
  O  O84  1  0.38005200  0.87723900  0.50110400  1
  O  O85  1  0.87476350  0.36011950  0.74930400  1
  O  O86  1  0.12684000  0.38374100  0.74367500  1
  O  O87  1  0.13027650  0.12792950  0.50900600  1
  O  O88  1  0.13027650  0.87207050  0.00900600  1
  O  O89  1  0.12303850  0.11653050  0.25619600  1
  O  O90  1  0.62289850  0.87199350  0.49224900  1
  O  O91  1  0.37588050  0.87452150  0.25101800  1
