# generated using pymatgen
data_BeCrO4
_symmetry_space_group_name_H-M   'P 1'
_cell_length_a   4.91102900
_cell_length_b   8.32874800
_cell_length_c   8.56828823
_cell_angle_alpha   90.00000000
_cell_angle_beta   116.66289734
_cell_angle_gamma   90.00000000
_symmetry_Int_Tables_number   1
_chemical_formula_structural   BeCrO4
_chemical_formula_sum   'Be4 Cr4 O16'
_cell_volume   313.19848964
_cell_formula_units_Z   4
loop_
 _symmetry_equiv_pos_site_id
 _symmetry_equiv_pos_as_xyz
  1  'x, y, z'
loop_
 _atom_site_type_symbol
 _atom_site_label
 _atom_site_symmetry_multiplicity
 _atom_site_fract_x
 _atom_site_fract_y
 _atom_site_fract_z
 _atom_site_occupancy
  Be  Be0  1  0.90452900  0.10376200  0.24708000  1
  Be  Be1  1  0.09547100  0.60376200  0.25292000  1
  Be  Be2  1  0.90452900  0.39623800  0.74708000  1
  Be  Be3  1  0.09547100  0.89623800  0.75292000  1
  Cr  Cr4  1  0.29719900  0.30151900  0.14427100  1
  Cr  Cr5  1  0.70280100  0.80151900  0.35572900  1
  Cr  Cr6  1  0.29719900  0.19848100  0.64427100  1
  Cr  Cr7  1  0.70280100  0.69848100  0.85572900  1
  O  O8  1  0.82904700  0.60958900  0.04913000  1
  O  O9  1  0.08410400  0.14179700  0.12905200  1
  O  O10  1  0.73108100  0.93067500  0.21409700  1
  O  O11  1  0.65811900  0.24603900  0.21313200  1
  O  O12  1  0.34188100  0.74603900  0.28686800  1
  O  O13  1  0.26891900  0.43067500  0.28590300  1
  O  O14  1  0.91589600  0.64179700  0.37094800  1
  O  O15  1  0.82904700  0.89041100  0.54913000  1
  O  O16  1  0.17095300  0.10958900  0.45087000  1
  O  O17  1  0.08410400  0.35820300  0.62905200  1
  O  O18  1  0.73108100  0.56932500  0.71409700  1
  O  O19  1  0.65811900  0.25396100  0.71313200  1
  O  O20  1  0.34188100  0.75396100  0.78686800  1
  O  O21  1  0.26891900  0.06932500  0.78590300  1
  O  O22  1  0.91589600  0.85820300  0.87094800  1
  O  O23  1  0.17095300  0.39041100  0.95087000  1
