# generated using pymatgen
data_Tm2Sb2O7
_symmetry_space_group_name_H-M   'P 1'
_cell_length_a   7.50586768
_cell_length_b   7.50586768
_cell_length_c   18.32047300
_cell_angle_alpha   90.00000000
_cell_angle_beta   90.00000000
_cell_angle_gamma   120.00000000
_symmetry_Int_Tables_number   1
_chemical_formula_structural   Tm2Sb2O7
_chemical_formula_sum   'Tm12 Sb12 O42'
_cell_volume   893.85921611
_cell_formula_units_Z   6
loop_
 _symmetry_equiv_pos_site_id
 _symmetry_equiv_pos_as_xyz
  1  'x, y, z'
loop_
 _atom_site_type_symbol
 _atom_site_label
 _atom_site_symmetry_multiplicity
 _atom_site_fract_x
 _atom_site_fract_y
 _atom_site_fract_z
 _atom_site_occupancy
  Tm  Tm0  1  0.00000000  0.84043800  0.66666667  1
  Tm  Tm1  1  0.00000000  0.83276900  0.16666667  1
  Tm  Tm2  1  0.17777600  0.68225800  0.01138700  1
  Tm  Tm3  1  0.15956200  0.15956200  0.00000000  1
  Tm  Tm4  1  0.50448200  0.82222400  0.67805367  1
  Tm  Tm5  1  0.16723100  0.16723100  0.50000000  1
  Tm  Tm6  1  0.31774200  0.49551800  0.34472033  1
  Tm  Tm7  1  0.49551800  0.31774200  0.65527967  1
  Tm  Tm8  1  0.68225800  0.17777600  0.98861300  1
  Tm  Tm9  1  0.82222400  0.50448200  0.32194633  1
  Tm  Tm10  1  0.83276900  0.00000000  0.83333333  1
  Tm  Tm11  1  0.84043800  0.00000000  0.33333333  1
  Sb  Sb12  1  0.00000000  0.32355400  0.16666667  1
  Sb  Sb13  1  0.00000000  0.31029600  0.66666667  1
  Sb  Sb14  1  0.16955500  0.67014000  0.50148800  1
  Sb  Sb15  1  0.50058500  0.83044500  0.16815467  1
  Sb  Sb16  1  0.32986000  0.49941500  0.83482133  1
  Sb  Sb17  1  0.31029600  0.00000000  0.33333333  1
  Sb  Sb18  1  0.67644600  0.67644600  0.50000000  1
  Sb  Sb19  1  0.32355400  0.00000000  0.83333333  1
  Sb  Sb20  1  0.68970400  0.68970400  0.00000000  1
  Sb  Sb21  1  0.49941500  0.32986000  0.16517867  1
  Sb  Sb22  1  0.67014000  0.16955500  0.49851200  1
  Sb  Sb23  1  0.83044500  0.50058500  0.83184533  1
  O  O24  1  0.02262500  0.85310300  0.28422000  1
  O  O25  1  0.98119500  0.80299500  0.80270300  1
  O  O26  1  0.10365800  0.65563500  0.39412200  1
  O  O27  1  0.06427500  0.46405800  0.80226600  1
  O  O28  1  0.32583500  0.99273400  0.95694400  1
  O  O29  1  0.24021100  0.69192900  0.60685600  1
  O  O30  1  0.00726600  0.33310100  0.29027733  1
  O  O31  1  0.20043200  0.68892300  0.13922000  1
  O  O32  1  0.39978300  0.93572500  0.46893267  1
  O  O33  1  0.45171800  0.75978900  0.27352267  1
  O  O34  1  0.48849100  0.79956800  0.80588667  1
  O  O35  1  0.34436500  0.44802300  0.72745533  1
  O  O36  1  0.14689700  0.16952200  0.61755333  1
  O  O37  1  0.31107700  0.51150900  0.47255333  1
  O  O38  1  0.19700500  0.17820000  0.13603633  1
  O  O39  1  0.16952200  0.14689700  0.38244667  1
  O  O40  1  0.30807100  0.54828200  0.94018933  1
  O  O41  1  0.17820000  0.19700500  0.86396367  1
  O  O42  1  0.55197700  0.89634200  0.06078867  1
  O  O43  1  0.53594200  0.60021700  0.13559933  1
  O  O44  1  0.82180000  0.01880500  0.46936967  1
  O  O45  1  0.66689900  0.67416500  0.62361067  1
  O  O46  1  0.44802300  0.34436500  0.27254467  1
  O  O47  1  0.60021700  0.53594200  0.86440067  1
  O  O48  1  0.33310100  0.00726600  0.70972267  1
  O  O49  1  0.83047800  0.97737500  0.95088667  1
  O  O50  1  0.54828200  0.30807100  0.05981067  1
  O  O51  1  0.67416500  0.66689900  0.37638933  1
  O  O52  1  0.51150900  0.31107700  0.52744667  1
  O  O53  1  0.46405800  0.06427500  0.19773400  1
  O  O54  1  0.69192900  0.24021100  0.39314400  1
  O  O55  1  0.68892300  0.20043200  0.86078000  1
  O  O56  1  0.89634200  0.55197700  0.93921133  1
  O  O57  1  0.97737500  0.83047800  0.04911333  1
  O  O58  1  0.79956800  0.48849100  0.19411333  1
  O  O59  1  0.01880500  0.82180000  0.53063033  1
  O  O60  1  0.75978900  0.45171800  0.72647733  1
  O  O61  1  0.65563500  0.10365800  0.60587800  1
  O  O62  1  0.93572500  0.39978300  0.53106733  1
  O  O63  1  0.80299500  0.98119500  0.19729700  1
  O  O64  1  0.99273400  0.32583500  0.04305600  1
  O  O65  1  0.85310300  0.02262500  0.71578000  1
