# generated using pymatgen
data_Be2P2O7
_symmetry_space_group_name_H-M   'P 1'
_cell_length_a   19.61901200
_cell_length_b   7.89268800
_cell_length_c   8.86750497
_cell_angle_alpha   90.00000000
_cell_angle_beta   98.01572405
_cell_angle_gamma   90.00000000
_symmetry_Int_Tables_number   1
_chemical_formula_structural   Be2P2O7
_chemical_formula_sum   'Be24 P24 O84'
_cell_volume   1359.68878930
_cell_formula_units_Z   12
loop_
 _symmetry_equiv_pos_site_id
 _symmetry_equiv_pos_as_xyz
  1  'x, y, z'
loop_
 _atom_site_type_symbol
 _atom_site_label
 _atom_site_symmetry_multiplicity
 _atom_site_fract_x
 _atom_site_fract_y
 _atom_site_fract_z
 _atom_site_occupancy
  Be  Be0  1  0.96297400  0.18345900  0.95091200  1
  Be  Be1  1  0.85854200  0.43267700  0.87881200  1
  Be  Be2  1  0.78977000  0.71576600  0.77056800  1
  Be  Be3  1  0.71023000  0.21576600  0.72943200  1
  Be  Be4  1  0.64145800  0.93267700  0.62118800  1
  Be  Be5  1  0.53702600  0.68345900  0.54908800  1
  Be  Be6  1  0.96297400  0.81654100  0.45091200  1
  Be  Be7  1  0.85854200  0.56732300  0.37881200  1
  Be  Be8  1  0.78977000  0.28423400  0.27056800  1
  Be  Be9  1  0.71023000  0.78423400  0.22943200  1
  Be  Be10  1  0.64145800  0.06732300  0.12118800  1
  Be  Be11  1  0.53702600  0.31654100  0.04908800  1
  Be  Be12  1  0.46297400  0.68345900  0.95091200  1
  Be  Be13  1  0.35854200  0.93267700  0.87881200  1
  Be  Be14  1  0.28977000  0.21576600  0.77056800  1
  Be  Be15  1  0.21023000  0.71576600  0.72943200  1
  Be  Be16  1  0.14145800  0.43267700  0.62118800  1
  Be  Be17  1  0.03702600  0.18345900  0.54908800  1
  Be  Be18  1  0.46297400  0.31654100  0.45091200  1
  Be  Be19  1  0.35854200  0.06732300  0.37881200  1
  Be  Be20  1  0.28977000  0.78423400  0.27056800  1
  Be  Be21  1  0.21023000  0.28423400  0.22943200  1
  Be  Be22  1  0.14145800  0.56732300  0.12118800  1
  Be  Be23  1  0.03702600  0.81654100  0.04908800  1
  P  P24  1  0.60549900  0.45717500  0.80709500  1
  P  P25  1  0.75953700  0.98017900  0.97263800  1
  P  P26  1  0.55915550  0.96128350  0.86394800  1
  P  P27  1  0.94084450  0.46128350  0.63605200  1
  P  P28  1  0.74046300  0.48017900  0.52736200  1
  P  P29  1  0.89450100  0.95717500  0.69290500  1
  P  P30  1  0.60549900  0.54282500  0.30709500  1
  P  P31  1  0.75953700  0.01982100  0.47263800  1
  P  P32  1  0.55915550  0.03871650  0.36394800  1
  P  P33  1  0.94084450  0.53871650  0.13605200  1
  P  P34  1  0.74046300  0.51982100  0.02736200  1
  P  P35  1  0.89450100  0.04282500  0.19290500  1
  P  P36  1  0.10549900  0.95717500  0.80709500  1
  P  P37  1  0.25953700  0.48017900  0.97263800  1
  P  P38  1  0.05915550  0.46128350  0.86394800  1
  P  P39  1  0.44084450  0.96128350  0.63605200  1
  P  P40  1  0.24046300  0.98017900  0.52736200  1
  P  P41  1  0.39450100  0.45717500  0.69290500  1
  P  P42  1  0.10549900  0.04282500  0.30709500  1
  P  P43  1  0.25953700  0.51982100  0.47263800  1
  P  P44  1  0.05915550  0.53871650  0.36394800  1
  P  P45  1  0.44084450  0.03871650  0.13605200  1
  P  P46  1  0.24046300  0.01982100  0.02736200  1
  P  P47  1  0.39450100  0.54282500  0.19290500  1
  O  O48  1  0.54704500  0.41519400  0.89877400  1
  O  O49  1  0.66679150  0.54024150  0.92934500  1
  O  O50  1  0.79273150  0.52925950  0.90589300  1
  O  O51  1  0.58366900  0.09759200  0.98620700  1
  O  O52  1  0.52927700  0.80336200  0.92710600  1
  O  O53  1  0.91566550  0.09683750  0.80854100  1
  O  O54  1  0.86326100  0.79964100  0.75582800  1
  O  O55  1  0.75392250  0.14612750  0.88469300  1
  O  O56  1  0.88112700  0.42688800  0.72246400  1
  O  O57  1  0.74793300  0.83221100  0.86549800  1
  O  O58  1  0.00000000  0.55691500  0.75000000  1
  O  O59  1  0.75206700  0.33221100  0.63450200  1
  O  O60  1  0.61887300  0.92688800  0.77753600  1
  O  O61  1  0.74607750  0.64612750  0.61530700  1
  O  O62  1  0.63673900  0.29964100  0.74417200  1
  O  O63  1  0.58433450  0.59683750  0.69145900  1
  O  O64  1  0.97072300  0.30336200  0.57289400  1
  O  O65  1  0.54704500  0.58480600  0.39877400  1
  O  O66  1  0.66679150  0.45975850  0.42934500  1
  O  O67  1  0.91633100  0.59759200  0.51379300  1
  O  O68  1  0.79273150  0.47074050  0.40589300  1
  O  O69  1  0.70726850  0.02925950  0.59410700  1
  O  O70  1  0.58366900  0.90240800  0.48620700  1
  O  O71  1  0.83320850  0.04024150  0.57065500  1
  O  O72  1  0.95295500  0.91519400  0.60122600  1
  O  O73  1  0.52927700  0.19663800  0.42710600  1
  O  O74  1  0.91566550  0.90316250  0.30854100  1
  O  O75  1  0.86326100  0.20035900  0.25582800  1
  O  O76  1  0.75392250  0.85387250  0.38469300  1
  O  O77  1  0.88112700  0.57311200  0.22246400  1
  O  O78  1  0.74793300  0.16778900  0.36549800  1
  O  O79  1  0.00000000  0.44308500  0.25000000  1
  O  O80  1  0.75206700  0.66778900  0.13450200  1
  O  O81  1  0.61887300  0.07311200  0.27753600  1
  O  O82  1  0.74607750  0.35387250  0.11530700  1
  O  O83  1  0.63673900  0.70035900  0.24417200  1
  O  O84  1  0.58433450  0.40316250  0.19145900  1
  O  O85  1  0.97072300  0.69663800  0.07289400  1
  O  O86  1  0.91633100  0.40240800  0.01379300  1
  O  O87  1  0.70726850  0.97074050  0.09410700  1
  O  O88  1  0.83320850  0.95975850  0.07065500  1
  O  O89  1  0.95295500  0.08480600  0.10122600  1
  O  O90  1  0.04704500  0.91519400  0.89877400  1
  O  O91  1  0.16679150  0.04024150  0.92934500  1
  O  O92  1  0.29273150  0.02925950  0.90589300  1
  O  O93  1  0.08366900  0.59759200  0.98620700  1
  O  O94  1  0.02927700  0.30336200  0.92710600  1
  O  O95  1  0.41566550  0.59683750  0.80854100  1
  O  O96  1  0.36326100  0.29964100  0.75582800  1
  O  O97  1  0.25392250  0.64612750  0.88469300  1
  O  O98  1  0.38112700  0.92688800  0.72246400  1
  O  O99  1  0.24793300  0.33221100  0.86549800  1
  O  O100  1  0.50000000  0.05691500  0.75000000  1
  O  O101  1  0.25206700  0.83221100  0.63450200  1
  O  O102  1  0.11887300  0.42688800  0.77753600  1
  O  O103  1  0.24607750  0.14612750  0.61530700  1
  O  O104  1  0.13673900  0.79964100  0.74417200  1
  O  O105  1  0.08433450  0.09683750  0.69145900  1
  O  O106  1  0.47072300  0.80336200  0.57289400  1
  O  O107  1  0.04704500  0.08480600  0.39877400  1
  O  O108  1  0.16679150  0.95975850  0.42934500  1
  O  O109  1  0.41633100  0.09759200  0.51379300  1
  O  O110  1  0.29273150  0.97074050  0.40589300  1
  O  O111  1  0.20726850  0.52925950  0.59410700  1
  O  O112  1  0.08366900  0.40240800  0.48620700  1
  O  O113  1  0.33320850  0.54024150  0.57065500  1
  O  O114  1  0.45295500  0.41519400  0.60122600  1
  O  O115  1  0.02927700  0.69663800  0.42710600  1
  O  O116  1  0.41566550  0.40316250  0.30854100  1
  O  O117  1  0.36326100  0.70035900  0.25582800  1
  O  O118  1  0.25392250  0.35387250  0.38469300  1
  O  O119  1  0.38112700  0.07311200  0.22246400  1
  O  O120  1  0.24793300  0.66778900  0.36549800  1
  O  O121  1  0.50000000  0.94308500  0.25000000  1
  O  O122  1  0.25206700  0.16778900  0.13450200  1
  O  O123  1  0.11887300  0.57311200  0.27753600  1
  O  O124  1  0.24607750  0.85387250  0.11530700  1
  O  O125  1  0.13673900  0.20035900  0.24417200  1
  O  O126  1  0.08433450  0.90316250  0.19145900  1
  O  O127  1  0.47072300  0.19663800  0.07289400  1
  O  O128  1  0.41633100  0.90240800  0.01379300  1
  O  O129  1  0.20726850  0.47074050  0.09410700  1
  O  O130  1  0.33320850  0.45975850  0.07065500  1
  O  O131  1  0.45295500  0.58480600  0.10122600  1
