# generated using pymatgen
data_MgUO4
_symmetry_space_group_name_H-M   'P 1'
_cell_length_a   6.62110199
_cell_length_b   6.70389321
_cell_length_c   6.96627157
_cell_angle_alpha   90.00000000
_cell_angle_beta   90.00000000
_cell_angle_gamma   90.00000000
_symmetry_Int_Tables_number   1
_chemical_formula_structural   MgUO4
_chemical_formula_sum   'Mg4 U4 O16'
_cell_volume   309.21301524
_cell_formula_units_Z   4
loop_
 _symmetry_equiv_pos_site_id
 _symmetry_equiv_pos_as_xyz
  1  'x, y, z'
loop_
 _atom_site_type_symbol
 _atom_site_label
 _atom_site_symmetry_multiplicity
 _atom_site_fract_x
 _atom_site_fract_y
 _atom_site_fract_z
 _atom_site_occupancy
  Mg  Mg0  1  0.00000000  0.50000000  0.00000000  1
  Mg  Mg1  1  0.50000000  0.00000000  0.00000000  1
  Mg  Mg2  1  0.50000000  0.00000000  0.50000000  1
  Mg  Mg3  1  0.00000000  0.50000000  0.50000000  1
  U  U4  1  0.50000000  0.51406947  0.75000000  1
  U  U5  1  0.00000000  0.98593053  0.75000000  1
  U  U6  1  0.00000000  0.01406947  0.25000000  1
  U  U7  1  0.50000000  0.48593053  0.25000000  1
  O  O8  1  0.00000000  0.80871736  0.48933970  1
  O  O9  1  0.50000000  0.69128264  0.01066030  1
  O  O10  1  0.50000000  0.30871736  0.51066030  1
  O  O11  1  0.00000000  0.19128264  0.98933970  1
  O  O12  1  0.20224061  0.51440757  0.75000000  1
  O  O13  1  0.70224061  0.98559243  0.75000000  1
  O  O14  1  0.79775939  0.51440757  0.75000000  1
  O  O15  1  0.29775939  0.98559243  0.75000000  1
  O  O16  1  0.50000000  0.30871736  0.98933970  1
  O  O17  1  0.00000000  0.19128264  0.51066030  1
  O  O18  1  0.00000000  0.80871736  0.01066030  1
  O  O19  1  0.50000000  0.69128264  0.48933970  1
  O  O20  1  0.70224061  0.01440757  0.25000000  1
  O  O21  1  0.20224061  0.48559243  0.25000000  1
  O  O22  1  0.29775939  0.01440757  0.25000000  1
  O  O23  1  0.79775939  0.48559243  0.25000000  1
