# generated using pymatgen
data_Gd3TaO7
_symmetry_space_group_name_H-M   'P 1'
_cell_length_a   7.44206200
_cell_length_b   10.77429000
_cell_length_c   7.59455200
_cell_angle_alpha   90.00000000
_cell_angle_beta   90.00000000
_cell_angle_gamma   90.00000000
_symmetry_Int_Tables_number   1
_chemical_formula_structural   Gd3TaO7
_chemical_formula_sum   'Gd12 Ta4 O28'
_cell_volume   608.95346319
_cell_formula_units_Z   4
loop_
 _symmetry_equiv_pos_site_id
 _symmetry_equiv_pos_as_xyz
  1  'x, y, z'
loop_
 _atom_site_type_symbol
 _atom_site_label
 _atom_site_symmetry_multiplicity
 _atom_site_fract_x
 _atom_site_fract_y
 _atom_site_fract_z
 _atom_site_occupancy
  Gd  Gd0  1  0.28937650  0.22947150  0.25000000  1
  Gd  Gd1  1  0.71062350  0.22947150  0.75000000  1
  Gd  Gd2  1  0.00000000  0.00000000  0.00000000  1
  Gd  Gd3  1  0.00000000  0.00000000  0.50000000  1
  Gd  Gd4  1  0.28937650  0.77052850  0.25000000  1
  Gd  Gd5  1  0.71062350  0.77052850  0.75000000  1
  Gd  Gd6  1  0.78937650  0.72947150  0.25000000  1
  Gd  Gd7  1  0.21062350  0.72947150  0.75000000  1
  Gd  Gd8  1  0.50000000  0.50000000  0.00000000  1
  Gd  Gd9  1  0.50000000  0.50000000  0.50000000  1
  Gd  Gd10  1  0.78937650  0.27052850  0.25000000  1
  Gd  Gd11  1  0.21062350  0.27052850  0.75000000  1
  Ta  Ta12  1  0.50000000  0.00000000  0.00000000  1
  Ta  Ta13  1  0.50000000  0.00000000  0.50000000  1
  Ta  Ta14  1  0.00000000  0.50000000  0.00000000  1
  Ta  Ta15  1  0.00000000  0.50000000  0.50000000  1
  O  O16  1  0.52226600  0.36826600  0.25000000  1
  O  O17  1  0.47773400  0.36826600  0.75000000  1
  O  O18  1  0.69037400  0.12836000  0.03606800  1
  O  O19  1  0.30962600  0.12836000  0.96393200  1
  O  O20  1  0.69037400  0.12836000  0.46393200  1
  O  O21  1  0.30962600  0.12836000  0.53606800  1
  O  O22  1  0.57627500  0.00000000  0.75000000  1
  O  O23  1  0.42372500  0.00000000  0.25000000  1
  O  O24  1  0.30962600  0.87164000  0.53606800  1
  O  O25  1  0.69037400  0.87164000  0.03606800  1
  O  O26  1  0.30962600  0.87164000  0.96393200  1
  O  O27  1  0.69037400  0.87164000  0.46393200  1
  O  O28  1  0.52226600  0.63173400  0.25000000  1
  O  O29  1  0.47773400  0.63173400  0.75000000  1
  O  O30  1  0.02226600  0.86826600  0.25000000  1
  O  O31  1  0.97773400  0.86826600  0.75000000  1
  O  O32  1  0.19037400  0.62836000  0.03606800  1
  O  O33  1  0.80962600  0.62836000  0.96393200  1
  O  O34  1  0.19037400  0.62836000  0.46393200  1
  O  O35  1  0.80962600  0.62836000  0.53606800  1
  O  O36  1  0.07627500  0.50000000  0.75000000  1
  O  O37  1  0.92372500  0.50000000  0.25000000  1
  O  O38  1  0.80962600  0.37164000  0.53606800  1
  O  O39  1  0.19037400  0.37164000  0.03606800  1
  O  O40  1  0.80962600  0.37164000  0.96393200  1
  O  O41  1  0.19037400  0.37164000  0.46393200  1
  O  O42  1  0.02226600  0.13173400  0.25000000  1
  O  O43  1  0.97773400  0.13173400  0.75000000  1
