# generated using pymatgen
data_Dy29Y3O48
_symmetry_space_group_name_H-M   'P 1'
_cell_length_a   9.24379700
_cell_length_b   9.24480776
_cell_length_c   15.09416617
_cell_angle_alpha   90.00760820
_cell_angle_beta   90.00126783
_cell_angle_gamma   109.47139428
_symmetry_Int_Tables_number   1
_chemical_formula_structural   Dy29Y3O48
_chemical_formula_sum   'Dy29 Y3 O48'
_cell_volume   1216.13189675
_cell_formula_units_Z   1
loop_
 _symmetry_equiv_pos_site_id
 _symmetry_equiv_pos_as_xyz
  1  'x, y, z'
loop_
 _atom_site_type_symbol
 _atom_site_label
 _atom_site_symmetry_multiplicity
 _atom_site_fract_x
 _atom_site_fract_y
 _atom_site_fract_z
 _atom_site_occupancy
  Dy  Dy0  1  0.84219300  0.09222100  0.62494200  1
  Dy  Dy1  1  0.65772200  0.40785100  0.87490100  1
  Dy  Dy2  1  0.98364800  0.51654900  0.73349400  1
  Dy  Dy3  1  0.23384300  0.26638200  0.98361900  1
  Dy  Dy4  1  0.74994700  0.74988700  0.74993000  1
  Dy  Dy5  1  0.25013000  0.25005600  0.74995500  1
  Dy  Dy6  1  0.49990900  0.99992900  0.00003400  1
  Dy  Dy7  1  0.99991000  0.49992900  0.50003200  1
  Dy  Dy8  1  0.39148300  0.60864000  0.85858100  1
  Dy  Dy9  1  0.89139500  0.10860000  0.35862900  1
  Dy  Dy10  1  0.64142100  0.35858700  0.60861300  1
  Dy  Dy11  1  0.51626400  0.98350400  0.76633000  1
  Dy  Dy12  1  0.26640400  0.23346000  0.51644300  1
  Dy  Dy13  1  0.34212700  0.59212700  0.62507500  1
  Dy  Dy14  1  0.15791500  0.90780300  0.87494200  1
  Dy  Dy15  1  0.65786200  0.40770200  0.37498500  1
  Dy  Dy16  1  0.84208100  0.09202900  0.12511700  1
  Dy  Dy17  1  0.48367000  0.01655500  0.23356300  1
  Dy  Dy18  1  0.73372800  0.76642300  0.48362000  1
  Dy  Dy19  1  0.10861400  0.89139700  0.64136900  1
  Dy  Dy20  1  0.75017400  0.75002700  0.24998900  1
  Dy  Dy21  1  0.24991600  0.24988900  0.24996100  1
  Dy  Dy22  1  0.50005000  0.00011400  0.50000600  1
  Dy  Dy23  1  0.60851900  0.39135400  0.14141900  1
  Dy  Dy24  1  0.01628600  0.48350900  0.26639600  1
  Dy  Dy25  1  0.76628200  0.73350800  0.01644500  1
  Dy  Dy26  1  0.15784900  0.90793100  0.37497500  1
  Dy  Dy27  1  0.34230200  0.59229300  0.12501100  1
  Dy  Dy28  1  0.14146300  0.85873000  0.10865300  1
  Y  Y29  1  0.85857300  0.14120900  0.89131400  1
  Y  Y30  1  0.00004700  0.50012200  0.00000000  1
  Y  Y31  1  0.35861600  0.64136400  0.39135500  1
  O  O32  1  0.90709300  0.39635600  0.86440200  1
  O  O33  1  0.60815900  0.15100500  0.88029200  1
  O  O34  1  0.40105400  0.35859000  0.86962000  1
  O  O35  1  0.99947800  0.76018000  0.77122000  1
  O  O36  1  0.89142200  0.34895800  0.61968200  1
  O  O37  1  0.64602900  0.65718200  0.88530100  1
  O  O38  1  0.73324400  0.96247900  0.99470000  1
  O  O39  1  0.59289900  0.10407200  0.63535800  1
  O  O40  1  0.28693500  0.01617400  0.74434000  1
  O  O41  1  0.09374900  0.12477900  0.86403900  1
  O  O42  1  0.25554500  0.52684000  0.98439800  1
  O  O43  1  0.75507200  0.02682100  0.48433700  1
  O  O44  1  0.72319400  0.49507500  0.73422700  1
  O  O45  1  0.37467700  0.84331600  0.88589400  1
  O  O46  1  0.87469900  0.34333600  0.38591900  1
  O  O47  1  0.40669500  0.37526800  0.63591800  1
  O  O48  1  0.77653700  0.00477600  0.76550600  1
  O  O49  1  0.85407700  0.84285600  0.61460000  1
  O  O50  1  0.76618700  0.53690800  0.50557300  1
  O  O51  1  0.21307500  0.48379700  0.75558900  1
  O  O52  1  0.01006400  0.74992700  0.97881300  1
  O  O53  1  0.51016000  0.24948700  0.47879200  1
  O  O54  1  0.50045900  0.73982100  0.72876600  1
  O  O55  1  0.09897900  0.14141500  0.63034300  1
  O  O56  1  0.90105900  0.85863800  0.36969500  1
  O  O57  1  0.49944600  0.26017300  0.27124300  1
  O  O58  1  0.49003500  0.75067900  0.52141500  1
  O  O59  1  0.99012700  0.25023800  0.02138600  1
  O  O60  1  0.14600700  0.15713400  0.38535800  1
  O  O61  1  0.23332800  0.46252400  0.49469300  1
  O  O62  1  0.78693100  0.51613400  0.24436500  1
  O  O63  1  0.12532200  0.65668000  0.61405200  1
  O  O64  1  0.59371400  0.62475400  0.36409000  1
  O  O65  1  0.22322800  0.99505800  0.23429000  1
  O  O66  1  0.62534600  0.15670500  0.11407500  1
  O  O67  1  0.90666200  0.87524100  0.13597200  1
  O  O68  1  0.24494300  0.97312400  0.51565900  1
  O  O69  1  0.27657300  0.50475900  0.26557300  1
  O  O70  1  0.74446200  0.47310600  0.01559400  1
  O  O71  1  0.35404500  0.34280800  0.11465800  1
  O  O72  1  0.26628200  0.03696300  0.00556600  1
  O  O73  1  0.40733500  0.89667400  0.36460600  1
  O  O74  1  0.71307800  0.98376800  0.25561400  1
  O  O75  1  0.10821900  0.65107200  0.38031300  1
  O  O76  1  0.00043500  0.23981600  0.22878700  1
  O  O77  1  0.59898200  0.64145900  0.13041700  1
  O  O78  1  0.39148300  0.84902200  0.11970200  1
  O  O79  1  0.09313400  0.60437500  0.13555100  1
