# generated using pymatgen
data_Li8Cr2O9
_symmetry_space_group_name_H-M   'P 1'
_cell_length_a   5.73663708
_cell_length_b   8.65098256
_cell_length_c   14.74196801
_cell_angle_alpha   87.12485650
_cell_angle_beta   101.16959365
_cell_angle_gamma   109.12023653
_symmetry_Int_Tables_number   1
_chemical_formula_structural   Li8Cr2O9
_chemical_formula_sum   'Li32 Cr8 O36'
_cell_volume   678.08405584
_cell_formula_units_Z   4
loop_
 _symmetry_equiv_pos_site_id
 _symmetry_equiv_pos_as_xyz
  1  'x, y, z'
loop_
 _atom_site_type_symbol
 _atom_site_label
 _atom_site_symmetry_multiplicity
 _atom_site_fract_x
 _atom_site_fract_y
 _atom_site_fract_z
 _atom_site_occupancy
  Li  Li0  1  0.89365300  0.11818500  0.96677000  1
  Li  Li1  1  0.17814600  0.63271800  0.94643800  1
  Li  Li2  1  0.66440900  0.63088000  0.95511600  1
  Li  Li3  1  0.43887300  0.12274300  0.95725100  1
  Li  Li4  1  0.26127700  0.41260700  0.84233800  1
  Li  Li5  1  0.97706800  0.84820200  0.84698600  1
  Li  Li6  1  0.59559900  0.62988900  0.76020600  1
  Li  Li7  1  0.05523200  0.63108500  0.75875600  1
  Li  Li8  1  0.78836800  0.11826800  0.74489100  1
  Li  Li9  1  0.33305400  0.11587800  0.74406200  1
  Li  Li10  1  0.12731600  0.33968000  0.65833700  1
  Li  Li11  1  0.40424200  0.89636700  0.64964900  1
  Li  Li12  1  0.48844000  0.62990800  0.54327700  1
  Li  Li13  1  0.71062300  0.12088000  0.54126100  1
  Li  Li14  1  0.93223700  0.62399400  0.52985900  1
  Li  Li15  1  0.79409000  0.88210000  0.45250600  1
  Li  Li16  1  0.20591000  0.11790000  0.54749400  1
  Li  Li17  1  0.06776300  0.37600600  0.47014100  1
  Li  Li18  1  0.28937700  0.87912000  0.45873900  1
  Li  Li19  1  0.51156000  0.37009200  0.45672300  1
  Li  Li20  1  0.59575800  0.10363300  0.35035100  1
  Li  Li21  1  0.87268400  0.66032000  0.34166300  1
  Li  Li22  1  0.66694600  0.88412200  0.25593800  1
  Li  Li23  1  0.21163200  0.88173200  0.25510900  1
  Li  Li24  1  0.94476800  0.36891500  0.24124400  1
  Li  Li25  1  0.40440100  0.37011100  0.23979400  1
  Li  Li26  1  0.02293200  0.15179800  0.15301400  1
  Li  Li27  1  0.73872300  0.58739300  0.15766200  1
  Li  Li28  1  0.56112700  0.87725700  0.04274900  1
  Li  Li29  1  0.33559100  0.36912000  0.04488400  1
  Li  Li30  1  0.82185400  0.36728200  0.05356200  1
  Li  Li31  1  0.10634700  0.88181500  0.03323000  1
  Cr  Cr32  1  0.49764600  0.87481100  0.85075500  1
  Cr  Cr33  1  0.74766700  0.37659000  0.86034000  1
  Cr  Cr34  1  0.89272000  0.87110000  0.64371700  1
  Cr  Cr35  1  0.63567800  0.35771000  0.64631300  1
  Cr  Cr36  1  0.36432200  0.64229000  0.35368700  1
  Cr  Cr37  1  0.10728000  0.12890000  0.35628300  1
  Cr  Cr38  1  0.25233300  0.62341000  0.13966000  1
  Cr  Cr39  1  0.50235400  0.12518900  0.14924500  1
  O  O40  1  0.77087200  0.88153000  0.94008300  1
  O  O41  1  0.29830600  0.88170700  0.93354400  1
  O  O42  1  0.01725300  0.35679200  0.93131800  1
  O  O43  1  0.53880300  0.36704300  0.93749500  1
  O  O44  1  0.37795100  0.64908000  0.84612700  1
  O  O45  1  0.85782900  0.59875700  0.86014600  1
  O  O46  1  0.61083000  0.12071500  0.84861800  1
  O  O47  1  0.68438100  0.87593800  0.75412900  1
  O  O48  1  0.19929800  0.87375700  0.74885000  1
  O  O49  1  0.91637600  0.37981200  0.74634900  1
  O  O50  1  0.47572500  0.37408100  0.75161000  1
  O  O51  1  0.00463300  0.09062700  0.65833200  1
  O  O52  1  0.77956300  0.64896600  0.65465800  1
  O  O53  1  0.52521000  0.14700500  0.64128000  1
  O  O54  1  0.61054100  0.87051000  0.55943500  1
  O  O55  1  0.36889700  0.39189100  0.57089900  1
  O  O56  1  0.07556900  0.86499000  0.55659300  1
  O  O57  1  0.84152200  0.38717600  0.56316500  1
  O  O58  1  0.15847800  0.61282400  0.43683500  1
  O  O59  1  0.92443100  0.13501000  0.44340700  1
  O  O60  1  0.63110300  0.60810900  0.42910100  1
  O  O61  1  0.38945900  0.12949000  0.44056500  1
  O  O62  1  0.47479000  0.85299500  0.35872000  1
  O  O63  1  0.22043700  0.35103400  0.34534200  1
  O  O64  1  0.99536700  0.90937300  0.34166800  1
  O  O65  1  0.52427500  0.62591900  0.24839000  1
  O  O66  1  0.08362400  0.62018800  0.25365100  1
  O  O67  1  0.80070200  0.12624300  0.25115000  1
  O  O68  1  0.31561900  0.12406200  0.24587100  1
  O  O69  1  0.38917000  0.87928500  0.15138200  1
  O  O70  1  0.14217100  0.40124300  0.13985400  1
  O  O71  1  0.62204900  0.35092000  0.15387300  1
  O  O72  1  0.46119700  0.63295700  0.06250500  1
  O  O73  1  0.98274700  0.64320800  0.06868200  1
  O  O74  1  0.70169400  0.11829300  0.06645600  1
  O  O75  1  0.22912800  0.11847000  0.05991700  1
