# generated using pymatgen
data_Cr4Si4O13
_symmetry_space_group_name_H-M   'P 1'
_cell_length_a   6.97875700
_cell_length_b   7.77871893
_cell_length_c   9.95278169
_cell_angle_alpha   67.50287055
_cell_angle_beta   82.61526982
_cell_angle_gamma   79.43469973
_symmetry_Int_Tables_number   1
_chemical_formula_structural   Cr4Si4O13
_chemical_formula_sum   'Cr8 Si8 O26'
_cell_volume   489.70018411
_cell_formula_units_Z   2
loop_
 _symmetry_equiv_pos_site_id
 _symmetry_equiv_pos_as_xyz
  1  'x, y, z'
loop_
 _atom_site_type_symbol
 _atom_site_label
 _atom_site_symmetry_multiplicity
 _atom_site_fract_x
 _atom_site_fract_y
 _atom_site_fract_z
 _atom_site_occupancy
  Cr  Cr0  1  0.57185000  0.19794700  0.99258200  1
  Cr  Cr1  1  0.92543800  0.80686600  0.00868300  1
  Cr  Cr2  1  0.06226200  0.55912500  0.62009100  1
  Cr  Cr3  1  0.56225500  0.54873200  0.62812300  1
  Cr  Cr4  1  0.43774500  0.45126800  0.37187700  1
  Cr  Cr5  1  0.93773800  0.44087500  0.37990900  1
  Cr  Cr6  1  0.07456200  0.19313400  0.99131700  1
  Cr  Cr7  1  0.42815000  0.80205300  0.00741800  1
  Si  Si8  1  0.26241400  0.57965200  0.83308300  1
  Si  Si9  1  0.71672200  0.85548800  0.71850000  1
  Si  Si10  1  0.36934300  0.14728500  0.71103300  1
  Si  Si11  1  0.92773800  0.16554400  0.70149600  1
  Si  Si12  1  0.07226200  0.83445600  0.29850400  1
  Si  Si13  1  0.63065700  0.85271500  0.28896700  1
  Si  Si14  1  0.28327800  0.14451200  0.28150000  1
  Si  Si15  1  0.73758600  0.42034800  0.16691700  1
  O  O16  1  0.09071600  0.44976700  0.84686600  1
  O  O17  1  0.19705500  0.72211500  0.92244300  1
  O  O18  1  0.49015200  0.46414300  0.85038100  1
  O  O19  1  0.74282700  0.76798400  0.89341500  1
  O  O20  1  0.35479700  0.10327100  0.88913100  1
  O  O21  1  0.89775900  0.10200800  0.87992900  1
  O  O22  1  0.44835300  0.34276500  0.60251500  1
  O  O23  1  0.84329100  0.38801300  0.60726200  1
  O  O24  1  0.28583300  0.67951200  0.65111900  1
  O  O25  1  0.75075600  0.70560700  0.64026400  1
  O  O26  1  0.15715600  0.16409400  0.65847200  1
  O  O27  1  0.49269800  0.96139200  0.69017400  1
  O  O28  1  0.85625800  0.02082500  0.64473500  1
  O  O29  1  0.14374200  0.97917500  0.35526500  1
  O  O30  1  0.50730200  0.03860800  0.30982600  1
  O  O31  1  0.84284400  0.83590600  0.34152800  1
  O  O32  1  0.24924400  0.29439300  0.35973600  1
  O  O33  1  0.71416700  0.32048800  0.34888100  1
  O  O34  1  0.15670900  0.61198700  0.39273800  1
  O  O35  1  0.55164700  0.65723500  0.39748500  1
  O  O36  1  0.10224100  0.89799200  0.12007100  1
  O  O37  1  0.64520300  0.89672900  0.11086900  1
  O  O38  1  0.25717300  0.23201600  0.10658500  1
  O  O39  1  0.50984800  0.53585700  0.14961900  1
  O  O40  1  0.80294500  0.27788500  0.07755700  1
  O  O41  1  0.90928400  0.55023300  0.15313400  1
