# generated using pymatgen
data_Ce2Nd2O7
_symmetry_space_group_name_H-M   'P 1'
_cell_length_a   11.10405400
_cell_length_b   11.10405400
_cell_length_c   11.10405400
_cell_angle_alpha   90.00000000
_cell_angle_beta   90.00000000
_cell_angle_gamma   90.00000000
_symmetry_Int_Tables_number   1
_chemical_formula_structural   Ce2Nd2O7
_chemical_formula_sum   'Ce16 Nd16 O56'
_cell_volume   1369.13002737
_cell_formula_units_Z   8
loop_
 _symmetry_equiv_pos_site_id
 _symmetry_equiv_pos_as_xyz
  1  'x, y, z'
loop_
 _atom_site_type_symbol
 _atom_site_label
 _atom_site_symmetry_multiplicity
 _atom_site_fract_x
 _atom_site_fract_y
 _atom_site_fract_z
 _atom_site_occupancy
  Ce  Ce0  1  0.12500000  0.62500000  0.12500000  1
  Ce  Ce1  1  0.12500000  0.87500000  0.37500000  1
  Ce  Ce2  1  0.37500000  0.62500000  0.37500000  1
  Ce  Ce3  1  0.37500000  0.87500000  0.12500000  1
  Ce  Ce4  1  0.12500000  0.12500000  0.62500000  1
  Ce  Ce5  1  0.12500000  0.37500000  0.87500000  1
  Ce  Ce6  1  0.37500000  0.12500000  0.87500000  1
  Ce  Ce7  1  0.37500000  0.37500000  0.62500000  1
  Ce  Ce8  1  0.62500000  0.62500000  0.62500000  1
  Ce  Ce9  1  0.62500000  0.87500000  0.87500000  1
  Ce  Ce10  1  0.87500000  0.62500000  0.87500000  1
  Ce  Ce11  1  0.87500000  0.87500000  0.62500000  1
  Ce  Ce12  1  0.62500000  0.12500000  0.12500000  1
  Ce  Ce13  1  0.62500000  0.37500000  0.37500000  1
  Ce  Ce14  1  0.87500000  0.12500000  0.37500000  1
  Ce  Ce15  1  0.87500000  0.37500000  0.12500000  1
  Nd  Nd16  1  0.87500000  0.87500000  0.12500000  1
  Nd  Nd17  1  0.12500000  0.12500000  0.12500000  1
  Nd  Nd18  1  0.37500000  0.12500000  0.37500000  1
  Nd  Nd19  1  0.62500000  0.87500000  0.37500000  1
  Nd  Nd20  1  0.87500000  0.37500000  0.62500000  1
  Nd  Nd21  1  0.12500000  0.62500000  0.62500000  1
  Nd  Nd22  1  0.37500000  0.62500000  0.87500000  1
  Nd  Nd23  1  0.62500000  0.37500000  0.87500000  1
  Nd  Nd24  1  0.37500000  0.87500000  0.62500000  1
  Nd  Nd25  1  0.62500000  0.12500000  0.62500000  1
  Nd  Nd26  1  0.87500000  0.12500000  0.87500000  1
  Nd  Nd27  1  0.12500000  0.87500000  0.87500000  1
  Nd  Nd28  1  0.37500000  0.37500000  0.12500000  1
  Nd  Nd29  1  0.62500000  0.62500000  0.12500000  1
  Nd  Nd30  1  0.87500000  0.62500000  0.37500000  1
  Nd  Nd31  1  0.12500000  0.37500000  0.37500000  1
  O  O32  1  0.47264300  0.75000000  0.25000000  1
  O  O33  1  0.00000000  0.00000000  0.27735700  1
  O  O34  1  0.22264300  0.00000000  0.50000000  1
  O  O35  1  0.25000000  0.97264300  0.25000000  1
  O  O36  1  0.25000000  0.52735700  0.25000000  1
  O  O37  1  0.25000000  0.75000000  0.02735700  1
  O  O38  1  0.25000000  0.25000000  0.25000000  1
  O  O39  1  0.50000000  0.72264300  0.50000000  1
  O  O40  1  0.50000000  0.00000000  0.22264300  1
  O  O41  1  0.50000000  0.00000000  0.50000000  1
  O  O42  1  0.50000000  0.27735700  0.50000000  1
  O  O43  1  0.02735700  0.75000000  0.25000000  1
  O  O44  1  0.25000000  0.75000000  0.47264300  1
  O  O45  1  0.77735700  0.00000000  0.50000000  1
  O  O46  1  0.47264300  0.25000000  0.75000000  1
  O  O47  1  0.00000000  0.50000000  0.77735700  1
  O  O48  1  0.22264300  0.50000000  0.00000000  1
  O  O49  1  0.25000000  0.47264300  0.75000000  1
  O  O50  1  0.25000000  0.02735700  0.75000000  1
  O  O51  1  0.25000000  0.25000000  0.52735700  1
  O  O52  1  0.25000000  0.75000000  0.75000000  1
  O  O53  1  0.50000000  0.22264300  0.00000000  1
  O  O54  1  0.50000000  0.50000000  0.72264300  1
  O  O55  1  0.50000000  0.50000000  0.00000000  1
  O  O56  1  0.50000000  0.77735700  0.00000000  1
  O  O57  1  0.02735700  0.25000000  0.75000000  1
  O  O58  1  0.25000000  0.25000000  0.97264300  1
  O  O59  1  0.77735700  0.50000000  0.00000000  1
  O  O60  1  0.97264300  0.75000000  0.75000000  1
  O  O61  1  0.50000000  0.00000000  0.77735700  1
  O  O62  1  0.72264300  0.00000000  0.00000000  1
  O  O63  1  0.75000000  0.97264300  0.75000000  1
  O  O64  1  0.75000000  0.52735700  0.75000000  1
  O  O65  1  0.75000000  0.75000000  0.52735700  1
  O  O66  1  0.75000000  0.25000000  0.75000000  1
  O  O67  1  0.00000000  0.72264300  0.00000000  1
  O  O68  1  0.00000000  0.00000000  0.72264300  1
  O  O69  1  0.00000000  0.00000000  0.00000000  1
  O  O70  1  0.00000000  0.27735700  0.00000000  1
  O  O71  1  0.52735700  0.75000000  0.75000000  1
  O  O72  1  0.75000000  0.75000000  0.97264300  1
  O  O73  1  0.27735700  0.00000000  0.00000000  1
  O  O74  1  0.97264300  0.25000000  0.25000000  1
  O  O75  1  0.50000000  0.50000000  0.27735700  1
  O  O76  1  0.72264300  0.50000000  0.50000000  1
  O  O77  1  0.75000000  0.47264300  0.25000000  1
  O  O78  1  0.75000000  0.02735700  0.25000000  1
  O  O79  1  0.75000000  0.25000000  0.02735700  1
  O  O80  1  0.75000000  0.75000000  0.25000000  1
  O  O81  1  0.00000000  0.22264300  0.50000000  1
  O  O82  1  0.00000000  0.50000000  0.22264300  1
  O  O83  1  0.00000000  0.50000000  0.50000000  1
  O  O84  1  0.00000000  0.77735700  0.50000000  1
  O  O85  1  0.52735700  0.25000000  0.25000000  1
  O  O86  1  0.75000000  0.25000000  0.47264300  1
  O  O87  1  0.27735700  0.50000000  0.50000000  1
