# generated using pymatgen
data_Cs4Zr3Se14
_symmetry_space_group_name_H-M   'P 1'
_cell_length_a   23.21618200
_cell_length_b   9.12166200
_cell_length_c   14.99201097
_cell_angle_alpha   90.00000000
_cell_angle_beta   112.45915998
_cell_angle_gamma   90.00000000
_symmetry_Int_Tables_number   1
_chemical_formula_structural   Cs4Zr3Se14
_chemical_formula_sum   'Cs16 Zr12 Se56'
_cell_volume   2934.05403738
_cell_formula_units_Z   4
loop_
 _symmetry_equiv_pos_site_id
 _symmetry_equiv_pos_as_xyz
  1  'x, y, z'
loop_
 _atom_site_type_symbol
 _atom_site_label
 _atom_site_symmetry_multiplicity
 _atom_site_fract_x
 _atom_site_fract_y
 _atom_site_fract_z
 _atom_site_occupancy
  Cs  Cs0  1  0.20199300  0.82320400  0.61015500  1
  Cs  Cs1  1  0.20199300  0.17679600  0.11015500  1
  Cs  Cs2  1  0.43675250  0.75322350  0.84884900  1
  Cs  Cs3  1  0.43675250  0.24677650  0.34884900  1
  Cs  Cs4  1  0.06324750  0.25322350  0.65115100  1
  Cs  Cs5  1  0.06324750  0.74677650  0.15115100  1
  Cs  Cs6  1  0.29800700  0.32320400  0.88984500  1
  Cs  Cs7  1  0.29800700  0.67679600  0.38984500  1
  Cs  Cs8  1  0.70199300  0.32320400  0.61015500  1
  Cs  Cs9  1  0.70199300  0.67679600  0.11015500  1
  Cs  Cs10  1  0.93675250  0.25322350  0.84884900  1
  Cs  Cs11  1  0.93675250  0.74677650  0.34884900  1
  Cs  Cs12  1  0.56324750  0.75322350  0.65115100  1
  Cs  Cs13  1  0.56324750  0.24677650  0.15115100  1
  Cs  Cs14  1  0.79800700  0.82320400  0.88984500  1
  Cs  Cs15  1  0.79800700  0.17679600  0.38984500  1
  Zr  Zr16  1  0.33248800  0.25617600  0.58431300  1
  Zr  Zr17  1  0.33248800  0.74382400  0.08431300  1
  Zr  Zr18  1  0.00000000  0.76030900  0.75000000  1
  Zr  Zr19  1  0.00000000  0.23969100  0.25000000  1
  Zr  Zr20  1  0.16751200  0.75617600  0.91568700  1
  Zr  Zr21  1  0.16751200  0.24382400  0.41568700  1
  Zr  Zr22  1  0.83248800  0.75617600  0.58431300  1
  Zr  Zr23  1  0.83248800  0.24382400  0.08431300  1
  Zr  Zr24  1  0.50000000  0.26030900  0.75000000  1
  Zr  Zr25  1  0.50000000  0.73969100  0.25000000  1
  Zr  Zr26  1  0.66751200  0.25617600  0.91568700  1
  Zr  Zr27  1  0.66751200  0.74382400  0.41568700  1
  Se  Se28  1  0.08112100  0.97962900  0.86811500  1
  Se  Se29  1  0.17418450  0.01403250  0.83640300  1
  Se  Se30  1  0.08112100  0.02037100  0.36811500  1
  Se  Se31  1  0.22003500  0.21747500  0.60109200  1
  Se  Se32  1  0.17418450  0.98596750  0.33640300  1
  Se  Se33  1  0.22003500  0.78252500  0.10109200  1
  Se  Se34  1  0.35492500  0.96039200  0.60949300  1
  Se  Se35  1  0.40025750  0.14838450  0.77878500  1
  Se  Se36  1  0.46300850  0.33381050  0.89598500  1
  Se  Se37  1  0.43574900  0.10060400  0.58164900  1
  Se  Se38  1  0.35492500  0.03960800  0.10949300  1
  Se  Se39  1  0.40025750  0.85161550  0.27878500  1
  Se  Se40  1  0.06425100  0.60060400  0.91835100  1
  Se  Se41  1  0.46300850  0.66618950  0.39598500  1
  Se  Se42  1  0.03699150  0.83381050  0.60401500  1
  Se  Se43  1  0.43574900  0.89939600  0.08164900  1
  Se  Se44  1  0.09974250  0.64838450  0.72121500  1
  Se  Se45  1  0.14507500  0.46039200  0.89050700  1
  Se  Se46  1  0.06425100  0.39939600  0.41835100  1
  Se  Se47  1  0.03699150  0.16618950  0.10401500  1
  Se  Se48  1  0.09974250  0.35161550  0.22121500  1
  Se  Se49  1  0.14507500  0.53960800  0.39050700  1
  Se  Se50  1  0.27996500  0.71747500  0.89890800  1
  Se  Se51  1  0.32581550  0.51403250  0.66359700  1
  Se  Se52  1  0.27996500  0.28252500  0.39890800  1
  Se  Se53  1  0.41887900  0.47962900  0.63188500  1
  Se  Se54  1  0.32581550  0.48596750  0.16359700  1
  Se  Se55  1  0.41887900  0.52037100  0.13188500  1
  Se  Se56  1  0.58112100  0.47962900  0.86811500  1
  Se  Se57  1  0.67418450  0.51403250  0.83640300  1
  Se  Se58  1  0.58112100  0.52037100  0.36811500  1
  Se  Se59  1  0.72003500  0.71747500  0.60109200  1
  Se  Se60  1  0.67418450  0.48596750  0.33640300  1
  Se  Se61  1  0.72003500  0.28252500  0.10109200  1
  Se  Se62  1  0.85492500  0.46039200  0.60949300  1
  Se  Se63  1  0.90025750  0.64838450  0.77878500  1
  Se  Se64  1  0.96300850  0.83381050  0.89598500  1
  Se  Se65  1  0.93574900  0.60060400  0.58164900  1
  Se  Se66  1  0.85492500  0.53960800  0.10949300  1
  Se  Se67  1  0.90025750  0.35161550  0.27878500  1
  Se  Se68  1  0.56425100  0.10060400  0.91835100  1
  Se  Se69  1  0.96300850  0.16618950  0.39598500  1
  Se  Se70  1  0.53699150  0.33381050  0.60401500  1
  Se  Se71  1  0.93574900  0.39939600  0.08164900  1
  Se  Se72  1  0.59974250  0.14838450  0.72121500  1
  Se  Se73  1  0.64507500  0.96039200  0.89050700  1
  Se  Se74  1  0.56425100  0.89939600  0.41835100  1
  Se  Se75  1  0.53699150  0.66618950  0.10401500  1
  Se  Se76  1  0.59974250  0.85161550  0.22121500  1
  Se  Se77  1  0.64507500  0.03960800  0.39050700  1
  Se  Se78  1  0.77996500  0.21747500  0.89890800  1
  Se  Se79  1  0.82581550  0.01403250  0.66359700  1
  Se  Se80  1  0.77996500  0.78252500  0.39890800  1
  Se  Se81  1  0.91887900  0.97962900  0.63188500  1
  Se  Se82  1  0.82581550  0.98596750  0.16359700  1
  Se  Se83  1  0.91887900  0.02037100  0.13188500  1
