# generated using pymatgen
data_Gd2HfO5
_symmetry_space_group_name_H-M   'P 1'
_cell_length_a   4.14786800
_cell_length_b   11.42178400
_cell_length_c   10.97259900
_cell_angle_alpha   90.00000000
_cell_angle_beta   90.00000000
_cell_angle_gamma   90.00000000
_symmetry_Int_Tables_number   1
_chemical_formula_structural   Gd2HfO5
_chemical_formula_sum   'Gd8 Hf4 O20'
_cell_volume   519.83842471
_cell_formula_units_Z   4
loop_
 _symmetry_equiv_pos_site_id
 _symmetry_equiv_pos_as_xyz
  1  'x, y, z'
loop_
 _atom_site_type_symbol
 _atom_site_label
 _atom_site_symmetry_multiplicity
 _atom_site_fract_x
 _atom_site_fract_y
 _atom_site_fract_z
 _atom_site_occupancy
  Gd  Gd0  1  0.00000000  0.13871700  0.06738700  1
  Gd  Gd1  1  0.00000000  0.13871700  0.43261300  1
  Gd  Gd2  1  0.50000000  0.36128300  0.56738700  1
  Gd  Gd3  1  0.50000000  0.36128300  0.93261300  1
  Gd  Gd4  1  0.50000000  0.63871700  0.06738700  1
  Gd  Gd5  1  0.50000000  0.63871700  0.43261300  1
  Gd  Gd6  1  0.00000000  0.86128300  0.56738700  1
  Gd  Gd7  1  0.00000000  0.86128300  0.93261300  1
  Hf  Hf8  1  0.00000000  0.17665800  0.75000000  1
  Hf  Hf9  1  0.50000000  0.32334200  0.25000000  1
  Hf  Hf10  1  0.50000000  0.67665800  0.75000000  1
  Hf  Hf11  1  0.00000000  0.82334200  0.25000000  1
  O  O12  1  0.00000000  0.05010200  0.61989900  1
  O  O13  1  0.00000000  0.05010200  0.88010100  1
  O  O14  1  0.00000000  0.28979700  0.90926100  1
  O  O15  1  0.00000000  0.28979700  0.59073900  1
  O  O16  1  0.00000000  0.26968100  0.25000000  1
  O  O17  1  0.50000000  0.23031900  0.75000000  1
  O  O18  1  0.50000000  0.44989800  0.11989900  1
  O  O19  1  0.50000000  0.44989800  0.38010100  1
  O  O20  1  0.50000000  0.21020300  0.09073900  1
  O  O21  1  0.50000000  0.21020300  0.40926100  1
  O  O22  1  0.50000000  0.55010200  0.61989900  1
  O  O23  1  0.50000000  0.55010200  0.88010100  1
  O  O24  1  0.50000000  0.78979700  0.90926100  1
  O  O25  1  0.50000000  0.78979700  0.59073900  1
  O  O26  1  0.50000000  0.76968100  0.25000000  1
  O  O27  1  0.00000000  0.73031900  0.75000000  1
  O  O28  1  0.00000000  0.94989800  0.11989900  1
  O  O29  1  0.00000000  0.94989800  0.38010100  1
  O  O30  1  0.00000000  0.71020300  0.09073900  1
  O  O31  1  0.00000000  0.71020300  0.40926100  1
