# generated using pymatgen
data_Fe4OF7
_symmetry_space_group_name_H-M   'P 1'
_cell_length_a   5.79010300
_cell_length_b   4.78544200
_cell_length_c   10.88396602
_cell_angle_alpha   90.00000000
_cell_angle_beta   97.84455161
_cell_angle_gamma   90.00000000
_symmetry_Int_Tables_number   1
_chemical_formula_structural   Fe4OF7
_chemical_formula_sum   'Fe8 O2 F14'
_cell_volume   298.75299357
_cell_formula_units_Z   2
loop_
 _symmetry_equiv_pos_site_id
 _symmetry_equiv_pos_as_xyz
  1  'x, y, z'
loop_
 _atom_site_type_symbol
 _atom_site_label
 _atom_site_symmetry_multiplicity
 _atom_site_fract_x
 _atom_site_fract_y
 _atom_site_fract_z
 _atom_site_occupancy
  Fe  Fe0  1  0.99045900  0.24137200  0.49652900  1
  Fe  Fe1  1  0.51485700  0.24497600  0.99879200  1
  Fe  Fe2  1  0.75373900  0.23127500  0.76486200  1
  Fe  Fe3  1  0.24699400  0.24850600  0.24623300  1
  Fe  Fe4  1  0.75373900  0.76872500  0.26486200  1
  Fe  Fe5  1  0.51485700  0.75502400  0.49879200  1
  Fe  Fe6  1  0.24699400  0.75149400  0.74623300  1
  Fe  Fe7  1  0.99045900  0.75862800  0.99652900  1
  O  O8  1  0.77857200  0.94152200  0.41725200  1
  O  O9  1  0.77857200  0.05847800  0.91725200  1
  F  F10  1  0.52253600  0.96440000  0.67416600  1
  F  F11  1  0.27923300  0.94825300  0.92203700  1
  F  F12  1  0.01370000  0.94244400  0.18278600  1
  F  F13  1  0.52253600  0.03560000  0.17416600  1
  F  F14  1  0.27923300  0.05174700  0.42203700  1
  F  F15  1  0.01370000  0.05755600  0.68278600  1
  F  F16  1  0.22224900  0.44944100  0.07080400  1
  F  F17  1  0.72235300  0.44302000  0.59109400  1
  F  F18  1  0.48187500  0.45353000  0.81584000  1
  F  F19  1  0.97343300  0.45650500  0.31960400  1
  F  F20  1  0.97343300  0.54349500  0.81960400  1
  F  F21  1  0.72235300  0.55698000  0.09109400  1
  F  F22  1  0.48187500  0.54647000  0.31584000  1
  F  F23  1  0.22224900  0.55055900  0.57080400  1
