# generated using pymatgen
data_Na4P4(H2O5)3
_symmetry_space_group_name_H-M   'P 1'
_cell_length_a   6.69445400
_cell_length_b   10.08207683
_cell_length_c   11.31572442
_cell_angle_alpha   103.98280580
_cell_angle_beta   101.08267088
_cell_angle_gamma   90.98928888
_symmetry_Int_Tables_number   1
_chemical_formula_structural   Na4P4(H2O5)3
_chemical_formula_sum   'Na8 P8 H12 O30'
_cell_volume   725.66167875
_cell_formula_units_Z   2
loop_
 _symmetry_equiv_pos_site_id
 _symmetry_equiv_pos_as_xyz
  1  'x, y, z'
loop_
 _atom_site_type_symbol
 _atom_site_label
 _atom_site_symmetry_multiplicity
 _atom_site_fract_x
 _atom_site_fract_y
 _atom_site_fract_z
 _atom_site_occupancy
  Na  Na0  1  0.74908700  0.02738000  0.41300900  1
  Na  Na1  1  0.25091300  0.97262000  0.58699100  1
  Na  Na2  1  0.91928800  0.71597900  0.23559300  1
  Na  Na3  1  0.08071200  0.28402100  0.76440700  1
  Na  Na4  1  0.50631300  0.66044600  0.63597300  1
  Na  Na5  1  0.49368700  0.33955400  0.36402700  1
  Na  Na6  1  0.81569300  0.56063800  0.89298400  1
  Na  Na7  1  0.18430700  0.43936200  0.10701600  1
  P  P8  1  0.40320200  0.77371400  0.18950800  1
  P  P9  1  0.59679800  0.22628600  0.81049200  1
  P  P10  1  0.31862300  0.64295700  0.91184600  1
  P  P11  1  0.68137700  0.35704300  0.08815400  1
  P  P12  1  0.03223600  0.75484500  0.73891300  1
  P  P13  1  0.96776400  0.24515500  0.26108700  1
  P  P14  1  0.21885700  0.01913400  0.30193700  1
  P  P15  1  0.78114300  0.98086600  0.69806300  1
  H  H16  1  0.96054100  0.86016300  0.04116800  1
  H  H17  1  0.03945900  0.13983700  0.95883200  1
  H  H18  1  0.72656000  0.81835700  0.01610400  1
  H  H19  1  0.27344000  0.18164300  0.98389600  1
  H  H20  1  0.97903300  0.34343700  0.50710400  1
  H  H21  1  0.02096700  0.65656300  0.49289600  1
  H  H22  1  0.96177200  0.45982500  0.62573800  1
  H  H23  1  0.03822800  0.54017500  0.37426200  1
  H  H24  1  0.57580400  0.38517300  0.64244100  1
  H  H25  1  0.42419600  0.61482700  0.35755900  1
  H  H26  1  0.34102500  0.38885700  0.59594900  1
  H  H27  1  0.65897500  0.61114300  0.40405100  1
  O  O28  1  0.73258300  0.33241800  0.78618300  1
  O  O29  1  0.26741700  0.66758200  0.21381700  1
  O  O30  1  0.56148900  0.26767600  0.95235600  1
  O  O31  1  0.43851100  0.73232400  0.04764400  1
  O  O32  1  0.72515900  0.09097500  0.81710400  1
  O  O33  1  0.27484100  0.90902500  0.18289600  1
  O  O34  1  0.38968400  0.18496700  0.72916800  1
  O  O35  1  0.61031600  0.81503300  0.27083200  1
  O  O36  1  0.17842200  0.76293700  0.87271900  1
  O  O37  1  0.82157800  0.23706300  0.12728100  1
  O  O38  1  0.18306400  0.52781500  0.92270500  1
  O  O39  1  0.81693600  0.47218500  0.07729500  1
  O  O40  1  0.47637000  0.61536700  0.83359000  1
  O  O41  1  0.52363000  0.38463300  0.16641000  1
  O  O42  1  0.87352700  0.63731500  0.70816100  1
  O  O43  1  0.12647300  0.36268500  0.29183900  1
  O  O44  1  0.15802400  0.76456900  0.64385000  1
  O  O45  1  0.84197600  0.23543100  0.35615000  1
  O  O46  1  0.93085900  0.89892100  0.78356800  1
  O  O47  1  0.06914100  0.10107900  0.21643200  1
  O  O48  1  0.90677700  0.05159900  0.63133600  1
  O  O49  1  0.09322300  0.94840100  0.36866400  1
  O  O50  1  0.59410200  0.89295800  0.62531300  1
  O  O51  1  0.40589800  0.10704200  0.37468700  1
  O  O52  1  0.13806200  0.21289100  0.96072200  1
  O  O53  1  0.86193800  0.78710900  0.03927800  1
  O  O54  1  0.04295100  0.38307400  0.59537800  1
  O  O55  1  0.95704900  0.61692600  0.40462200  1
  O  O56  1  0.47452700  0.40996000  0.57780800  1
  O  O57  1  0.52547300  0.59004000  0.42219200  1
