# generated using pymatgen
data_LiCo(CO3)2
_symmetry_space_group_name_H-M   'P 1'
_cell_length_a   5.47744400
_cell_length_b   10.94044200
_cell_length_c   8.34503581
_cell_angle_alpha   90.00000000
_cell_angle_beta   106.68259766
_cell_angle_gamma   90.00000000
_symmetry_Int_Tables_number   1
_chemical_formula_structural   LiCo(CO3)2
_chemical_formula_sum   'Li4 Co4 C8 O24'
_cell_volume   479.03318871
_cell_formula_units_Z   4
loop_
 _symmetry_equiv_pos_site_id
 _symmetry_equiv_pos_as_xyz
  1  'x, y, z'
loop_
 _atom_site_type_symbol
 _atom_site_label
 _atom_site_symmetry_multiplicity
 _atom_site_fract_x
 _atom_site_fract_y
 _atom_site_fract_z
 _atom_site_occupancy
  Li  Li0  1  0.12373550  0.55674250  0.35734500  1
  Li  Li1  1  0.62373550  0.94325750  0.85734500  1
  Li  Li2  1  0.62373550  0.05674250  0.35734500  1
  Li  Li3  1  0.12373550  0.44325750  0.85734500  1
  Co  Co4  1  0.62166000  0.63446300  0.99912800  1
  Co  Co5  1  0.12166000  0.86553700  0.49912800  1
  Co  Co6  1  0.12166000  0.13446300  0.99912800  1
  Co  Co7  1  0.62166000  0.36553700  0.49912800  1
  C  C8  1  0.77010350  0.82879250  0.21810400  1
  C  C9  1  0.55785650  0.56734050  0.28512100  1
  C  C10  1  0.27010350  0.67120750  0.71810400  1
  C  C11  1  0.05785650  0.93265950  0.78512100  1
  C  C12  1  0.27010350  0.32879250  0.21810400  1
  C  C13  1  0.05785650  0.06734050  0.28512100  1
  C  C14  1  0.77010350  0.17120750  0.71810400  1
  C  C15  1  0.55785650  0.43265950  0.78512100  1
  O  O16  1  0.67011850  0.79832650  0.05659200  1
  O  O17  1  0.75525650  0.58538250  0.22950700  1
  O  O18  1  0.33493950  0.59005550  0.19618700  1
  O  O19  1  0.64032450  0.86741550  0.30768000  1
  O  O20  1  0.01952100  0.81907600  0.27267700  1
  O  O21  1  0.60799050  0.52920150  0.44211800  1
  O  O22  1  0.17011850  0.70167350  0.55659200  1
  O  O23  1  0.83493950  0.90994450  0.69618700  1
  O  O24  1  0.25525650  0.91461750  0.72950700  1
  O  O25  1  0.14032450  0.63258450  0.80768000  1
  O  O26  1  0.51952100  0.68092400  0.77267700  1
  O  O27  1  0.10799050  0.97079850  0.94211800  1
  O  O28  1  0.17011850  0.29832650  0.05659200  1
  O  O29  1  0.25525650  0.08538250  0.22950700  1
  O  O30  1  0.83493950  0.09005550  0.19618700  1
  O  O31  1  0.14032450  0.36741550  0.30768000  1
  O  O32  1  0.51952100  0.31907600  0.27267700  1
  O  O33  1  0.10799050  0.02920150  0.44211800  1
  O  O34  1  0.67011850  0.20167350  0.55659200  1
  O  O35  1  0.33493950  0.40994450  0.69618700  1
  O  O36  1  0.75525650  0.41461750  0.72950700  1
  O  O37  1  0.64032450  0.13258450  0.80768000  1
  O  O38  1  0.01952100  0.18092400  0.77267700  1
  O  O39  1  0.60799050  0.47079850  0.94211800  1
