# generated using pymatgen
data_FeSb3(PO4)6
_symmetry_space_group_name_H-M   'P 1'
_cell_length_a   8.63352633
_cell_length_b   8.63352633
_cell_length_c   22.12146762
_cell_angle_alpha   90.00000000
_cell_angle_beta   90.00000000
_cell_angle_gamma   120.00000000
_symmetry_Int_Tables_number   1
_chemical_formula_structural   FeSb3(PO4)6
_chemical_formula_sum   'Fe3 Sb9 P18 O72'
_cell_volume   1427.97631437
_cell_formula_units_Z   3
loop_
 _symmetry_equiv_pos_site_id
 _symmetry_equiv_pos_as_xyz
  1  'x, y, z'
loop_
 _atom_site_type_symbol
 _atom_site_label
 _atom_site_symmetry_multiplicity
 _atom_site_fract_x
 _atom_site_fract_y
 _atom_site_fract_z
 _atom_site_occupancy
  Fe  Fe0  1  0.00000000  0.00000000  0.14234300  1
  Fe  Fe1  1  0.66666667  0.33333333  0.47567633  1
  Fe  Fe2  1  0.33333333  0.66666667  0.80900967  1
  Sb  Sb3  1  0.66666667  0.33333333  0.19002733  1
  Sb  Sb4  1  0.33333333  0.66666667  0.31015467  1
  Sb  Sb5  1  0.33333333  0.66666667  0.02304867  1
  Sb  Sb6  1  0.33333333  0.66666667  0.52336067  1
  Sb  Sb7  1  0.00000000  0.00000000  0.64348800  1
  Sb  Sb8  1  0.00000000  0.00000000  0.35638200  1
  Sb  Sb9  1  0.00000000  0.00000000  0.85669400  1
  Sb  Sb10  1  0.66666667  0.33333333  0.97682133  1
  Sb  Sb11  1  0.66666667  0.33333333  0.68971533  1
  P  P12  1  0.00053167  0.28601433  0.24853733  1
  P  P13  1  0.71398567  0.71451733  0.24853733  1
  P  P14  1  0.28548267  0.99946833  0.24853733  1
  P  P15  1  0.37478400  0.32997000  0.08331800  1
  P  P16  1  0.95518600  0.62521600  0.08331800  1
  P  P17  1  0.67003000  0.04481400  0.08331800  1
  P  P18  1  0.66719833  0.61934767  0.58187067  1
  P  P19  1  0.38065233  0.04785067  0.58187067  1
  P  P20  1  0.95214933  0.33280167  0.58187067  1
  P  P21  1  0.04145067  0.66330333  0.41665133  1
  P  P22  1  0.62185267  0.95854933  0.41665133  1
  P  P23  1  0.33669667  0.37814733  0.41665133  1
  P  P24  1  0.33386500  0.95268100  0.91520400  1
  P  P25  1  0.04731900  0.38118400  0.91520400  1
  P  P26  1  0.61881600  0.66613500  0.91520400  1
  P  P27  1  0.70811733  0.99663667  0.74998467  1
  P  P28  1  0.28851933  0.29188267  0.74998467  1
  P  P29  1  0.00336333  0.71148067  0.74998467  1
  O  O30  1  0.69662967  0.15918533  0.02570333  1
  O  O31  1  0.46255567  0.30337033  0.02570333  1
  O  O32  1  0.83052100  0.30530300  0.24559000  1
  O  O33  1  0.84081467  0.53744433  0.02570333  1
  O  O34  1  0.16892533  0.47447367  0.25550267  1
  O  O35  1  0.03020367  0.20387633  0.19314333  1
  O  O36  1  0.69469700  0.52521800  0.24559000  1
  O  O37  1  0.52552633  0.69445167  0.25550267  1
  O  O38  1  0.30554833  0.83107467  0.25550267  1
  O  O39  1  0.49549133  0.36869667  0.14037367  1
  O  O40  1  0.19498900  0.16602500  0.08880300  1
  O  O41  1  0.87320533  0.50450867  0.14037367  1
  O  O42  1  0.79612367  0.82632733  0.19314333  1
  O  O43  1  0.47478200  0.16947900  0.24559000  1
  O  O44  1  0.17367267  0.96979633  0.19314333  1
  O  O45  1  0.36569500  0.50522400  0.07812600  1
  O  O46  1  0.13952900  0.63430500  0.07812600  1
  O  O47  1  0.97103600  0.80501100  0.08880300  1
  O  O48  1  0.63130333  0.12679467  0.14037367  1
  O  O49  1  0.49477600  0.86047100  0.07812600  1
  O  O50  1  0.82440167  0.79183133  0.30793333  1
  O  O51  1  0.83397500  0.02896400  0.08880300  1
  O  O52  1  0.20816867  0.03257033  0.30793333  1
  O  O53  1  0.96742967  0.17559833  0.30793333  1
  O  O54  1  0.36329633  0.49251867  0.35903667  1
  O  O55  1  0.12922233  0.63670367  0.35903667  1
  O  O56  1  0.49718767  0.63863633  0.57892333  1
  O  O57  1  0.50748133  0.87077767  0.35903667  1
  O  O58  1  0.83559200  0.80780700  0.58883600  1
  O  O59  1  0.69687033  0.53720967  0.52647667  1
  O  O60  1  0.36136367  0.85855133  0.57892333  1
  O  O61  1  0.19219300  0.02778500  0.58883600  1
  O  O62  1  0.97221500  0.16440800  0.58883600  1
  O  O63  1  0.16215800  0.70203000  0.47370700  1
  O  O64  1  0.86165567  0.49935833  0.42213633  1
  O  O65  1  0.53987200  0.83784200  0.47370700  1
  O  O66  1  0.46279033  0.15966067  0.52647667  1
  O  O67  1  0.14144867  0.50281233  0.57892333  1
  O  O68  1  0.84033933  0.30312967  0.52647667  1
  O  O69  1  0.03236167  0.83855733  0.41145933  1
  O  O70  1  0.80619567  0.96763833  0.41145933  1
  O  O71  1  0.63770267  0.13834433  0.42213633  1
  O  O72  1  0.29797000  0.46012800  0.47370700  1
  O  O73  1  0.16144267  0.19380433  0.41145933  1
  O  O74  1  0.49106833  0.12516467  0.64126667  1
  O  O75  1  0.50064167  0.36229733  0.42213633  1
  O  O76  1  0.87483533  0.36590367  0.64126667  1
  O  O77  1  0.63409633  0.50893167  0.64126667  1
  O  O78  1  0.02996300  0.82585200  0.69237000  1
  O  O79  1  0.79588900  0.97003700  0.69237000  1
  O  O80  1  0.16385433  0.97196967  0.91225667  1
  O  O81  1  0.17414800  0.20411100  0.69237000  1
  O  O82  1  0.50225867  0.14114033  0.92216933  1
  O  O83  1  0.36353700  0.87054300  0.85981000  1
  O  O84  1  0.02803033  0.19188467  0.91225667  1
  O  O85  1  0.85885967  0.36111833  0.92216933  1
  O  O86  1  0.63888167  0.49774133  0.92216933  1
  O  O87  1  0.82882467  0.03536333  0.80704033  1
  O  O88  1  0.52832233  0.83269167  0.75546967  1
  O  O89  1  0.20653867  0.17117533  0.80704033  1
  O  O90  1  0.12945700  0.49299400  0.85981000  1
  O  O91  1  0.80811533  0.83614567  0.91225667  1
  O  O92  1  0.50700600  0.63646300  0.85981000  1
  O  O93  1  0.69902833  0.17189067  0.74479267  1
  O  O94  1  0.47286233  0.30097167  0.74479267  1
  O  O95  1  0.30436933  0.47167767  0.75546967  1
  O  O96  1  0.96463667  0.79346133  0.80704033  1
  O  O97  1  0.82810933  0.52713767  0.74479267  1
  O  O98  1  0.15773500  0.45849800  0.97460000  1
  O  O99  1  0.16730833  0.69563067  0.75546967  1
  O  O100  1  0.54150200  0.69923700  0.97460000  1
  O  O101  1  0.30076300  0.84226500  0.97460000  1
