# generated using pymatgen
data_Li3V3P8O29
_symmetry_space_group_name_H-M   'P 1'
_cell_length_a   16.91080000
_cell_length_b   9.72827000
_cell_length_c   13.99752578
_cell_angle_alpha   90.00000000
_cell_angle_beta   90.67930377
_cell_angle_gamma   90.00000000
_symmetry_Int_Tables_number   1
_chemical_formula_structural   Li3V3P8O29
_chemical_formula_sum   'Li12 V12 P32 O116'
_cell_volume   2302.61071106
_cell_formula_units_Z   4
loop_
 _symmetry_equiv_pos_site_id
 _symmetry_equiv_pos_as_xyz
  1  'x, y, z'
loop_
 _atom_site_type_symbol
 _atom_site_label
 _atom_site_symmetry_multiplicity
 _atom_site_fract_x
 _atom_site_fract_y
 _atom_site_fract_z
 _atom_site_occupancy
  Li  Li0  1  0.66632150  0.56959650  0.06034000  1
  Li  Li1  1  0.83367850  0.93040350  0.93966000  1
  Li  Li2  1  0.00000000  0.00000000  0.50000000  1
  Li  Li3  1  0.83367850  0.06959650  0.43966000  1
  Li  Li4  1  0.66632150  0.43040350  0.56034000  1
  Li  Li5  1  0.00000000  0.00000000  0.00000000  1
  Li  Li6  1  0.16632150  0.06959650  0.06034000  1
  Li  Li7  1  0.33367850  0.43040350  0.93966000  1
  Li  Li8  1  0.50000000  0.50000000  0.50000000  1
  Li  Li9  1  0.33367850  0.56959650  0.43966000  1
  Li  Li10  1  0.16632150  0.93040350  0.56034000  1
  Li  Li11  1  0.50000000  0.50000000  0.00000000  1
  V  V12  1  0.71550400  0.72197400  0.25571000  1
  V  V13  1  0.00000000  0.56281100  0.25000000  1
  V  V14  1  0.00000000  0.43718900  0.75000000  1
  V  V15  1  0.78449600  0.77802600  0.74429000  1
  V  V16  1  0.71550400  0.27802600  0.75571000  1
  V  V17  1  0.78449600  0.22197400  0.24429000  1
  V  V18  1  0.21550400  0.22197400  0.25571000  1
  V  V19  1  0.50000000  0.06281100  0.25000000  1
  V  V20  1  0.50000000  0.93718900  0.75000000  1
  V  V21  1  0.28449600  0.27802600  0.74429000  1
  V  V22  1  0.21550400  0.77802600  0.75571000  1
  V  V23  1  0.28449600  0.72197400  0.24429000  1
  P  P24  1  0.54129250  0.76414050  0.15561600  1
  P  P25  1  0.84227350  0.07109950  0.65616600  1
  P  P26  1  0.88952050  0.80128150  0.34054600  1
  P  P27  1  0.65772650  0.57109950  0.84383400  1
  P  P28  1  0.83202650  0.49503450  0.62855000  1
  P  P29  1  0.95870750  0.26414050  0.34438400  1
  P  P30  1  0.61047950  0.30128150  0.15945400  1
  P  P31  1  0.65772650  0.42890050  0.34383400  1
  P  P32  1  0.84227350  0.92890050  0.15616600  1
  P  P33  1  0.61047950  0.69871850  0.65945400  1
  P  P34  1  0.66797350  0.99503450  0.87145000  1
  P  P35  1  0.83202650  0.50496550  0.12855000  1
  P  P36  1  0.66797350  0.00496550  0.37145000  1
  P  P37  1  0.54129250  0.23585950  0.65561600  1
  P  P38  1  0.95870750  0.73585950  0.84438400  1
  P  P39  1  0.88952050  0.19871850  0.84054600  1
  P  P40  1  0.04129250  0.26414050  0.15561600  1
  P  P41  1  0.34227350  0.57109950  0.65616600  1
  P  P42  1  0.38952050  0.30128150  0.34054600  1
  P  P43  1  0.15772650  0.07109950  0.84383400  1
  P  P44  1  0.33202650  0.99503450  0.62855000  1
  P  P45  1  0.45870750  0.76414050  0.34438400  1
  P  P46  1  0.11047950  0.80128150  0.15945400  1
  P  P47  1  0.15772650  0.92890050  0.34383400  1
  P  P48  1  0.34227350  0.42890050  0.15616600  1
  P  P49  1  0.11047950  0.19871850  0.65945400  1
  P  P50  1  0.16797350  0.49503450  0.87145000  1
  P  P51  1  0.33202650  0.00496550  0.12855000  1
  P  P52  1  0.16797350  0.50496550  0.37145000  1
  P  P53  1  0.04129250  0.73585950  0.65561600  1
  P  P54  1  0.45870750  0.23585950  0.84438400  1
  P  P55  1  0.38952050  0.69871850  0.84054600  1
  O  O56  1  0.69040650  0.77744550  0.67238800  1
  O  O57  1  0.95869150  0.57687950  0.82824100  1
  O  O58  1  0.73638350  0.64760550  0.82634800  1
  O  O59  1  0.69040650  0.22255450  0.17238800  1
  O  O60  1  0.61893550  0.39777850  0.43588500  1
  O  O61  1  0.54130850  0.07687950  0.67175900  1
  O  O62  1  0.95795750  0.69707650  0.33564600  1
  O  O63  1  0.54130850  0.92312050  0.17175900  1
  O  O64  1  0.83244850  0.35393850  0.17515800  1
  O  O65  1  0.50258300  0.71030400  0.06830600  1
  O  O66  1  0.67326100  0.41411100  0.83193000  1
  O  O67  1  0.80959350  0.72255450  0.32761200  1
  O  O68  1  0.95869150  0.42312050  0.32824100  1
  O  O69  1  0.82673900  0.08588900  0.16807000  1
  O  O70  1  0.88106450  0.89777850  0.06411500  1
  O  O71  1  0.60846250  0.39638250  0.07626400  1
  O  O72  1  0.89983150  0.10832450  0.74396500  1
  O  O73  1  0.90643950  0.57358850  0.17603000  1
  O  O74  1  0.60016850  0.39167550  0.25603500  1
  O  O75  1  0.87059750  0.21315650  0.33616000  1
  O  O76  1  0.50258300  0.28969600  0.56830600  1
  O  O77  1  0.67326100  0.58588900  0.33193000  1
  O  O78  1  0.75649050  0.57561650  0.16997300  1
  O  O79  1  0.54204250  0.80292350  0.66435400  1
  O  O80  1  0.74350950  0.07561650  0.33002700  1
  O  O81  1  0.83244850  0.64606150  0.67515800  1
  O  O82  1  0.88106450  0.10222150  0.56411500  1
  O  O83  1  0.73638350  0.35239450  0.32634800  1
  O  O84  1  0.99741700  0.78969600  0.93169400  1
  O  O85  1  0.76361650  0.14760550  0.67365200  1
  O  O86  1  0.75649050  0.42438350  0.66997300  1
  O  O87  1  0.66755150  0.85393850  0.32484200  1
  O  O88  1  0.90643950  0.42641150  0.67603000  1
  O  O89  1  0.00000000  0.79721700  0.75000000  1
  O  O90  1  0.60846250  0.60361750  0.57626400  1
  O  O91  1  0.61893550  0.60222150  0.93588500  1
  O  O92  1  0.89983150  0.89167550  0.24396500  1
  O  O93  1  0.60016850  0.60832450  0.75603500  1
  O  O94  1  0.76361650  0.85239450  0.17365200  1
  O  O95  1  0.82989650  0.50144750  0.52296800  1
  O  O96  1  0.82989650  0.49855250  0.02296800  1
  O  O97  1  0.82673900  0.91411100  0.66807000  1
  O  O98  1  0.74350950  0.92438350  0.83002700  1
  O  O99  1  0.89153750  0.89638250  0.42373600  1
  O  O100  1  0.67010350  0.99855250  0.47703200  1
  O  O101  1  0.89153750  0.10361750  0.92373600  1
  O  O102  1  0.95795750  0.30292350  0.83564600  1
  O  O103  1  0.00000000  0.20278300  0.25000000  1
  O  O104  1  0.59356050  0.92641150  0.82397000  1
  O  O105  1  0.99741700  0.21030400  0.43169400  1
  O  O106  1  0.87059750  0.78684350  0.83616000  1
  O  O107  1  0.59356050  0.07358850  0.32397000  1
  O  O108  1  0.54204250  0.19707650  0.16435400  1
  O  O109  1  0.62940250  0.71315650  0.16384000  1
  O  O110  1  0.67010350  0.00144750  0.97703200  1
  O  O111  1  0.66755150  0.14606150  0.82484200  1
  O  O112  1  0.80959350  0.27744550  0.82761200  1
  O  O113  1  0.62940250  0.28684350  0.66384000  1
  O  O114  1  0.19040650  0.27744550  0.67238800  1
  O  O115  1  0.45869150  0.07687950  0.82824100  1
  O  O116  1  0.23638350  0.14760550  0.82634800  1
  O  O117  1  0.19040650  0.72255450  0.17238800  1
  O  O118  1  0.11893550  0.89777850  0.43588500  1
  O  O119  1  0.04130850  0.57687950  0.67175900  1
  O  O120  1  0.45795750  0.19707650  0.33564600  1
  O  O121  1  0.04130850  0.42312050  0.17175900  1
  O  O122  1  0.33244850  0.85393850  0.17515800  1
  O  O123  1  0.00258300  0.21030400  0.06830600  1
  O  O124  1  0.17326100  0.91411100  0.83193000  1
  O  O125  1  0.30959350  0.22255450  0.32761200  1
  O  O126  1  0.45869150  0.92312050  0.32824100  1
  O  O127  1  0.32673900  0.58588900  0.16807000  1
  O  O128  1  0.38106450  0.39777850  0.06411500  1
  O  O129  1  0.10846250  0.89638250  0.07626400  1
  O  O130  1  0.39983150  0.60832450  0.74396500  1
  O  O131  1  0.40643950  0.07358850  0.17603000  1
  O  O132  1  0.10016850  0.89167550  0.25603500  1
  O  O133  1  0.37059750  0.71315650  0.33616000  1
  O  O134  1  0.00258300  0.78969600  0.56830600  1
  O  O135  1  0.17326100  0.08588900  0.33193000  1
  O  O136  1  0.25649050  0.07561650  0.16997300  1
  O  O137  1  0.04204250  0.30292350  0.66435400  1
  O  O138  1  0.24350950  0.57561650  0.33002700  1
  O  O139  1  0.33244850  0.14606150  0.67515800  1
  O  O140  1  0.38106450  0.60222150  0.56411500  1
  O  O141  1  0.23638350  0.85239450  0.32634800  1
  O  O142  1  0.49741700  0.28969600  0.93169400  1
  O  O143  1  0.26361650  0.64760550  0.67365200  1
  O  O144  1  0.25649050  0.92438350  0.66997300  1
  O  O145  1  0.16755150  0.35393850  0.32484200  1
  O  O146  1  0.40643950  0.92641150  0.67603000  1
  O  O147  1  0.50000000  0.29721700  0.75000000  1
  O  O148  1  0.10846250  0.10361750  0.57626400  1
  O  O149  1  0.11893550  0.10222150  0.93588500  1
  O  O150  1  0.39983150  0.39167550  0.24396500  1
  O  O151  1  0.10016850  0.10832450  0.75603500  1
  O  O152  1  0.26361650  0.35239450  0.17365200  1
  O  O153  1  0.32989650  0.00144750  0.52296800  1
  O  O154  1  0.32989650  0.99855250  0.02296800  1
  O  O155  1  0.32673900  0.41411100  0.66807000  1
  O  O156  1  0.24350950  0.42438350  0.83002700  1
  O  O157  1  0.39153750  0.39638250  0.42373600  1
  O  O158  1  0.17010350  0.49855250  0.47703200  1
  O  O159  1  0.39153750  0.60361750  0.92373600  1
  O  O160  1  0.45795750  0.80292350  0.83564600  1
  O  O161  1  0.50000000  0.70278300  0.25000000  1
  O  O162  1  0.09356050  0.42641150  0.82397000  1
  O  O163  1  0.49741700  0.71030400  0.43169400  1
  O  O164  1  0.37059750  0.28684350  0.83616000  1
  O  O165  1  0.09356050  0.57358850  0.32397000  1
  O  O166  1  0.04204250  0.69707650  0.16435400  1
  O  O167  1  0.12940250  0.21315650  0.16384000  1
  O  O168  1  0.17010350  0.50144750  0.97703200  1
  O  O169  1  0.16755150  0.64606150  0.82484200  1
  O  O170  1  0.30959350  0.77744550  0.82761200  1
  O  O171  1  0.12940250  0.78684350  0.66384000  1
