# generated using pymatgen
data_LaAlO3
_symmetry_space_group_name_H-M   'P 1'
_cell_length_a   7.14202400
_cell_length_b   12.39668000
_cell_length_c   10.24705000
_cell_angle_alpha   90.00000000
_cell_angle_beta   90.00000000
_cell_angle_gamma   90.00000000
_symmetry_Int_Tables_number   1
_chemical_formula_structural   LaAlO3
_chemical_formula_sum   'La12 Al12 O36'
_cell_volume   907.24702203
_cell_formula_units_Z   12
loop_
 _symmetry_equiv_pos_site_id
 _symmetry_equiv_pos_as_xyz
  1  'x, y, z'
loop_
 _atom_site_type_symbol
 _atom_site_label
 _atom_site_symmetry_multiplicity
 _atom_site_fract_x
 _atom_site_fract_y
 _atom_site_fract_z
 _atom_site_occupancy
  La  La0  1  0.00000000  0.17142300  0.50000000  1
  La  La1  1  0.00000000  0.17142300  0.00000000  1
  La  La2  1  0.50000000  0.32857700  0.50000000  1
  La  La3  1  0.50000000  0.32857700  0.00000000  1
  La  La4  1  0.50000000  0.00000000  0.00000000  1
  La  La5  1  0.50000000  0.00000000  0.50000000  1
  La  La6  1  0.50000000  0.67142300  0.50000000  1
  La  La7  1  0.50000000  0.67142300  0.00000000  1
  La  La8  1  0.00000000  0.82857700  0.50000000  1
  La  La9  1  0.00000000  0.82857700  0.00000000  1
  La  La10  1  0.00000000  0.50000000  0.00000000  1
  La  La11  1  0.00000000  0.50000000  0.50000000  1
  Al  Al12  1  0.29461100  0.12897500  0.25000000  1
  Al  Al13  1  0.70538900  0.12897500  0.75000000  1
  Al  Al14  1  0.79461100  0.37102500  0.25000000  1
  Al  Al15  1  0.20538900  0.37102500  0.75000000  1
  Al  Al16  1  0.09440700  0.00000000  0.75000000  1
  Al  Al17  1  0.90559300  0.00000000  0.25000000  1
  Al  Al18  1  0.79461100  0.62897500  0.25000000  1
  Al  Al19  1  0.20538900  0.62897500  0.75000000  1
  Al  Al20  1  0.29461100  0.87102500  0.25000000  1
  Al  Al21  1  0.70538900  0.87102500  0.75000000  1
  Al  Al22  1  0.59440700  0.50000000  0.75000000  1
  Al  Al23  1  0.40559300  0.50000000  0.25000000  1
  O  O24  1  0.95515100  0.12013600  0.75000000  1
  O  O25  1  0.04484900  0.12013600  0.25000000  1
  O  O26  1  0.34373150  0.17728950  0.40719000  1
  O  O27  1  0.34373150  0.17728950  0.09281000  1
  O  O28  1  0.65626850  0.17728950  0.59281000  1
  O  O29  1  0.65626850  0.17728950  0.90719000  1
  O  O30  1  0.84373150  0.32271050  0.40719000  1
  O  O31  1  0.84373150  0.32271050  0.09281000  1
  O  O32  1  0.15626850  0.32271050  0.59281000  1
  O  O33  1  0.15626850  0.32271050  0.90719000  1
  O  O34  1  0.54484900  0.37986400  0.25000000  1
  O  O35  1  0.45515100  0.37986400  0.75000000  1
  O  O36  1  0.59370600  0.00000000  0.75000000  1
  O  O37  1  0.18846100  0.00000000  0.59022700  1
  O  O38  1  0.18846100  0.00000000  0.90977300  1
  O  O39  1  0.81153900  0.00000000  0.09022700  1
  O  O40  1  0.81153900  0.00000000  0.40977300  1
  O  O41  1  0.40629400  0.00000000  0.25000000  1
  O  O42  1  0.45515100  0.62013600  0.75000000  1
  O  O43  1  0.54484900  0.62013600  0.25000000  1
  O  O44  1  0.84373150  0.67728950  0.40719000  1
  O  O45  1  0.84373150  0.67728950  0.09281000  1
  O  O46  1  0.15626850  0.67728950  0.59281000  1
  O  O47  1  0.15626850  0.67728950  0.90719000  1
  O  O48  1  0.34373150  0.82271050  0.40719000  1
  O  O49  1  0.34373150  0.82271050  0.09281000  1
  O  O50  1  0.65626850  0.82271050  0.59281000  1
  O  O51  1  0.65626850  0.82271050  0.90719000  1
  O  O52  1  0.04484900  0.87986400  0.25000000  1
  O  O53  1  0.95515100  0.87986400  0.75000000  1
  O  O54  1  0.09370600  0.50000000  0.75000000  1
  O  O55  1  0.68846100  0.50000000  0.59022700  1
  O  O56  1  0.68846100  0.50000000  0.90977300  1
  O  O57  1  0.31153900  0.50000000  0.09022700  1
  O  O58  1  0.31153900  0.50000000  0.40977300  1
  O  O59  1  0.90629400  0.50000000  0.25000000  1
