# generated using pymatgen
data_LaAlO3
_symmetry_space_group_name_H-M   'P 1'
_cell_length_a   6.85171400
_cell_length_b   6.85887334
_cell_length_c   9.85453549
_cell_angle_alpha   109.81046822
_cell_angle_beta   86.91555564
_cell_angle_gamma   101.58085603
_symmetry_Int_Tables_number   1
_chemical_formula_structural   LaAlO3
_chemical_formula_sum   'La6 Al6 O18'
_cell_volume   426.78582819
_cell_formula_units_Z   6
loop_
 _symmetry_equiv_pos_site_id
 _symmetry_equiv_pos_as_xyz
  1  'x, y, z'
loop_
 _atom_site_type_symbol
 _atom_site_label
 _atom_site_symmetry_multiplicity
 _atom_site_fract_x
 _atom_site_fract_y
 _atom_site_fract_z
 _atom_site_occupancy
  La  La0  1  0.24043200  0.74799800  0.00496800  1
  La  La1  1  0.42699100  0.87976900  0.65176400  1
  La  La2  1  0.92420800  0.73304000  0.34887300  1
  La  La3  1  0.07579200  0.26696000  0.65112700  1
  La  La4  1  0.57300900  0.12023100  0.34823600  1
  La  La5  1  0.75956800  0.25200200  0.99503200  1
  Al  Al6  1  0.38689300  0.61306000  0.29258000  1
  Al  Al7  1  0.27224900  0.24316800  0.00790400  1
  Al  Al8  1  0.95725900  0.74676200  0.70924100  1
  Al  Al9  1  0.04274100  0.25323800  0.29075900  1
  Al  Al10  1  0.72775100  0.75683200  0.99209600  1
  Al  Al11  1  0.61310700  0.38694000  0.70742000  1
  O  O12  1  0.59283300  0.94350600  0.10546800  1
  O  O13  1  0.25828800  0.79982400  0.26521400  1
  O  O14  1  0.07518100  0.89361500  0.59976600  1
  O  O15  1  0.58296600  0.79192500  0.40924300  1
  O  O16  1  0.88213500  0.65556200  0.07942600  1
  O  O17  1  0.45513600  0.44269900  0.12719600  1
  O  O18  1  0.16342000  0.64389400  0.74416500  1
  O  O19  1  0.23091800  0.46729100  0.39053200  1
  O  O20  1  0.86305600  0.88817500  0.87599500  1
  O  O21  1  0.13694400  0.11182500  0.12400500  1
  O  O22  1  0.76908200  0.53270900  0.60946800  1
  O  O23  1  0.83658000  0.35610600  0.25583500  1
  O  O24  1  0.54486400  0.55730100  0.87280400  1
  O  O25  1  0.11786500  0.34443800  0.92057400  1
  O  O26  1  0.41703400  0.20807500  0.59075700  1
  O  O27  1  0.92481900  0.10638500  0.40023400  1
  O  O28  1  0.74171200  0.20017600  0.73478600  1
  O  O29  1  0.40716700  0.05649400  0.89453200  1
