# generated using pymatgen
data_Lu2Si2O7
_symmetry_space_group_name_H-M   'P 1'
_cell_length_a   6.76827200
_cell_length_b   8.87015400
_cell_length_c   4.76268296
_cell_angle_alpha   90.00000000
_cell_angle_beta   102.24273713
_cell_angle_gamma   90.00000000
_symmetry_Int_Tables_number   1
_chemical_formula_structural   Lu2Si2O7
_chemical_formula_sum   'Lu4 Si4 O14'
_cell_volume   279.42796517
_cell_formula_units_Z   2
loop_
 _symmetry_equiv_pos_site_id
 _symmetry_equiv_pos_as_xyz
  1  'x, y, z'
loop_
 _atom_site_type_symbol
 _atom_site_label
 _atom_site_symmetry_multiplicity
 _atom_site_fract_x
 _atom_site_fract_y
 _atom_site_fract_z
 _atom_site_occupancy
  Lu  Lu0  1  0.50000000  0.19142600  0.00000000  1
  Lu  Lu1  1  0.50000000  0.80857400  0.00000000  1
  Lu  Lu2  1  0.00000000  0.69142600  0.00000000  1
  Lu  Lu3  1  0.00000000  0.30857400  0.00000000  1
  Si  Si4  1  0.22059400  0.00000000  0.40984000  1
  Si  Si5  1  0.77940600  0.00000000  0.59016000  1
  Si  Si6  1  0.72059400  0.50000000  0.40984000  1
  Si  Si7  1  0.27940600  0.50000000  0.59016000  1
  O  O8  1  0.76426850  0.84756250  0.78264400  1
  O  O9  1  0.23573150  0.84756250  0.21735600  1
  O  O10  1  0.23573150  0.15243750  0.21735600  1
  O  O11  1  0.76426850  0.15243750  0.78264400  1
  O  O12  1  0.00000000  0.00000000  0.50000000  1
  O  O13  1  0.61390200  0.00000000  0.28360500  1
  O  O14  1  0.38609800  0.00000000  0.71639500  1
  O  O15  1  0.26426850  0.34756250  0.78264400  1
  O  O16  1  0.73573150  0.34756250  0.21735600  1
  O  O17  1  0.73573150  0.65243750  0.21735600  1
  O  O18  1  0.26426850  0.65243750  0.78264400  1
  O  O19  1  0.50000000  0.50000000  0.50000000  1
  O  O20  1  0.11390200  0.50000000  0.28360500  1
  O  O21  1  0.88609800  0.50000000  0.71639500  1
