# generated using pymatgen
data_V9O17
_symmetry_space_group_name_H-M   'P 1'
_cell_length_a   5.53664084
_cell_length_b   7.11857956
_cell_length_c   14.77072740
_cell_angle_alpha   96.04318230
_cell_angle_beta   90.22058937
_cell_angle_gamma   108.15615630
_symmetry_Int_Tables_number   1
_chemical_formula_structural   V9O17
_chemical_formula_sum   'V18 O34'
_cell_volume   549.68557989
_cell_formula_units_Z   2
loop_
 _symmetry_equiv_pos_site_id
 _symmetry_equiv_pos_as_xyz
  1  'x, y, z'
loop_
 _atom_site_type_symbol
 _atom_site_label
 _atom_site_symmetry_multiplicity
 _atom_site_fract_x
 _atom_site_fract_y
 _atom_site_fract_z
 _atom_site_occupancy
  V  V0  1  0.67217500  0.91413200  0.26746900  1
  V  V1  1  0.33025200  0.08179000  0.72718600  1
  V  V2  1  0.25707800  0.11920900  0.15926400  1
  V  V3  1  0.75012200  0.89615500  0.84136400  1
  V  V4  1  0.67162700  0.41683000  0.27123600  1
  V  V5  1  0.32689000  0.58513900  0.72437400  1
  V  V6  1  0.08499300  0.20150400  0.38598200  1
  V  V7  1  0.91167200  0.79587500  0.61535200  1
  V  V8  1  0.75801300  0.40541200  0.83928300  1
  V  V9  1  0.25518000  0.61658300  0.16360600  1
  V  V10  1  0.20254200  0.69491700  0.96076900  1
  V  V11  1  0.81223200  0.31804700  0.04298700  1
  V  V12  1  0.07860700  0.70111000  0.39099600  1
  V  V13  1  0.90984600  0.29120200  0.61315200  1
  V  V14  1  0.19644600  0.19392800  0.95598400  1
  V  V15  1  0.81062500  0.81327100  0.04147400  1
  V  V16  1  0.50323400  0.99635800  0.50028200  1
  V  V17  1  0.49310600  0.49601200  0.49922500  1
  O  O18  1  0.85276400  0.19515600  0.90533200  1
  O  O19  1  0.15717300  0.81432600  0.09347500  1
  O  O20  1  0.04232300  0.06949600  0.25074800  1
  O  O21  1  0.97676300  0.92904600  0.74095900  1
  O  O22  1  0.80104300  0.00493200  0.58297400  1
  O  O23  1  0.19817600  0.97635800  0.41635800  1
  O  O24  1  0.80422600  0.53990700  0.97905300  1
  O  O25  1  0.20753400  0.46111100  0.02191400  1
  O  O26  1  0.26942500  0.95456500  0.60591500  1
  O  O27  1  0.74521500  0.04993700  0.39541200  1
  O  O28  1  0.43372600  0.35636000  0.37430900  1
  O  O29  1  0.54843500  0.62761100  0.62991400  1
  O  O30  1  0.20357900  0.29825800  0.69442900  1
  O  O31  1  0.77818700  0.68511600  0.30667300  1
  O  O32  1  0.37224800  0.40044500  0.19437800  1
  O  O33  1  0.62464500  0.59232800  0.80763800  1
  O  O34  1  0.85117200  0.66442000  0.49207300  1
  O  O35  1  0.13824300  0.32330500  0.51003500  1
  O  O36  1  0.52828100  0.81457800  0.95418300  1
  O  O37  1  0.45720200  0.18696000  0.04483700  1
  O  O38  1  0.96297000  0.11617800  0.06886400  1
  O  O39  1  0.03932500  0.89639500  0.92953100  1
  O  O40  1  0.56216000  0.13485200  0.22768600  1
  O  O41  1  0.44047900  0.87837900  0.76963000  1
  O  O42  1  0.60318400  0.76893900  0.14164400  1
  O  O43  1  0.38494200  0.22617100  0.86015800  1
  O  O44  1  0.97045500  0.42573600  0.34841600  1
  O  O45  1  0.02944100  0.57919300  0.65319000  1
  O  O46  1  0.62984400  0.29675900  0.54088900  1
  O  O47  1  0.37703200  0.69993600  0.46382900  1
  O  O48  1  0.69176500  0.25225900  0.72342900  1
  O  O49  1  0.29236000  0.73873500  0.27529200  1
  O  O50  1  0.88809900  0.45383200  0.15898500  1
  O  O51  1  0.11294200  0.55094300  0.83786000  1
