# generated using pymatgen
data_Na8TiO6
_symmetry_space_group_name_H-M   'P 1'
_cell_length_a   6.63070000
_cell_length_b   9.59246300
_cell_length_c   13.93894300
_cell_angle_alpha   90.00000000
_cell_angle_beta   90.00000000
_cell_angle_gamma   90.00000000
_symmetry_Int_Tables_number   1
_chemical_formula_structural   Na8TiO6
_chemical_formula_sum   'Na32 Ti4 O24'
_cell_volume   886.58290692
_cell_formula_units_Z   4
loop_
 _symmetry_equiv_pos_site_id
 _symmetry_equiv_pos_as_xyz
  1  'x, y, z'
loop_
 _atom_site_type_symbol
 _atom_site_label
 _atom_site_symmetry_multiplicity
 _atom_site_fract_x
 _atom_site_fract_y
 _atom_site_fract_z
 _atom_site_occupancy
  Na  Na0  1  0.51204400  0.77383800  0.01255400  1
  Na  Na1  1  0.27294700  0.52469000  0.06295000  1
  Na  Na2  1  0.91775500  0.18962900  0.07117600  1
  Na  Na3  1  0.94008900  0.83053300  0.07731900  1
  Na  Na4  1  0.33664900  0.01142700  0.11542400  1
  Na  Na5  1  0.55046500  0.81779100  0.21983200  1
  Na  Na6  1  0.57900300  0.19855800  0.22906400  1
  Na  Na7  1  0.92107500  0.00743300  0.24972500  1
  Na  Na8  1  0.42107500  0.50743300  0.25027500  1
  Na  Na9  1  0.07900300  0.69855800  0.27093600  1
  Na  Na10  1  0.05046500  0.31779100  0.28016800  1
  Na  Na11  1  0.83664900  0.51142700  0.38457600  1
  Na  Na12  1  0.44008900  0.33053300  0.42268100  1
  Na  Na13  1  0.41775500  0.68962900  0.42882400  1
  Na  Na14  1  0.77294700  0.02469000  0.43705000  1
  Na  Na15  1  0.01204400  0.27383800  0.48744600  1
  Na  Na16  1  0.98795600  0.77383800  0.51255400  1
  Na  Na17  1  0.22705300  0.52469000  0.56295000  1
  Na  Na18  1  0.58224500  0.18962900  0.57117600  1
  Na  Na19  1  0.55991100  0.83053300  0.57731900  1
  Na  Na20  1  0.16335100  0.01142700  0.61542400  1
  Na  Na21  1  0.94953500  0.81779100  0.71983200  1
  Na  Na22  1  0.92099700  0.19855800  0.72906400  1
  Na  Na23  1  0.57892500  0.00743300  0.74972500  1
  Na  Na24  1  0.07892500  0.50743300  0.75027500  1
  Na  Na25  1  0.42099700  0.69855800  0.77093600  1
  Na  Na26  1  0.44953500  0.31779100  0.78016800  1
  Na  Na27  1  0.66335100  0.51142700  0.88457600  1
  Na  Na28  1  0.05991100  0.33053300  0.92268100  1
  Na  Na29  1  0.08224500  0.68962900  0.92882400  1
  Na  Na30  1  0.72705300  0.02469000  0.93705000  1
  Na  Na31  1  0.48795600  0.27383800  0.98744600  1
  Ti  Ti32  1  0.78076400  0.51236500  0.12354800  1
  Ti  Ti33  1  0.28076400  0.01236500  0.37645200  1
  Ti  Ti34  1  0.71923600  0.51236500  0.62354800  1
  Ti  Ti35  1  0.21923600  0.01236500  0.87645200  1
  O  O36  1  0.78964300  0.62781900  0.01681600  1
  O  O37  1  0.55820100  0.39665600  0.12080700  1
  O  O38  1  0.70913200  0.00546900  0.11836900  1
  O  O39  1  0.25756100  0.75836700  0.12615500  1
  O  O40  1  0.00781700  0.40343900  0.12615400  1
  O  O41  1  0.74983600  0.61668600  0.23445600  1
  O  O42  1  0.24983600  0.11668600  0.26554400  1
  O  O43  1  0.50781700  0.90343900  0.37384600  1
  O  O44  1  0.75756100  0.25836700  0.37384500  1
  O  O45  1  0.20913200  0.50546900  0.38163100  1
  O  O46  1  0.05820100  0.89665600  0.37919300  1
  O  O47  1  0.28964300  0.12781900  0.48318400  1
  O  O48  1  0.71035700  0.62781900  0.51681600  1
  O  O49  1  0.94179900  0.39665600  0.62080700  1
  O  O50  1  0.79086800  0.00546900  0.61836900  1
  O  O51  1  0.24243900  0.75836700  0.62615500  1
  O  O52  1  0.49218300  0.40343900  0.62615400  1
  O  O53  1  0.75016400  0.61668600  0.73445600  1
  O  O54  1  0.25016400  0.11668600  0.76554400  1
  O  O55  1  0.99218300  0.90343900  0.87384600  1
  O  O56  1  0.74243900  0.25836700  0.87384500  1
  O  O57  1  0.29086800  0.50546900  0.88163100  1
  O  O58  1  0.44179900  0.89665600  0.87919300  1
  O  O59  1  0.21035700  0.12781900  0.98318400  1
