# generated using pymatgen
data_LiV6O7F5
_symmetry_space_group_name_H-M   'P 1'
_cell_length_a   7.01101800
_cell_length_b   6.59720200
_cell_length_c   9.26447791
_cell_angle_alpha   90.00000000
_cell_angle_beta   90.51339114
_cell_angle_gamma   90.00000000
_symmetry_Int_Tables_number   1
_chemical_formula_structural   LiV6O7F5
_chemical_formula_sum   'Li2 V12 O14 F10'
_cell_volume   428.49363949
_cell_formula_units_Z   2
loop_
 _symmetry_equiv_pos_site_id
 _symmetry_equiv_pos_as_xyz
  1  'x, y, z'
loop_
 _atom_site_type_symbol
 _atom_site_label
 _atom_site_symmetry_multiplicity
 _atom_site_fract_x
 _atom_site_fract_y
 _atom_site_fract_z
 _atom_site_occupancy
  Li  Li0  1  0.24039700  0.26015100  0.26157300  1
  Li  Li1  1  0.75960300  0.26015100  0.73842700  1
  V  V2  1  0.00000000  0.03020800  0.00000000  1
  V  V3  1  0.00000000  0.49321600  0.50000000  1
  V  V4  1  0.04558500  0.50234000  0.82856400  1
  V  V5  1  0.99549600  0.98655600  0.32792600  1
  V  V6  1  0.48004600  0.50594200  0.67017700  1
  V  V7  1  0.51995400  0.50594200  0.32982300  1
  V  V8  1  0.50000000  0.52032000  0.00000000  1
  V  V9  1  0.47471800  0.98465900  0.17261700  1
  V  V10  1  0.50000000  0.99900900  0.50000000  1
  V  V11  1  0.95441500  0.50234000  0.17143600  1
  V  V12  1  0.52528200  0.98465900  0.82738300  1
  V  V13  1  0.00450400  0.98655600  0.67207400  1
  O  O14  1  0.00519200  0.29159800  0.66458600  1
  O  O15  1  0.00000000  0.32309800  0.00000000  1
  O  O16  1  0.01181100  0.69123500  0.66482600  1
  O  O17  1  0.48741400  0.19735200  0.33256800  1
  O  O18  1  0.51258600  0.19735200  0.66743200  1
  O  O19  1  0.31657700  0.50095200  0.83740700  1
  O  O20  1  0.18766800  0.00781800  0.16786900  1
  O  O21  1  0.68342300  0.50095200  0.16259300  1
  O  O22  1  0.49895700  0.79561000  0.34068200  1
  O  O23  1  0.50104300  0.79561000  0.65931800  1
  O  O24  1  0.50000000  0.81095200  0.00000000  1
  O  O25  1  0.99480800  0.29159800  0.33541400  1
  O  O26  1  0.98818900  0.69123500  0.33517400  1
  O  O27  1  0.81233200  0.00781800  0.83213100  1
  F  F28  1  0.20674200  0.00169900  0.83695700  1
  F  F29  1  0.00000000  0.71516300  0.00000000  1
  F  F30  1  0.50000000  0.20254700  0.00000000  1
  F  F31  1  0.29910600  0.50242900  0.16864500  1
  F  F32  1  0.30254000  0.49155600  0.49224600  1
  F  F33  1  0.79325800  0.00169900  0.16304300  1
  F  F34  1  0.19471200  0.99530700  0.49913400  1
  F  F35  1  0.69746000  0.49155600  0.50775400  1
  F  F36  1  0.70089400  0.50242900  0.83135500  1
  F  F37  1  0.80528800  0.99530700  0.50086600  1
