# generated using pymatgen
data_Na3LiMo2(H6O7)2
_symmetry_space_group_name_H-M   'P 1'
_cell_length_a   8.80085120
_cell_length_b   8.80085120
_cell_length_c   31.71671837
_cell_angle_alpha   90.00000000
_cell_angle_beta   90.00000000
_cell_angle_gamma   120.00000000
_symmetry_Int_Tables_number   1
_chemical_formula_structural   Na3LiMo2(H6O7)2
_chemical_formula_sum   'Na18 Li6 Mo12 H72 O84'
_cell_volume   2127.49346142
_cell_formula_units_Z   6
loop_
 _symmetry_equiv_pos_site_id
 _symmetry_equiv_pos_as_xyz
  1  'x, y, z'
loop_
 _atom_site_type_symbol
 _atom_site_label
 _atom_site_symmetry_multiplicity
 _atom_site_fract_x
 _atom_site_fract_y
 _atom_site_fract_z
 _atom_site_occupancy
  Na  Na0  1  0.69901967  0.10570733  0.06193133  1
  Na  Na1  1  0.40668767  0.30098033  0.06193133  1
  Na  Na2  1  0.89429267  0.59331233  0.06193133  1
  Na  Na3  1  0.22762600  0.96764700  0.22859800  1
  Na  Na4  1  0.74002100  0.77237400  0.22859800  1
  Na  Na5  1  0.03235300  0.25997900  0.22859800  1
  Na  Na6  1  0.36568633  0.43904067  0.39526467  1
  Na  Na7  1  0.07335433  0.63431367  0.39526467  1
  Na  Na8  1  0.56095933  0.92664567  0.39526467  1
  Na  Na9  1  0.89429267  0.30098033  0.56193133  1
  Na  Na10  1  0.40668767  0.10570733  0.56193133  1
  Na  Na11  1  0.69901967  0.59331233  0.56193133  1
  Na  Na12  1  0.03235300  0.77237400  0.72859800  1
  Na  Na13  1  0.74002100  0.96764700  0.72859800  1
  Na  Na14  1  0.22762600  0.25997900  0.72859800  1
  Na  Na15  1  0.56095933  0.63431367  0.89526467  1
  Na  Na16  1  0.07335433  0.43904067  0.89526467  1
  Na  Na17  1  0.36568633  0.92664567  0.89526467  1
  Li  Li18  1  0.33333333  0.66666667  0.15748367  1
  Li  Li19  1  0.66666667  0.33333333  0.32415033  1
  Li  Li20  1  0.00000000  0.00000000  0.49081700  1
  Li  Li21  1  0.33333333  0.66666667  0.65748367  1
  Li  Li22  1  0.66666667  0.33333333  0.82415033  1
  Li  Li23  1  0.00000000  0.00000000  0.99081700  1
  Mo  Mo24  1  0.33333333  0.66666667  0.04034867  1
  Mo  Mo25  1  0.66666667  0.33333333  0.20701533  1
  Mo  Mo26  1  0.00000000  0.00000000  0.12847600  1
  Mo  Mo27  1  0.33333333  0.66666667  0.29514267  1
  Mo  Mo28  1  0.00000000  0.00000000  0.37368200  1
  Mo  Mo29  1  0.33333333  0.66666667  0.54034867  1
  Mo  Mo30  1  0.66666667  0.33333333  0.46180933  1
  Mo  Mo31  1  0.00000000  0.00000000  0.62847600  1
  Mo  Mo32  1  0.66666667  0.33333333  0.70701533  1
  Mo  Mo33  1  0.00000000  0.00000000  0.87368200  1
  Mo  Mo34  1  0.33333333  0.66666667  0.79514267  1
  Mo  Mo35  1  0.66666667  0.33333333  0.96180933  1
  H  H36  1  0.10941867  0.75191033  0.15379633  1
  H  H37  1  0.64249167  0.89058133  0.15379633  1
  H  H38  1  0.24808967  0.35750833  0.15379633  1
  H  H39  1  0.58142300  0.55724800  0.32046300  1
  H  H40  1  0.97582500  0.41857700  0.32046300  1
  H  H41  1  0.44275200  0.02417500  0.32046300  1
  H  H42  1  0.54524800  0.95342100  0.18528400  1
  H  H43  1  0.40817300  0.45475200  0.18528400  1
  H  H44  1  0.04657900  0.59182700  0.18528400  1
  H  H45  1  0.71324567  0.78808533  0.01861733  1
  H  H46  1  0.07483967  0.28675433  0.01861733  1
  H  H47  1  0.21191467  0.92516033  0.01861733  1
  H  H48  1  0.66675567  0.67316233  0.10051933  1
  H  H49  1  0.00640667  0.33324433  0.10051933  1
  H  H50  1  0.32683767  0.99359333  0.10051933  1
  H  H51  1  0.66017100  0.99991100  0.26718600  1
  H  H52  1  0.33974000  0.33982900  0.26718600  1
  H  H53  1  0.00008900  0.66026000  0.26718600  1
  H  H54  1  0.47376333  0.10984367  0.13198067  1
  H  H55  1  0.63608033  0.52623667  0.13198067  1
  H  H56  1  0.89015633  0.36391967  0.13198067  1
  H  H57  1  0.22348967  0.19290333  0.29864733  1
  H  H58  1  0.96941367  0.77651033  0.29864733  1
  H  H59  1  0.80709667  0.03058633  0.29864733  1
  H  H60  1  0.77608533  0.08524367  0.48712967  1
  H  H61  1  0.30915833  0.22391467  0.48712967  1
  H  H62  1  0.91475633  0.69084167  0.48712967  1
  H  H63  1  0.24808967  0.89058133  0.65379633  1
  H  H64  1  0.64249167  0.75191033  0.65379633  1
  H  H65  1  0.10941867  0.35750833  0.65379633  1
  H  H66  1  0.21191467  0.28675433  0.51861733  1
  H  H67  1  0.07483967  0.78808533  0.51861733  1
  H  H68  1  0.71324567  0.92516033  0.51861733  1
  H  H69  1  0.37991233  0.12141867  0.35195067  1
  H  H70  1  0.74150633  0.62008767  0.35195067  1
  H  H71  1  0.87858133  0.25849367  0.35195067  1
  H  H72  1  0.33342233  0.00649567  0.43385267  1
  H  H73  1  0.67307333  0.66657767  0.43385267  1
  H  H74  1  0.99350433  0.32692667  0.43385267  1
  H  H75  1  0.32683767  0.33324433  0.60051933  1
  H  H76  1  0.00640667  0.67316233  0.60051933  1
  H  H77  1  0.66675567  0.99359333  0.60051933  1
  H  H78  1  0.14043000  0.44317700  0.46531400  1
  H  H79  1  0.30274700  0.85957000  0.46531400  1
  H  H80  1  0.55682300  0.69725300  0.46531400  1
  H  H81  1  0.89015633  0.52623667  0.63198067  1
  H  H82  1  0.63608033  0.10984367  0.63198067  1
  H  H83  1  0.47376333  0.36391967  0.63198067  1
  H  H84  1  0.44275200  0.41857700  0.82046300  1
  H  H85  1  0.97582500  0.55724800  0.82046300  1
  H  H86  1  0.58142300  0.02417500  0.82046300  1
  H  H87  1  0.91475633  0.22391467  0.98712967  1
  H  H88  1  0.30915833  0.08524367  0.98712967  1
  H  H89  1  0.77608533  0.69084167  0.98712967  1
  H  H90  1  0.87858133  0.62008767  0.85195067  1
  H  H91  1  0.74150633  0.12141867  0.85195067  1
  H  H92  1  0.37991233  0.25849367  0.85195067  1
  H  H93  1  0.04657900  0.45475200  0.68528400  1
  H  H94  1  0.40817300  0.95342100  0.68528400  1
  H  H95  1  0.54524800  0.59182700  0.68528400  1
  H  H96  1  0.00008900  0.33982900  0.76718600  1
  H  H97  1  0.33974000  0.99991100  0.76718600  1
  H  H98  1  0.66017100  0.66026000  0.76718600  1
  H  H99  1  0.99350433  0.66657767  0.93385267  1
  H  H100  1  0.67307333  0.00649567  0.93385267  1
  H  H101  1  0.33342233  0.32692667  0.93385267  1
  H  H102  1  0.80709667  0.77651033  0.79864733  1
  H  H103  1  0.96941367  0.19290333  0.79864733  1
  H  H104  1  0.22348967  0.03058633  0.79864733  1
  H  H105  1  0.55682300  0.85957000  0.96531400  1
  H  H106  1  0.30274700  0.44317700  0.96531400  1
  H  H107  1  0.14043000  0.69725300  0.96531400  1
  O  O108  1  0.33333333  0.66666667  0.09601767  1
  O  O109  1  0.66666667  0.33333333  0.26268433  1
  O  O110  1  0.54270233  0.83838567  0.02090567  1
  O  O111  1  0.29568333  0.45729767  0.02090567  1
  O  O112  1  0.16161433  0.70431667  0.02090567  1
  O  O113  1  0.49494767  0.12396433  0.18757233  1
  O  O114  1  0.62901667  0.50505233  0.18757233  1
  O  O115  1  0.87603567  0.37098333  0.18757233  1
  O  O116  1  0.00000000  0.00000000  0.18482300  1
  O  O117  1  0.66666667  0.33333333  0.01815633  1
  O  O118  1  0.14767933  0.22095767  0.11055367  1
  O  O119  1  0.07327833  0.85232067  0.11055367  1
  O  O120  1  0.77904233  0.92672167  0.11055367  1
  O  O121  1  0.11237567  0.51898733  0.27722033  1
  O  O122  1  0.40661167  0.88762433  0.27722033  1
  O  O123  1  0.48101267  0.59338833  0.27722033  1
  O  O124  1  0.14680933  0.70998367  0.17883467  1
  O  O125  1  0.56317433  0.85319067  0.17883467  1
  O  O126  1  0.29001633  0.43682567  0.17883467  1
  O  O127  1  0.95668300  0.18652400  0.01216800  1
  O  O128  1  0.22984100  0.04331700  0.01216800  1
  O  O129  1  0.81347600  0.77015900  0.01216800  1
  O  O130  1  0.44930767  0.09114933  0.10124433  1
  O  O131  1  0.64184167  0.55069233  0.10124433  1
  O  O132  1  0.90885067  0.35815833  0.10124433  1
  O  O133  1  0.24218400  0.21735900  0.26791100  1
  O  O134  1  0.97517500  0.75781600  0.26791100  1
  O  O135  1  0.78264100  0.02482500  0.26791100  1
  O  O136  1  0.00000000  0.00000000  0.42935100  1
  O  O137  1  0.33333333  0.66666667  0.59601767  1
  O  O138  1  0.20936900  0.17171900  0.35423900  1
  O  O139  1  0.96235000  0.79063100  0.35423900  1
  O  O140  1  0.82828100  0.03765000  0.35423900  1
  O  O141  1  0.16161433  0.45729767  0.52090567  1
  O  O142  1  0.29568333  0.83838567  0.52090567  1
  O  O143  1  0.54270233  0.70431667  0.52090567  1
  O  O144  1  0.66666667  0.33333333  0.51815633  1
  O  O145  1  0.33333333  0.66666667  0.35148967  1
  O  O146  1  0.81434600  0.55429100  0.44388700  1
  O  O147  1  0.73994500  0.18565400  0.44388700  1
  O  O148  1  0.44570900  0.26005500  0.44388700  1
  O  O149  1  0.77904233  0.85232067  0.61055367  1
  O  O150  1  0.07327833  0.22095767  0.61055367  1
  O  O151  1  0.14767933  0.92672167  0.61055367  1
  O  O152  1  0.81347600  0.04331700  0.51216800  1
  O  O153  1  0.22984100  0.18652400  0.51216800  1
  O  O154  1  0.95668300  0.77015900  0.51216800  1
  O  O155  1  0.62334967  0.51985733  0.34550133  1
  O  O156  1  0.89650767  0.37665033  0.34550133  1
  O  O157  1  0.48014267  0.10349233  0.34550133  1
  O  O158  1  0.11597433  0.42448267  0.43457767  1
  O  O159  1  0.30850833  0.88402567  0.43457767  1
  O  O160  1  0.57551733  0.69149167  0.43457767  1
  O  O161  1  0.90885067  0.55069233  0.60124433  1
  O  O162  1  0.64184167  0.09114933  0.60124433  1
  O  O163  1  0.44930767  0.35815833  0.60124433  1
  O  O164  1  0.66666667  0.33333333  0.76268433  1
  O  O165  1  0.00000000  0.00000000  0.92935100  1
  O  O166  1  0.87603567  0.50505233  0.68757233  1
  O  O167  1  0.62901667  0.12396433  0.68757233  1
  O  O168  1  0.49494767  0.37098333  0.68757233  1
  O  O169  1  0.82828100  0.79063100  0.85423900  1
  O  O170  1  0.96235000  0.17171900  0.85423900  1
  O  O171  1  0.20936900  0.03765000  0.85423900  1
  O  O172  1  0.33333333  0.66666667  0.85148967  1
  O  O173  1  0.00000000  0.00000000  0.68482300  1
  O  O174  1  0.48101267  0.88762433  0.77722033  1
  O  O175  1  0.40661167  0.51898733  0.77722033  1
  O  O176  1  0.11237567  0.59338833  0.77722033  1
  O  O177  1  0.44570900  0.18565400  0.94388700  1
  O  O178  1  0.73994500  0.55429100  0.94388700  1
  O  O179  1  0.81434600  0.26005500  0.94388700  1
  O  O180  1  0.48014267  0.37665033  0.84550133  1
  O  O181  1  0.89650767  0.51985733  0.84550133  1
  O  O182  1  0.62334967  0.10349233  0.84550133  1
  O  O183  1  0.29001633  0.85319067  0.67883467  1
  O  O184  1  0.56317433  0.70998367  0.67883467  1
  O  O185  1  0.14680933  0.43682567  0.67883467  1
  O  O186  1  0.78264100  0.75781600  0.76791100  1
  O  O187  1  0.97517500  0.21735900  0.76791100  1
  O  O188  1  0.24218400  0.02482500  0.76791100  1
  O  O189  1  0.57551733  0.88402567  0.93457767  1
  O  O190  1  0.30850833  0.42448267  0.93457767  1
  O  O191  1  0.11597433  0.69149167  0.93457767  1
