# generated using pymatgen
data_Li2Ti2O5
_symmetry_space_group_name_H-M   'P 1'
_cell_length_a   6.17824200
_cell_length_b   15.81311800
_cell_length_c   5.24714300
_cell_angle_alpha   90.00000000
_cell_angle_beta   90.00000000
_cell_angle_gamma   90.00000000
_symmetry_Int_Tables_number   1
_chemical_formula_structural   Li2Ti2O5
_chemical_formula_sum   'Li8 Ti8 O20'
_cell_volume   512.63154524
_cell_formula_units_Z   4
loop_
 _symmetry_equiv_pos_site_id
 _symmetry_equiv_pos_as_xyz
  1  'x, y, z'
loop_
 _atom_site_type_symbol
 _atom_site_label
 _atom_site_symmetry_multiplicity
 _atom_site_fract_x
 _atom_site_fract_y
 _atom_site_fract_z
 _atom_site_occupancy
  Li  Li0  1  0.35174700  0.05538000  0.64059300  1
  Li  Li1  1  0.85174700  0.44462000  0.14059300  1
  Li  Li2  1  0.14825300  0.44462000  0.64059300  1
  Li  Li3  1  0.64825300  0.05538000  0.14059300  1
  Li  Li4  1  0.85174700  0.55538000  0.64059300  1
  Li  Li5  1  0.35174700  0.94462000  0.14059300  1
  Li  Li6  1  0.64825300  0.94462000  0.64059300  1
  Li  Li7  1  0.14825300  0.55538000  0.14059300  1
  Ti  Ti8  1  0.65628650  0.35724950  0.64025900  1
  Ti  Ti9  1  0.15628650  0.14275050  0.14025900  1
  Ti  Ti10  1  0.34371350  0.35724950  0.14025900  1
  Ti  Ti11  1  0.84371350  0.14275050  0.64025900  1
  Ti  Ti12  1  0.15628650  0.85724950  0.64025900  1
  Ti  Ti13  1  0.65628650  0.64275050  0.14025900  1
  Ti  Ti14  1  0.84371350  0.85724950  0.14025900  1
  Ti  Ti15  1  0.34371350  0.64275050  0.64025900  1
  O  O16  1  0.75000000  0.25000000  0.56550000  1
  O  O17  1  0.34093600  0.06669500  0.02519100  1
  O  O18  1  0.84093600  0.43330500  0.52519100  1
  O  O19  1  0.88413750  0.12529350  0.98859300  1
  O  O20  1  0.38413750  0.37470650  0.48859300  1
  O  O21  1  0.11586250  0.12529350  0.48859300  1
  O  O22  1  0.61586250  0.37470650  0.98859300  1
  O  O23  1  0.15906400  0.43330500  0.02519100  1
  O  O24  1  0.65906400  0.06669500  0.52519100  1
  O  O25  1  0.25000000  0.25000000  0.06550000  1
  O  O26  1  0.25000000  0.75000000  0.56550000  1
  O  O27  1  0.84093600  0.56669500  0.02519100  1
  O  O28  1  0.34093600  0.93330500  0.52519100  1
  O  O29  1  0.38413750  0.62529350  0.98859300  1
  O  O30  1  0.88413750  0.87470650  0.48859300  1
  O  O31  1  0.61586250  0.62529350  0.48859300  1
  O  O32  1  0.11586250  0.87470650  0.98859300  1
  O  O33  1  0.65906400  0.93330500  0.02519100  1
  O  O34  1  0.15906400  0.56669500  0.52519100  1
  O  O35  1  0.75000000  0.75000000  0.06550000  1
