# generated using pymatgen
data_BaY3F11
_symmetry_space_group_name_H-M   'P 1'
_cell_length_a   7.73761900
_cell_length_b   8.25426062
_cell_length_c   8.28676256
_cell_angle_alpha   80.48616876
_cell_angle_beta   114.92246760
_cell_angle_gamma   116.24729029
_symmetry_Int_Tables_number   1
_chemical_formula_structural   BaY3F11
_chemical_formula_sum   'Ba2 Y6 F22'
_cell_volume   430.34308581
_cell_formula_units_Z   2
loop_
 _symmetry_equiv_pos_site_id
 _symmetry_equiv_pos_as_xyz
  1  'x, y, z'
loop_
 _atom_site_type_symbol
 _atom_site_label
 _atom_site_symmetry_multiplicity
 _atom_site_fract_x
 _atom_site_fract_y
 _atom_site_fract_z
 _atom_site_occupancy
  Ba  Ba0  1  0.68896800  0.24705500  0.66266300  1
  Ba  Ba1  1  0.31103200  0.75294500  0.33733700  1
  Y  Y2  1  0.72896900  0.25079100  0.21021600  1
  Y  Y3  1  0.22930500  0.26612400  0.71259500  1
  Y  Y4  1  0.19307800  0.25010900  0.15999100  1
  Y  Y5  1  0.80692200  0.74989100  0.84000900  1
  Y  Y6  1  0.77069500  0.73387600  0.28740500  1
  Y  Y7  1  0.27103100  0.74920900  0.78978400  1
  F  F8  1  0.00290400  0.04716800  0.83088200  1
  F  F9  1  0.64353800  0.95023100  0.22692700  1
  F  F10  1  0.90354600  0.19676000  0.50126100  1
  F  F11  1  0.42748300  0.27673900  0.02238400  1
  F  F12  1  0.54894000  0.87712600  0.68822100  1
  F  F13  1  0.28209900  0.23419000  0.46811400  1
  F  F14  1  0.06859000  0.40125000  0.25831200  1
  F  F15  1  0.81644200  0.19083900  0.00699300  1
  F  F16  1  0.85714100  0.60529800  0.10992100  1
  F  F17  1  0.56582100  0.45973500  0.76722600  1
  F  F18  1  0.23709000  0.54094500  0.62062200  1
  F  F19  1  0.76291000  0.45905500  0.37937800  1
  F  F20  1  0.43417900  0.54026500  0.23277400  1
  F  F21  1  0.14285900  0.39470200  0.89007900  1
  F  F22  1  0.18355800  0.80916100  0.99300700  1
  F  F23  1  0.93141000  0.59875000  0.74168800  1
  F  F24  1  0.71790100  0.76581000  0.53188600  1
  F  F25  1  0.45106000  0.12287400  0.31177900  1
  F  F26  1  0.57251700  0.72326100  0.97761600  1
  F  F27  1  0.09645400  0.80324000  0.49873900  1
  F  F28  1  0.35646200  0.04976900  0.77307300  1
  F  F29  1  0.99709600  0.95283200  0.16911800  1
