# generated using pymatgen
data_Li4V2Si(PO6)2
_symmetry_space_group_name_H-M   'P 1'
_cell_length_a   14.40916800
_cell_length_b   8.99960000
_cell_length_c   8.51281819
_cell_angle_alpha   90.00000000
_cell_angle_beta   121.21686593
_cell_angle_gamma   90.00000000
_symmetry_Int_Tables_number   1
_chemical_formula_structural   Li4V2Si(PO6)2
_chemical_formula_sum   'Li16 V8 Si4 P8 O48'
_cell_volume   944.08070317
_cell_formula_units_Z   4
loop_
 _symmetry_equiv_pos_site_id
 _symmetry_equiv_pos_as_xyz
  1  'x, y, z'
loop_
 _atom_site_type_symbol
 _atom_site_label
 _atom_site_symmetry_multiplicity
 _atom_site_fract_x
 _atom_site_fract_y
 _atom_site_fract_z
 _atom_site_occupancy
  Li  Li0  1  0.28375150  0.45157550  0.33874100  1
  Li  Li1  1  0.28375150  0.54842450  0.83874100  1
  Li  Li2  1  0.24830050  0.73566050  0.49417800  1
  Li  Li3  1  0.01044800  0.34214100  0.74441000  1
  Li  Li4  1  0.01044800  0.65785900  0.24441000  1
  Li  Li5  1  0.70670200  0.44917900  0.16118600  1
  Li  Li6  1  0.24830050  0.26433950  0.99417800  1
  Li  Li7  1  0.70670200  0.55082100  0.66118600  1
  Li  Li8  1  0.78375150  0.95157550  0.33874100  1
  Li  Li9  1  0.78375150  0.04842450  0.83874100  1
  Li  Li10  1  0.74830050  0.23566050  0.49417800  1
  Li  Li11  1  0.51044800  0.84214100  0.74441000  1
  Li  Li12  1  0.51044800  0.15785900  0.24441000  1
  Li  Li13  1  0.20670200  0.94917900  0.16118600  1
  Li  Li14  1  0.74830050  0.76433950  0.99417800  1
  Li  Li15  1  0.20670200  0.05082100  0.66118600  1
  V  V16  1  0.10870250  0.25204350  0.14267000  1
  V  V17  1  0.10870250  0.74795650  0.64267000  1
  V  V18  1  0.89304300  0.24796600  0.36162800  1
  V  V19  1  0.89304300  0.75203400  0.86162800  1
  V  V20  1  0.60870250  0.75204350  0.14267000  1
  V  V21  1  0.60870250  0.24795650  0.64267000  1
  V  V22  1  0.39304300  0.74796600  0.36162800  1
  V  V23  1  0.39304300  0.25203400  0.86162800  1
  Si  Si24  1  0.14861750  0.60105650  0.04410400  1
  Si  Si25  1  0.14861750  0.39894350  0.54410400  1
  Si  Si26  1  0.64861750  0.10105650  0.04410400  1
  Si  Si27  1  0.64861750  0.89894350  0.54410400  1
  P  P28  1  0.99965700  0.04574100  0.75182600  1
  P  P29  1  0.85075150  0.59905050  0.45395300  1
  P  P30  1  0.99965700  0.95425900  0.25182600  1
  P  P31  1  0.85075150  0.40094950  0.95395300  1
  P  P32  1  0.49965700  0.54574100  0.75182600  1
  P  P33  1  0.35075150  0.09905050  0.45395300  1
  P  P34  1  0.49965700  0.45425900  0.25182600  1
  P  P35  1  0.35075150  0.90094950  0.95395300  1
  O  O36  1  0.43684800  0.45043700  0.81512700  1
  O  O37  1  0.43684800  0.54956300  0.31512700  1
  O  O38  1  0.24046950  0.66758250  0.24895700  1
  O  O39  1  0.16728200  0.41865700  0.05822800  1
  O  O40  1  0.03431000  0.66022700  0.01733500  1
  O  O41  1  0.16504300  0.64793700  0.87495800  1
  O  O42  1  0.08638850  0.14923350  0.90647800  1
  O  O43  1  0.24046950  0.33241750  0.74895700  1
  O  O44  1  0.16728200  0.58134300  0.55822800  1
  O  O45  1  0.03431000  0.33977300  0.51733500  1
  O  O46  1  0.16504300  0.35206300  0.37495800  1
  O  O47  1  0.91378550  0.15243050  0.60217800  1
  O  O48  1  0.08638850  0.85076650  0.40647800  1
  O  O49  1  0.83377000  0.64586700  0.61113600  1
  O  O50  1  0.96125450  0.64840950  0.48639500  1
  O  O51  1  0.83298850  0.42608850  0.43705800  1
  O  O52  1  0.76421950  0.66080050  0.26000000  1
  O  O53  1  0.91378550  0.84756950  0.10217800  1
  O  O54  1  0.83377000  0.35413300  0.11113600  1
  O  O55  1  0.96125450  0.35159050  0.98639500  1
  O  O56  1  0.83298850  0.57391150  0.93705800  1
  O  O57  1  0.76421950  0.33919950  0.76000000  1
  O  O58  1  0.56366700  0.45150200  0.68945200  1
  O  O59  1  0.56366700  0.54849800  0.18945200  1
  O  O60  1  0.93684800  0.95043700  0.81512700  1
  O  O61  1  0.93684800  0.04956300  0.31512700  1
  O  O62  1  0.74046950  0.16758250  0.24895700  1
  O  O63  1  0.66728200  0.91865700  0.05822800  1
  O  O64  1  0.53431000  0.16022700  0.01733500  1
  O  O65  1  0.66504300  0.14793700  0.87495800  1
  O  O66  1  0.58638850  0.64923350  0.90647800  1
  O  O67  1  0.74046950  0.83241750  0.74895700  1
  O  O68  1  0.66728200  0.08134300  0.55822800  1
  O  O69  1  0.53431000  0.83977300  0.51733500  1
  O  O70  1  0.66504300  0.85206300  0.37495800  1
  O  O71  1  0.41378550  0.65243050  0.60217800  1
  O  O72  1  0.58638850  0.35076650  0.40647800  1
  O  O73  1  0.33377000  0.14586700  0.61113600  1
  O  O74  1  0.46125450  0.14840950  0.48639500  1
  O  O75  1  0.33298850  0.92608850  0.43705800  1
  O  O76  1  0.26421950  0.16080050  0.26000000  1
  O  O77  1  0.41378550  0.34756950  0.10217800  1
  O  O78  1  0.33377000  0.85413300  0.11113600  1
  O  O79  1  0.46125450  0.85159050  0.98639500  1
  O  O80  1  0.33298850  0.07391150  0.93705800  1
  O  O81  1  0.26421950  0.83919950  0.76000000  1
  O  O82  1  0.06366700  0.95150200  0.68945200  1
  O  O83  1  0.06366700  0.04849800  0.18945200  1
