# generated using pymatgen
data_BaTl2O4
_symmetry_space_group_name_H-M   'P 1'
_cell_length_a   10.58716000
_cell_length_b   6.26671600
_cell_length_c   22.13782036
_cell_angle_alpha   90.00000000
_cell_angle_beta   90.19887308
_cell_angle_gamma   90.00000000
_symmetry_Int_Tables_number   1
_chemical_formula_structural   BaTl2O4
_chemical_formula_sum   'Ba12 Tl24 O48'
_cell_volume   1468.76303078
_cell_formula_units_Z   12
loop_
 _symmetry_equiv_pos_site_id
 _symmetry_equiv_pos_as_xyz
  1  'x, y, z'
loop_
 _atom_site_type_symbol
 _atom_site_label
 _atom_site_symmetry_multiplicity
 _atom_site_fract_x
 _atom_site_fract_y
 _atom_site_fract_z
 _atom_site_occupancy
  Ba  Ba0  1  0.66516900  0.11946800  0.35597100  1
  Ba  Ba1  1  0.66516900  0.88053200  0.85597100  1
  Ba  Ba2  1  0.50000000  0.61165700  0.25000000  1
  Ba  Ba3  1  0.50000000  0.38834300  0.75000000  1
  Ba  Ba4  1  0.33483100  0.88053200  0.64402900  1
  Ba  Ba5  1  0.33483100  0.11946800  0.14402900  1
  Ba  Ba6  1  0.16516900  0.61946800  0.35597100  1
  Ba  Ba7  1  0.16516900  0.38053200  0.85597100  1
  Ba  Ba8  1  0.00000000  0.11165700  0.25000000  1
  Ba  Ba9  1  0.00000000  0.88834300  0.75000000  1
  Ba  Ba10  1  0.83483100  0.38053200  0.64402900  1
  Ba  Ba11  1  0.83483100  0.61946800  0.14402900  1
  Tl  Tl12  1  0.66652700  0.12280900  0.19463000  1
  Tl  Tl13  1  0.66652700  0.87719100  0.69463000  1
  Tl  Tl14  1  0.66169800  0.12648500  0.05378100  1
  Tl  Tl15  1  0.66169800  0.87351500  0.55378100  1
  Tl  Tl16  1  0.50067800  0.62967300  0.06897800  1
  Tl  Tl17  1  0.50067800  0.37032700  0.56897800  1
  Tl  Tl18  1  0.49932200  0.62967300  0.43102200  1
  Tl  Tl19  1  0.49932200  0.37032700  0.93102200  1
  Tl  Tl20  1  0.33830200  0.12648500  0.44621900  1
  Tl  Tl21  1  0.33830200  0.87351500  0.94621900  1
  Tl  Tl22  1  0.33347300  0.12280900  0.30537000  1
  Tl  Tl23  1  0.33347300  0.87719100  0.80537000  1
  Tl  Tl24  1  0.16652700  0.62280900  0.19463000  1
  Tl  Tl25  1  0.16652700  0.37719100  0.69463000  1
  Tl  Tl26  1  0.16169800  0.62648500  0.05378100  1
  Tl  Tl27  1  0.16169800  0.37351500  0.55378100  1
  Tl  Tl28  1  0.00067800  0.12967300  0.06897800  1
  Tl  Tl29  1  0.00067800  0.87032700  0.56897800  1
  Tl  Tl30  1  0.99932200  0.12967300  0.43102200  1
  Tl  Tl31  1  0.99932200  0.87032700  0.93102200  1
  Tl  Tl32  1  0.83830200  0.62648500  0.44621900  1
  Tl  Tl33  1  0.83830200  0.37351500  0.94621900  1
  Tl  Tl34  1  0.83347300  0.62280900  0.30537000  1
  Tl  Tl35  1  0.83347300  0.37719100  0.80537000  1
  O  O36  1  0.85359500  0.05324800  0.99780500  1
  O  O37  1  0.85359500  0.94675200  0.49780500  1
  O  O38  1  0.32205100  0.69760500  0.12424600  1
  O  O39  1  0.32205100  0.30239500  0.62424600  1
  O  O40  1  0.78829250  0.10365150  0.74427700  1
  O  O41  1  0.78829250  0.89634850  0.24427700  1
  O  O42  1  0.62588450  0.84602750  0.11864600  1
  O  O43  1  0.62588450  0.15397250  0.61864600  1
  O  O44  1  0.54896300  0.33425400  0.12791800  1
  O  O45  1  0.54896300  0.66574600  0.62791800  1
  O  O46  1  0.50000000  0.03012400  0.25000000  1
  O  O47  1  0.50000000  0.00000000  0.50000000  1
  O  O48  1  0.50000000  0.00000000  0.00000000  1
  O  O49  1  0.50000000  0.96987600  0.75000000  1
  O  O50  1  0.45103700  0.33425400  0.37208200  1
  O  O51  1  0.45103700  0.66574600  0.87208200  1
  O  O52  1  0.37411550  0.84602750  0.38135400  1
  O  O53  1  0.37411550  0.15397250  0.88135400  1
  O  O54  1  0.21170750  0.89634850  0.25572300  1
  O  O55  1  0.21170750  0.10365150  0.75572300  1
  O  O56  1  0.67794900  0.69760500  0.37575400  1
  O  O57  1  0.67794900  0.30239500  0.87575400  1
  O  O58  1  0.14640500  0.94675200  0.00219500  1
  O  O59  1  0.14640500  0.05324800  0.50219500  1
  O  O60  1  0.35359500  0.55324800  0.99780500  1
  O  O61  1  0.35359500  0.44675200  0.49780500  1
  O  O62  1  0.82205100  0.19760500  0.12424600  1
  O  O63  1  0.82205100  0.80239500  0.62424600  1
  O  O64  1  0.28829250  0.60365150  0.74427700  1
  O  O65  1  0.28829250  0.39634850  0.24427700  1
  O  O66  1  0.12588450  0.34602750  0.11864600  1
  O  O67  1  0.12588450  0.65397250  0.61864600  1
  O  O68  1  0.04896300  0.83425400  0.12791800  1
  O  O69  1  0.04896300  0.16574600  0.62791800  1
  O  O70  1  0.00000000  0.53012400  0.25000000  1
  O  O71  1  0.00000000  0.50000000  0.50000000  1
  O  O72  1  0.00000000  0.50000000  0.00000000  1
  O  O73  1  0.00000000  0.46987600  0.75000000  1
  O  O74  1  0.95103700  0.83425400  0.37208200  1
  O  O75  1  0.95103700  0.16574600  0.87208200  1
  O  O76  1  0.87411550  0.34602750  0.38135400  1
  O  O77  1  0.87411550  0.65397250  0.88135400  1
  O  O78  1  0.71170750  0.39634850  0.25572300  1
  O  O79  1  0.71170750  0.60365150  0.75572300  1
  O  O80  1  0.17794900  0.19760500  0.37575400  1
  O  O81  1  0.17794900  0.80239500  0.87575400  1
  O  O82  1  0.64640500  0.44675200  0.00219500  1
  O  O83  1  0.64640500  0.55324800  0.50219500  1
