# generated using pymatgen
data_Ba4Br6O
_symmetry_space_group_name_H-M   'P 1'
_cell_length_a   10.21923200
_cell_length_b   10.21923200
_cell_length_c   7.72419800
_cell_angle_alpha   90.00000000
_cell_angle_beta   90.00000000
_cell_angle_gamma   90.00000000
_symmetry_Int_Tables_number   1
_chemical_formula_structural   Ba4Br6O
_chemical_formula_sum   'Ba8 Br12 O2'
_cell_volume   806.65887310
_cell_formula_units_Z   2
loop_
 _symmetry_equiv_pos_site_id
 _symmetry_equiv_pos_as_xyz
  1  'x, y, z'
loop_
 _atom_site_type_symbol
 _atom_site_label
 _atom_site_symmetry_multiplicity
 _atom_site_fract_x
 _atom_site_fract_y
 _atom_site_fract_z
 _atom_site_occupancy
  Ba  Ba0  1  0.23213600  0.00000000  0.33639200  1
  Ba  Ba1  1  0.50000000  0.73213600  0.83639200  1
  Ba  Ba2  1  0.50000000  0.26786400  0.83639200  1
  Ba  Ba3  1  0.76786400  0.00000000  0.33639200  1
  Ba  Ba4  1  0.73213600  0.50000000  0.16360800  1
  Ba  Ba5  1  0.00000000  0.23213600  0.66360800  1
  Ba  Ba6  1  0.00000000  0.76786400  0.66360800  1
  Ba  Ba7  1  0.26786400  0.50000000  0.16360800  1
  Br  Br8  1  0.29468700  0.70531300  0.50000000  1
  Br  Br9  1  0.29468700  0.29468700  0.50000000  1
  Br  Br10  1  0.50000000  0.00000000  0.08929100  1
  Br  Br11  1  0.50000000  0.00000000  0.58929100  1
  Br  Br12  1  0.70531300  0.29468700  0.50000000  1
  Br  Br13  1  0.70531300  0.70531300  0.50000000  1
  Br  Br14  1  0.79468700  0.79468700  0.00000000  1
  Br  Br15  1  0.79468700  0.20531300  0.00000000  1
  Br  Br16  1  0.00000000  0.50000000  0.91070900  1
  Br  Br17  1  0.00000000  0.50000000  0.41070900  1
  Br  Br18  1  0.20531300  0.79468700  0.00000000  1
  Br  Br19  1  0.20531300  0.20531300  0.00000000  1
  O  O20  1  0.50000000  0.50000000  0.00000000  1
  O  O21  1  0.00000000  0.00000000  0.50000000  1
