# generated using pymatgen
data_Ta2PbO6
_symmetry_space_group_name_H-M   'P 1'
_cell_length_a   5.27359900
_cell_length_b   6.13279900
_cell_length_c   15.90032200
_cell_angle_alpha   90.00000000
_cell_angle_beta   90.00000000
_cell_angle_gamma   90.00000000
_symmetry_Int_Tables_number   1
_chemical_formula_structural   Ta2PbO6
_chemical_formula_sum   'Ta8 Pb4 O24'
_cell_volume   514.24698461
_cell_formula_units_Z   4
loop_
 _symmetry_equiv_pos_site_id
 _symmetry_equiv_pos_as_xyz
  1  'x, y, z'
loop_
 _atom_site_type_symbol
 _atom_site_label
 _atom_site_symmetry_multiplicity
 _atom_site_fract_x
 _atom_site_fract_y
 _atom_site_fract_z
 _atom_site_occupancy
  Ta  Ta0  1  0.77067900  0.82502600  0.32874000  1
  Ta  Ta1  1  0.27067900  0.17497400  0.32874000  1
  Ta  Ta2  1  0.27067900  0.67497400  0.17126000  1
  Ta  Ta3  1  0.77067900  0.32502600  0.17126000  1
  Ta  Ta4  1  0.22932100  0.67497400  0.82874000  1
  Ta  Ta5  1  0.72932100  0.32502600  0.82874000  1
  Ta  Ta6  1  0.72932100  0.82502600  0.67126000  1
  Ta  Ta7  1  0.22932100  0.17497400  0.67126000  1
  Pb  Pb8  1  0.25000000  0.70504500  0.50000000  1
  Pb  Pb9  1  0.75000000  0.29495500  0.50000000  1
  Pb  Pb10  1  0.75000000  0.79495500  0.00000000  1
  Pb  Pb11  1  0.25000000  0.20504500  0.00000000  1
  O  O12  1  0.86716600  0.62474600  0.40707900  1
  O  O13  1  0.36716600  0.37525400  0.40707900  1
  O  O14  1  0.46500900  0.92548600  0.38574800  1
  O  O15  1  0.96500900  0.07451400  0.38574800  1
  O  O16  1  0.59196100  0.14293700  0.25477800  1
  O  O17  1  0.09196100  0.85706300  0.25477800  1
  O  O18  1  0.59196100  0.64293700  0.24522200  1
  O  O19  1  0.09196100  0.35706300  0.24522200  1
  O  O20  1  0.96500900  0.57451400  0.11425200  1
  O  O21  1  0.46500900  0.42548600  0.11425200  1
  O  O22  1  0.36716600  0.87525400  0.09292100  1
  O  O23  1  0.86716600  0.12474600  0.09292100  1
  O  O24  1  0.13283400  0.87525400  0.90707900  1
  O  O25  1  0.63283400  0.12474600  0.90707900  1
  O  O26  1  0.53499100  0.57451400  0.88574800  1
  O  O27  1  0.03499100  0.42548600  0.88574800  1
  O  O28  1  0.90803900  0.64293700  0.75477800  1
  O  O29  1  0.40803900  0.35706300  0.75477800  1
  O  O30  1  0.40803900  0.85706300  0.74522200  1
  O  O31  1  0.90803900  0.14293700  0.74522200  1
  O  O32  1  0.03499100  0.92548600  0.61425200  1
  O  O33  1  0.53499100  0.07451400  0.61425200  1
  O  O34  1  0.63283400  0.62474600  0.59292100  1
  O  O35  1  0.13283400  0.37525400  0.59292100  1
