# generated using pymatgen
data_LiMnB2O5
_symmetry_space_group_name_H-M   'P 1'
_cell_length_a   9.58130200
_cell_length_b   10.74546800
_cell_length_c   9.50672150
_cell_angle_alpha   90.00000000
_cell_angle_beta   115.23731189
_cell_angle_gamma   90.00000000
_symmetry_Int_Tables_number   1
_chemical_formula_structural   LiMnB2O5
_chemical_formula_sum   'Li8 Mn8 B16 O40'
_cell_volume   885.34597079
_cell_formula_units_Z   8
loop_
 _symmetry_equiv_pos_site_id
 _symmetry_equiv_pos_as_xyz
  1  'x, y, z'
loop_
 _atom_site_type_symbol
 _atom_site_label
 _atom_site_symmetry_multiplicity
 _atom_site_fract_x
 _atom_site_fract_y
 _atom_site_fract_z
 _atom_site_occupancy
  Li  Li0  1  0.50000000  0.66761400  0.75000000  1
  Li  Li1  1  0.50000000  0.10817500  0.75000000  1
  Li  Li2  1  0.50000000  0.89182500  0.25000000  1
  Li  Li3  1  0.50000000  0.33238600  0.25000000  1
  Li  Li4  1  0.00000000  0.16761400  0.75000000  1
  Li  Li5  1  0.00000000  0.60817500  0.75000000  1
  Li  Li6  1  0.00000000  0.39182500  0.25000000  1
  Li  Li7  1  0.00000000  0.83238600  0.25000000  1
  Mn  Mn8  1  0.79639750  0.84243150  0.84786600  1
  Mn  Mn9  1  0.79639750  0.15756850  0.34786600  1
  Mn  Mn10  1  0.20360250  0.84243150  0.65213400  1
  Mn  Mn11  1  0.20360250  0.15756850  0.15213400  1
  Mn  Mn12  1  0.29639750  0.34243150  0.84786600  1
  Mn  Mn13  1  0.29639750  0.65756850  0.34786600  1
  Mn  Mn14  1  0.70360250  0.34243150  0.65213400  1
  Mn  Mn15  1  0.70360250  0.65756850  0.15213400  1
  B  B16  1  0.76453650  0.00797650  0.59704600  1
  B  B17  1  0.56982850  0.83435150  0.52315200  1
  B  B18  1  0.76453650  0.99202350  0.09704600  1
  B  B19  1  0.56982850  0.16564850  0.02315200  1
  B  B20  1  0.43017150  0.83435150  0.97684800  1
  B  B21  1  0.23546350  0.00797650  0.90295400  1
  B  B22  1  0.43017150  0.16564850  0.47684800  1
  B  B23  1  0.23546350  0.99202350  0.40295400  1
  B  B24  1  0.26453650  0.50797650  0.59704600  1
  B  B25  1  0.06982850  0.33435150  0.52315200  1
  B  B26  1  0.26453650  0.49202350  0.09704600  1
  B  B27  1  0.06982850  0.66564850  0.02315200  1
  B  B28  1  0.93017150  0.33435150  0.97684800  1
  B  B29  1  0.73546350  0.50797650  0.90295400  1
  B  B30  1  0.93017150  0.66564850  0.47684800  1
  B  B31  1  0.73546350  0.49202350  0.40295400  1
  O  O32  1  0.82918200  0.10465400  0.55232200  1
  O  O33  1  0.81679700  0.98925800  0.75365900  1
  O  O34  1  0.82918200  0.89534600  0.05232200  1
  O  O35  1  0.61966300  0.78613500  0.66948000  1
  O  O36  1  0.55630350  0.20476750  0.60323800  1
  O  O37  1  0.81679700  0.01074200  0.25365900  1
  O  O38  1  0.64909900  0.06728500  0.98678800  1
  O  O39  1  0.35090100  0.06728500  0.51321200  1
  O  O40  1  0.61966300  0.21386500  0.16948000  1
  O  O41  1  0.55630350  0.79523250  0.10323800  1
  O  O42  1  0.44369650  0.20476750  0.89676200  1
  O  O43  1  0.38033700  0.78613500  0.83052000  1
  O  O44  1  0.64909900  0.93271500  0.48678800  1
  O  O45  1  0.35090100  0.93271500  0.01321200  1
  O  O46  1  0.18320300  0.98925800  0.74634100  1
  O  O47  1  0.44369650  0.79523250  0.39676200  1
  O  O48  1  0.38033700  0.21386500  0.33052000  1
  O  O49  1  0.17081800  0.10465400  0.94767800  1
  O  O50  1  0.18320300  0.01074200  0.24634100  1
  O  O51  1  0.17081800  0.89534600  0.44767800  1
  O  O52  1  0.32918200  0.60465400  0.55232200  1
  O  O53  1  0.31679700  0.48925800  0.75365900  1
  O  O54  1  0.32918200  0.39534600  0.05232200  1
  O  O55  1  0.11966300  0.28613500  0.66948000  1
  O  O56  1  0.05630350  0.70476750  0.60323800  1
  O  O57  1  0.31679700  0.51074200  0.25365900  1
  O  O58  1  0.14909900  0.56728500  0.98678800  1
  O  O59  1  0.85090100  0.56728500  0.51321200  1
  O  O60  1  0.11966300  0.71386500  0.16948000  1
  O  O61  1  0.05630350  0.29523250  0.10323800  1
  O  O62  1  0.94369650  0.70476750  0.89676200  1
  O  O63  1  0.88033700  0.28613500  0.83052000  1
  O  O64  1  0.14909900  0.43271500  0.48678800  1
  O  O65  1  0.85090100  0.43271500  0.01321200  1
  O  O66  1  0.68320300  0.48925800  0.74634100  1
  O  O67  1  0.94369650  0.29523250  0.39676200  1
  O  O68  1  0.88033700  0.71386500  0.33052000  1
  O  O69  1  0.67081800  0.60465400  0.94767800  1
  O  O70  1  0.68320300  0.51074200  0.24634100  1
  O  O71  1  0.67081800  0.39534600  0.44767800  1
