# generated using pymatgen
data_TiFe2Ni3(PO4)6
_symmetry_space_group_name_H-M   'P 1'
_cell_length_a   8.65440897
_cell_length_b   8.65440897
_cell_length_c   20.32680717
_cell_angle_alpha   90.00000000
_cell_angle_beta   90.00000000
_cell_angle_gamma   120.00000000
_symmetry_Int_Tables_number   1
_chemical_formula_structural   TiFe2Ni3(PO4)6
_chemical_formula_sum   'Ti3 Fe6 Ni9 P18 O72'
_cell_volume   1318.48328290
_cell_formula_units_Z   3
loop_
 _symmetry_equiv_pos_site_id
 _symmetry_equiv_pos_as_xyz
  1  'x, y, z'
loop_
 _atom_site_type_symbol
 _atom_site_label
 _atom_site_symmetry_multiplicity
 _atom_site_fract_x
 _atom_site_fract_y
 _atom_site_fract_z
 _atom_site_occupancy
  Ti  Ti0  1  0.33333333  0.66666667  0.51961967  1
  Ti  Ti1  1  0.00000000  0.00000000  0.85295300  1
  Ti  Ti2  1  0.66666667  0.33333333  0.18628633  1
  Fe  Fe3  1  0.33333333  0.66666667  0.66891867  1
  Fe  Fe4  1  0.33333333  0.66666667  0.16778267  1
  Fe  Fe5  1  0.00000000  0.00000000  0.00225200  1
  Fe  Fe6  1  0.00000000  0.00000000  0.50111600  1
  Fe  Fe7  1  0.66666667  0.33333333  0.33558533  1
  Fe  Fe8  1  0.66666667  0.33333333  0.83444933  1
  Ni  Ni9  1  0.33333333  0.66666667  0.81144167  1
  Ni  Ni10  1  0.33333333  0.66666667  0.02433867  1
  Ni  Ni11  1  0.33333333  0.66666667  0.30975267  1
  Ni  Ni12  1  0.00000000  0.00000000  0.14477500  1
  Ni  Ni13  1  0.00000000  0.00000000  0.35767200  1
  Ni  Ni14  1  0.00000000  0.00000000  0.64308600  1
  Ni  Ni15  1  0.66666667  0.33333333  0.47810833  1
  Ni  Ni16  1  0.66666667  0.33333333  0.69100533  1
  Ni  Ni17  1  0.66666667  0.33333333  0.97641933  1
  P  P18  1  0.00105400  0.69985600  0.24983500  1
  P  P19  1  0.30014400  0.30119800  0.24983500  1
  P  P20  1  0.69880200  0.99894600  0.24983500  1
  P  P21  1  0.96661633  0.33375867  0.08230867  1
  P  P22  1  0.36714233  0.03338367  0.08230867  1
  P  P23  1  0.66624133  0.63285767  0.08230867  1
  P  P24  1  0.66772067  0.03318933  0.58316833  1
  P  P25  1  0.96681067  0.63453133  0.58316833  1
  P  P26  1  0.36546867  0.33227933  0.58316833  1
  P  P27  1  0.63328300  0.66709200  0.41564200  1
  P  P28  1  0.03380900  0.36671700  0.41564200  1
  P  P29  1  0.33290800  0.96619100  0.41564200  1
  P  P30  1  0.33438733  0.36652267  0.91650167  1
  P  P31  1  0.63347733  0.96786467  0.91650167  1
  P  P32  1  0.03213533  0.66561267  0.91650167  1
  P  P33  1  0.29994967  0.00042533  0.74897533  1
  P  P34  1  0.70047567  0.70005033  0.74897533  1
  P  P35  1  0.99957467  0.29952433  0.74897533  1
  O  O36  1  0.12121400  0.65387100  0.97953800  1
  O  O37  1  0.34612900  0.46734300  0.97953800  1
  O  O38  1  0.98996000  0.16829500  0.07202800  1
  O  O39  1  0.53265700  0.87878600  0.97953800  1
  O  O40  1  0.50939533  0.64347767  0.47523367  1
  O  O41  1  0.15135267  0.49802033  0.09981733  1
  O  O42  1  0.17833500  0.01004000  0.07202800  1
  O  O43  1  0.34666767  0.84864733  0.09981733  1
  O  O44  1  0.98385433  0.79191067  0.18968667  1
  O  O45  1  0.50197967  0.65333233  0.09981733  1
  O  O46  1  0.83412467  0.50445733  0.25970633  1
  O  O47  1  0.20808933  0.19194367  0.18968667  1
  O  O48  1  0.13408233  0.49060467  0.47523367  1
  O  O49  1  0.83170500  0.82166500  0.07202800  1
  O  O50  1  0.16192633  0.66901067  0.23743967  1
  O  O51  1  0.35652233  0.86591767  0.47523367  1
  O  O52  1  0.33098933  0.49291567  0.23743967  1
  O  O53  1  0.49554267  0.32966733  0.25970633  1
  O  O54  1  0.50708433  0.83807367  0.23743967  1
  O  O55  1  0.80805633  0.01614567  0.18968667  1
  O  O56  1  0.14183867  0.44990433  0.35378733  1
  O  O57  1  0.67033267  0.16587533  0.25970633  1
  O  O58  1  0.30806567  0.85816133  0.35378733  1
  O  O59  1  0.55009567  0.69193433  0.35378733  1
  O  O60  1  0.78788067  0.98720433  0.31287133  1
  O  O61  1  0.01279567  0.80067633  0.31287133  1
  O  O62  1  0.65662667  0.50162833  0.40536133  1
  O  O63  1  0.19932367  0.21211933  0.31287133  1
  O  O64  1  0.17606200  0.97681100  0.80856700  1
  O  O65  1  0.81801933  0.83135367  0.43315067  1
  O  O66  1  0.84500167  0.34337333  0.40536133  1
  O  O67  1  0.01333433  0.18198067  0.43315067  1
  O  O68  1  0.65052100  0.12524400  0.52302000  1
  O  O69  1  0.16864633  0.98666567  0.43315067  1
  O  O70  1  0.50079133  0.83779067  0.59303967  1
  O  O71  1  0.87475600  0.52527700  0.52302000  1
  O  O72  1  0.80074900  0.82393800  0.80856700  1
  O  O73  1  0.49837167  0.15499833  0.40536133  1
  O  O74  1  0.82859300  0.00234400  0.57077300  1
  O  O75  1  0.02318900  0.19925100  0.80856700  1
  O  O76  1  0.99765600  0.82624900  0.57077300  1
  O  O77  1  0.16220933  0.66300067  0.59303967  1
  O  O78  1  0.17375100  0.17140700  0.57077300  1
  O  O79  1  0.47472300  0.34947900  0.52302000  1
  O  O80  1  0.80850533  0.78323767  0.68712067  1
  O  O81  1  0.33699933  0.49920867  0.59303967  1
  O  O82  1  0.97473233  0.19149467  0.68712067  1
  O  O83  1  0.21676233  0.02526767  0.68712067  1
  O  O84  1  0.45454733  0.32053767  0.64620467  1
  O  O85  1  0.67946233  0.13400967  0.64620467  1
  O  O86  1  0.32329333  0.83496167  0.73869467  1
  O  O87  1  0.86599033  0.54545267  0.64620467  1
  O  O88  1  0.84272867  0.31014433  0.14190033  1
  O  O89  1  0.48468600  0.16468700  0.76648400  1
  O  O90  1  0.51166833  0.67670667  0.73869467  1
  O  O91  1  0.68000100  0.51531400  0.76648400  1
  O  O92  1  0.31718767  0.45857733  0.85635333  1
  O  O93  1  0.83531300  0.31999900  0.76648400  1
  O  O94  1  0.16745800  0.17112400  0.92637300  1
  O  O95  1  0.54142267  0.85861033  0.85635333  1
  O  O96  1  0.46741567  0.15727133  0.14190033  1
  O  O97  1  0.16503833  0.48833167  0.73869467  1
  O  O98  1  0.49525967  0.33567733  0.90410633  1
  O  O99  1  0.68985567  0.53258433  0.14190033  1
  O  O100  1  0.66432267  0.15958233  0.90410633  1
  O  O101  1  0.82887600  0.99633400  0.92637300  1
  O  O102  1  0.84041767  0.50474033  0.90410633  1
  O  O103  1  0.14138967  0.68281233  0.85635333  1
  O  O104  1  0.47517200  0.11657100  0.02045400  1
  O  O105  1  0.00366600  0.83254200  0.92637300  1
  O  O106  1  0.64139900  0.52482800  0.02045400  1
  O  O107  1  0.88342900  0.35860100  0.02045400  1
