# generated using pymatgen
data_Li4Ti3Mn3(CuO8)2
_symmetry_space_group_name_H-M   'P 1'
_cell_length_a   10.22992600
_cell_length_b   5.82672400
_cell_length_c   9.70629880
_cell_angle_alpha   90.00000000
_cell_angle_beta   90.02333436
_cell_angle_gamma   90.00000000
_symmetry_Int_Tables_number   1
_chemical_formula_structural   Li4Ti3Mn3(CuO8)2
_chemical_formula_sum   'Li8 Ti6 Mn6 Cu4 O32'
_cell_volume   578.56287143
_cell_formula_units_Z   2
loop_
 _symmetry_equiv_pos_site_id
 _symmetry_equiv_pos_as_xyz
  1  'x, y, z'
loop_
 _atom_site_type_symbol
 _atom_site_label
 _atom_site_symmetry_multiplicity
 _atom_site_fract_x
 _atom_site_fract_y
 _atom_site_fract_z
 _atom_site_occupancy
  Li  Li0  1  0.82402000  0.50000000  0.10937200  1
  Li  Li1  1  0.51243300  0.50000000  0.00395700  1
  Li  Li2  1  0.99925400  0.00000000  0.50171500  1
  Li  Li3  1  0.66971000  0.00000000  0.60615500  1
  Li  Li4  1  0.32402000  0.00000000  0.10937200  1
  Li  Li5  1  0.01243300  0.00000000  0.00395700  1
  Li  Li6  1  0.49925400  0.50000000  0.50171500  1
  Li  Li7  1  0.16971000  0.50000000  0.60615500  1
  Ti  Ti8  1  0.92646250  0.74520150  0.78678400  1
  Ti  Ti9  1  0.92646250  0.25479850  0.78678400  1
  Ti  Ti10  1  0.82103300  0.00000000  0.28687200  1
  Ti  Ti11  1  0.42646250  0.24520150  0.78678400  1
  Ti  Ti12  1  0.42646250  0.75479850  0.78678400  1
  Ti  Ti13  1  0.32103300  0.50000000  0.28687200  1
  Mn  Mn14  1  0.67774500  0.50000000  0.78343400  1
  Mn  Mn15  1  0.57462350  0.24633350  0.28526500  1
  Mn  Mn16  1  0.57462350  0.75366650  0.28526500  1
  Mn  Mn17  1  0.17774500  0.00000000  0.78343400  1
  Mn  Mn18  1  0.07462350  0.74633350  0.28526500  1
  Mn  Mn19  1  0.07462350  0.25366650  0.28526500  1
  Cu  Cu20  1  0.83131800  0.50000000  0.50875100  1
  Cu  Cu21  1  0.66814000  0.00000000  0.00990000  1
  Cu  Cu22  1  0.33131800  0.00000000  0.50875100  1
  Cu  Cu23  1  0.16814000  0.50000000  0.00990000  1
  O  O24  1  0.91209800  0.76070900  0.39624600  1
  O  O25  1  0.99563100  0.50000000  0.67968400  1
  O  O26  1  0.83660900  0.50000000  0.89442400  1
  O  O27  1  0.51378200  0.50000000  0.68516500  1
  O  O28  1  0.99199700  0.00000000  0.18769300  1
  O  O29  1  0.91209800  0.23929100  0.39624600  1
  O  O30  1  0.76655150  0.71943150  0.66362600  1
  O  O31  1  0.76655150  0.28056850  0.66362600  1
  O  O32  1  0.85276300  0.00000000  0.89107600  1
  O  O33  1  0.64939500  0.50000000  0.38629500  1
  O  O34  1  0.72996850  0.22022550  0.16523200  1
  O  O35  1  0.72996850  0.77977450  0.16523200  1
  O  O36  1  0.65674600  0.00000000  0.39305300  1
  O  O37  1  0.58999450  0.26212650  0.89520200  1
  O  O38  1  0.50325600  0.00000000  0.17708500  1
  O  O39  1  0.58999450  0.73787350  0.89520200  1
  O  O40  1  0.41209800  0.26070900  0.39624600  1
  O  O41  1  0.49563100  0.00000000  0.67968400  1
  O  O42  1  0.33660900  0.00000000  0.89442400  1
  O  O43  1  0.01378200  0.00000000  0.68516500  1
  O  O44  1  0.49199700  0.50000000  0.18769300  1
  O  O45  1  0.41209800  0.73929100  0.39624600  1
  O  O46  1  0.26655150  0.21943150  0.66362600  1
  O  O47  1  0.26655150  0.78056850  0.66362600  1
  O  O48  1  0.35276300  0.50000000  0.89107600  1
  O  O49  1  0.14939500  0.00000000  0.38629500  1
  O  O50  1  0.22996850  0.72022550  0.16523200  1
  O  O51  1  0.22996850  0.27977450  0.16523200  1
  O  O52  1  0.15674600  0.50000000  0.39305300  1
  O  O53  1  0.08999450  0.76212650  0.89520200  1
  O  O54  1  0.00325600  0.50000000  0.17708500  1
  O  O55  1  0.08999450  0.23787350  0.89520200  1
