# generated using pymatgen
data_Li3MnFe2(BO3)3
_symmetry_space_group_name_H-M   'P 1'
_cell_length_a   16.49830400
_cell_length_b   6.30263800
_cell_length_c   8.25457409
_cell_angle_alpha   90.00000000
_cell_angle_beta   119.88496447
_cell_angle_gamma   90.00000000
_symmetry_Int_Tables_number   1
_chemical_formula_structural   Li3MnFe2(BO3)3
_chemical_formula_sum   'Li12 Mn4 Fe8 B12 O36'
_cell_volume   744.19924258
_cell_formula_units_Z   4
loop_
 _symmetry_equiv_pos_site_id
 _symmetry_equiv_pos_as_xyz
  1  'x, y, z'
loop_
 _atom_site_type_symbol
 _atom_site_label
 _atom_site_symmetry_multiplicity
 _atom_site_fract_x
 _atom_site_fract_y
 _atom_site_fract_z
 _atom_site_occupancy
  Li  Li0  1  0.00854850  0.74838950  0.30144200  1
  Li  Li1  1  0.00854850  0.25161050  0.30144200  1
  Li  Li2  1  0.34925250  0.24867950  0.71584500  1
  Li  Li3  1  0.34925250  0.75132050  0.71584500  1
  Li  Li4  1  0.14270500  0.74952500  0.98402500  1
  Li  Li5  1  0.14270500  0.25047500  0.98402500  1
  Li  Li6  1  0.50854850  0.24838950  0.30144200  1
  Li  Li7  1  0.50854850  0.75161050  0.30144200  1
  Li  Li8  1  0.84925250  0.74867950  0.71584500  1
  Li  Li9  1  0.84925250  0.25132050  0.71584500  1
  Li  Li10  1  0.64270500  0.24952500  0.98402500  1
  Li  Li11  1  0.64270500  0.75047500  0.98402500  1
  Mn  Mn12  1  0.32048300  0.50000000  0.01261600  1
  Mn  Mn13  1  0.49383000  0.50000000  0.62883900  1
  Mn  Mn14  1  0.82048300  0.00000000  0.01261600  1
  Mn  Mn15  1  0.99383000  0.00000000  0.62883900  1
  Fe  Fe16  1  0.31916300  0.00000000  0.00746100  1
  Fe  Fe17  1  0.49620200  0.00000000  0.63153500  1
  Fe  Fe18  1  0.18311100  0.00000000  0.35874100  1
  Fe  Fe19  1  0.18409300  0.50000000  0.36007300  1
  Fe  Fe20  1  0.81916300  0.50000000  0.00746100  1
  Fe  Fe21  1  0.99620200  0.50000000  0.63153500  1
  Fe  Fe22  1  0.68311100  0.50000000  0.35874100  1
  Fe  Fe23  1  0.68409300  0.00000000  0.36007300  1
  B  B24  1  0.16663550  0.25010250  0.66512300  1
  B  B25  1  0.16663550  0.74989750  0.66512300  1
  B  B26  1  0.33278050  0.24735750  0.33393000  1
  B  B27  1  0.33278050  0.75264250  0.33393000  1
  B  B28  1  0.00134300  0.00000000  0.00076100  1
  B  B29  1  0.00002400  0.50000000  0.00024700  1
  B  B30  1  0.66663550  0.75010250  0.66512300  1
  B  B31  1  0.66663550  0.24989750  0.66512300  1
  B  B32  1  0.83278050  0.74735750  0.33393000  1
  B  B33  1  0.83278050  0.25264250  0.33393000  1
  B  B34  1  0.50134300  0.50000000  0.00076100  1
  B  B35  1  0.50002400  0.00000000  0.00024700  1
  O  O36  1  0.04304300  0.50000000  0.19412400  1
  O  O37  1  0.04134100  0.00000000  0.19509000  1
  O  O38  1  0.20981000  0.74997300  0.55700500  1
  O  O39  1  0.20981000  0.25002700  0.55700500  1
  O  O40  1  0.40429800  0.50000000  0.88694400  1
  O  O41  1  0.40261500  0.00000000  0.89249100  1
  O  O42  1  0.06954600  0.25364500  0.57936600  1
  O  O43  1  0.06954600  0.74635500  0.57936600  1
  O  O44  1  0.22055950  0.75322650  0.85943600  1
  O  O45  1  0.22055950  0.24677350  0.85943600  1
  O  O46  1  0.37338350  0.24655550  0.22059700  1
  O  O47  1  0.37338350  0.75344450  0.22059700  1
  O  O48  1  0.05395900  0.50000000  0.91301500  1
  O  O49  1  0.05869500  0.00000000  0.92162700  1
  O  O50  1  0.23596200  0.25005700  0.25386900  1
  O  O51  1  0.23596200  0.74994300  0.25386900  1
  O  O52  1  0.38970750  0.24667550  0.52757900  1
  O  O53  1  0.38970750  0.75332450  0.52757900  1
  O  O54  1  0.54304300  0.00000000  0.19412400  1
  O  O55  1  0.54134100  0.50000000  0.19509000  1
  O  O56  1  0.70981000  0.24997300  0.55700500  1
  O  O57  1  0.70981000  0.75002700  0.55700500  1
  O  O58  1  0.90429800  0.00000000  0.88694400  1
  O  O59  1  0.90261500  0.50000000  0.89249100  1
  O  O60  1  0.56954600  0.75364500  0.57936600  1
  O  O61  1  0.56954600  0.24635500  0.57936600  1
  O  O62  1  0.72055950  0.25322650  0.85943600  1
  O  O63  1  0.72055950  0.74677350  0.85943600  1
  O  O64  1  0.87338350  0.74655550  0.22059700  1
  O  O65  1  0.87338350  0.25344450  0.22059700  1
  O  O66  1  0.55395900  0.00000000  0.91301500  1
  O  O67  1  0.55869500  0.50000000  0.92162700  1
  O  O68  1  0.73596200  0.75005700  0.25386900  1
  O  O69  1  0.73596200  0.24994300  0.25386900  1
  O  O70  1  0.88970750  0.74667550  0.52757900  1
  O  O71  1  0.88970750  0.25332450  0.52757900  1
