# generated using pymatgen
data_Na2Si(H3O2)6
_symmetry_space_group_name_H-M   'P 1'
_cell_length_a   11.52745200
_cell_length_b   11.72339200
_cell_length_c   16.92326800
_cell_angle_alpha   90.00000000
_cell_angle_beta   90.00000000
_cell_angle_gamma   90.00000000
_symmetry_Int_Tables_number   1
_chemical_formula_structural   Na2Si(H3O2)6
_chemical_formula_sum   'Na16 Si8 H144 O96'
_cell_volume   2287.02462865
_cell_formula_units_Z   8
loop_
 _symmetry_equiv_pos_site_id
 _symmetry_equiv_pos_as_xyz
  1  'x, y, z'
loop_
 _atom_site_type_symbol
 _atom_site_label
 _atom_site_symmetry_multiplicity
 _atom_site_fract_x
 _atom_site_fract_y
 _atom_site_fract_z
 _atom_site_occupancy
  Na  Na0  1  0.58999250  0.37627750  0.81622050  1
  Na  Na1  1  0.41000750  0.87627750  0.68377950  1
  Na  Na2  1  0.41000750  0.12372250  0.81622050  1
  Na  Na3  1  0.58999250  0.62372250  0.68377950  1
  Na  Na4  1  0.91000750  0.12372250  0.68377950  1
  Na  Na5  1  0.08999250  0.62372250  0.81622050  1
  Na  Na6  1  0.08999250  0.37627750  0.68377950  1
  Na  Na7  1  0.91000750  0.87627750  0.81622050  1
  Na  Na8  1  0.08999250  0.87627750  0.31622050  1
  Na  Na9  1  0.91000750  0.37627750  0.18377950  1
  Na  Na10  1  0.91000750  0.62372250  0.31622050  1
  Na  Na11  1  0.08999250  0.12372250  0.18377950  1
  Na  Na12  1  0.41000750  0.62372250  0.18377950  1
  Na  Na13  1  0.58999250  0.12372250  0.31622050  1
  Na  Na14  1  0.58999250  0.87627750  0.18377950  1
  Na  Na15  1  0.41000750  0.37627750  0.31622050  1
  Si  Si16  1  0.75000000  0.12861700  0.00000000  1
  Si  Si17  1  0.25000000  0.37138300  0.00000000  1
  Si  Si18  1  0.25000000  0.87138300  0.00000000  1
  Si  Si19  1  0.75000000  0.62861700  0.00000000  1
  Si  Si20  1  0.25000000  0.62861700  0.50000000  1
  Si  Si21  1  0.75000000  0.87138300  0.50000000  1
  Si  Si22  1  0.75000000  0.37138300  0.50000000  1
  Si  Si23  1  0.25000000  0.12861700  0.50000000  1
  H  H24  1  0.88132200  0.26809600  0.97599600  1
  H  H25  1  0.11867800  0.76809600  0.52400400  1
  H  H26  1  0.11867800  0.23190400  0.97599600  1
  H  H27  1  0.88132200  0.73190400  0.52400400  1
  H  H28  1  0.61867800  0.23190400  0.52400400  1
  H  H29  1  0.38132200  0.73190400  0.97599600  1
  H  H30  1  0.38132200  0.26809600  0.52400400  1
  H  H31  1  0.61867800  0.76809600  0.97599600  1
  H  H32  1  0.48342900  0.39838700  0.96216200  1
  H  H33  1  0.51657100  0.89838700  0.53783800  1
  H  H34  1  0.51657100  0.10161300  0.96216200  1
  H  H35  1  0.48342900  0.60161300  0.53783800  1
  H  H36  1  0.01657100  0.10161300  0.53783800  1
  H  H37  1  0.98342900  0.60161300  0.96216200  1
  H  H38  1  0.98342900  0.39838700  0.53783800  1
  H  H39  1  0.01657100  0.89838700  0.96216200  1
  H  H40  1  0.60332650  0.44396550  0.99587250  1
  H  H41  1  0.39667350  0.94396550  0.50412750  1
  H  H42  1  0.39667350  0.05603450  0.99587250  1
  H  H43  1  0.60332650  0.55603450  0.50412750  1
  H  H44  1  0.89667350  0.05603450  0.50412750  1
  H  H45  1  0.10332650  0.55603450  0.99587250  1
  H  H46  1  0.10332650  0.44396550  0.50412750  1
  H  H47  1  0.89667350  0.94396550  0.99587250  1
  H  H48  1  0.80868300  0.45572200  0.87853500  1
  H  H49  1  0.19131700  0.95572200  0.62146500  1
  H  H50  1  0.19131700  0.04427800  0.87853500  1
  H  H51  1  0.80868300  0.54427800  0.62146500  1
  H  H52  1  0.69131700  0.04427800  0.62146500  1
  H  H53  1  0.30868300  0.54427800  0.87853500  1
  H  H54  1  0.30868300  0.45572200  0.62146500  1
  H  H55  1  0.69131700  0.95572200  0.87853500  1
  H  H56  1  0.80203750  0.32098550  0.87180750  1
  H  H57  1  0.19796250  0.82098550  0.62819250  1
  H  H58  1  0.19796250  0.17901450  0.87180750  1
  H  H59  1  0.80203750  0.67901450  0.62819250  1
  H  H60  1  0.69796250  0.17901450  0.62819250  1
  H  H61  1  0.30203750  0.67901450  0.87180750  1
  H  H62  1  0.30203750  0.32098550  0.62819250  1
  H  H63  1  0.69796250  0.82098550  0.87180750  1
  H  H64  1  0.90787500  0.13163900  0.86597000  1
  H  H65  1  0.09212500  0.63163900  0.63403000  1
  H  H66  1  0.09212500  0.36836100  0.86597000  1
  H  H67  1  0.90787500  0.86836100  0.63403000  1
  H  H68  1  0.59212500  0.36836100  0.63403000  1
  H  H69  1  0.40787500  0.86836100  0.86597000  1
  H  H70  1  0.40787500  0.13163900  0.63403000  1
  H  H71  1  0.59212500  0.63163900  0.86597000  1
  H  H72  1  0.02778250  0.09758350  0.82911350  1
  H  H73  1  0.97221750  0.59758350  0.67088650  1
  H  H74  1  0.97221750  0.40241650  0.82911350  1
  H  H75  1  0.02778250  0.90241650  0.67088650  1
  H  H76  1  0.47221750  0.40241650  0.67088650  1
  H  H77  1  0.52778250  0.90241650  0.82911350  1
  H  H78  1  0.52778250  0.09758350  0.67088650  1
  H  H79  1  0.47221750  0.59758350  0.82911350  1
  H  H80  1  0.64289750  0.12896650  0.85759850  1
  H  H81  1  0.35710250  0.62896650  0.64240150  1
  H  H82  1  0.35710250  0.37103350  0.85759850  1
  H  H83  1  0.64289750  0.87103350  0.64240150  1
  H  H84  1  0.85710250  0.37103350  0.64240150  1
  H  H85  1  0.14289750  0.87103350  0.85759850  1
  H  H86  1  0.14289750  0.12896650  0.64240150  1
  H  H87  1  0.85710250  0.62896650  0.85759850  1
  H  H88  1  0.65435700  0.14196700  0.76351000  1
  H  H89  1  0.34564300  0.64196700  0.73649000  1
  H  H90  1  0.34564300  0.35803300  0.76351000  1
  H  H91  1  0.65435700  0.85803300  0.73649000  1
  H  H92  1  0.84564300  0.35803300  0.73649000  1
  H  H93  1  0.15435700  0.85803300  0.76351000  1
  H  H94  1  0.15435700  0.14196700  0.73649000  1
  H  H95  1  0.84564300  0.64196700  0.76351000  1
  H  H96  1  0.38132200  0.76809600  0.47599600  1
  H  H97  1  0.61867800  0.26809600  0.02400400  1
  H  H98  1  0.61867800  0.73190400  0.47599600  1
  H  H99  1  0.38132200  0.23190400  0.02400400  1
  H  H100  1  0.11867800  0.73190400  0.02400400  1
  H  H101  1  0.88132200  0.23190400  0.47599600  1
  H  H102  1  0.88132200  0.76809600  0.02400400  1
  H  H103  1  0.11867800  0.26809600  0.47599600  1
  H  H104  1  0.98342900  0.89838700  0.46216200  1
  H  H105  1  0.01657100  0.39838700  0.03783800  1
  H  H106  1  0.01657100  0.60161300  0.46216200  1
  H  H107  1  0.98342900  0.10161300  0.03783800  1
  H  H108  1  0.51657100  0.60161300  0.03783800  1
  H  H109  1  0.48342900  0.10161300  0.46216200  1
  H  H110  1  0.48342900  0.89838700  0.03783800  1
  H  H111  1  0.51657100  0.39838700  0.46216200  1
  H  H112  1  0.10332650  0.94396550  0.49587250  1
  H  H113  1  0.89667350  0.44396550  0.00412750  1
  H  H114  1  0.89667350  0.55603450  0.49587250  1
  H  H115  1  0.10332650  0.05603450  0.00412750  1
  H  H116  1  0.39667350  0.55603450  0.00412750  1
  H  H117  1  0.60332650  0.05603450  0.49587250  1
  H  H118  1  0.60332650  0.94396550  0.00412750  1
  H  H119  1  0.39667350  0.44396550  0.49587250  1
  H  H120  1  0.30868300  0.95572200  0.37853500  1
  H  H121  1  0.69131700  0.45572200  0.12146500  1
  H  H122  1  0.69131700  0.54427800  0.37853500  1
  H  H123  1  0.30868300  0.04427800  0.12146500  1
  H  H124  1  0.19131700  0.54427800  0.12146500  1
  H  H125  1  0.80868300  0.04427800  0.37853500  1
  H  H126  1  0.80868300  0.95572200  0.12146500  1
  H  H127  1  0.19131700  0.45572200  0.37853500  1
  H  H128  1  0.30203750  0.82098550  0.37180750  1
  H  H129  1  0.69796250  0.32098550  0.12819250  1
  H  H130  1  0.69796250  0.67901450  0.37180750  1
  H  H131  1  0.30203750  0.17901450  0.12819250  1
  H  H132  1  0.19796250  0.67901450  0.12819250  1
  H  H133  1  0.80203750  0.17901450  0.37180750  1
  H  H134  1  0.80203750  0.82098550  0.12819250  1
  H  H135  1  0.19796250  0.32098550  0.37180750  1
  H  H136  1  0.40787500  0.63163900  0.36597000  1
  H  H137  1  0.59212500  0.13163900  0.13403000  1
  H  H138  1  0.59212500  0.86836100  0.36597000  1
  H  H139  1  0.40787500  0.36836100  0.13403000  1
  H  H140  1  0.09212500  0.86836100  0.13403000  1
  H  H141  1  0.90787500  0.36836100  0.36597000  1
  H  H142  1  0.90787500  0.63163900  0.13403000  1
  H  H143  1  0.09212500  0.13163900  0.36597000  1
  H  H144  1  0.52778250  0.59758350  0.32911350  1
  H  H145  1  0.47221750  0.09758350  0.17088650  1
  H  H146  1  0.47221750  0.90241650  0.32911350  1
  H  H147  1  0.52778250  0.40241650  0.17088650  1
  H  H148  1  0.97221750  0.90241650  0.17088650  1
  H  H149  1  0.02778250  0.40241650  0.32911350  1
  H  H150  1  0.02778250  0.59758350  0.17088650  1
  H  H151  1  0.97221750  0.09758350  0.32911350  1
  H  H152  1  0.14289750  0.62896650  0.35759850  1
  H  H153  1  0.85710250  0.12896650  0.14240150  1
  H  H154  1  0.85710250  0.87103350  0.35759850  1
  H  H155  1  0.14289750  0.37103350  0.14240150  1
  H  H156  1  0.35710250  0.87103350  0.14240150  1
  H  H157  1  0.64289750  0.37103350  0.35759850  1
  H  H158  1  0.64289750  0.62896650  0.14240150  1
  H  H159  1  0.35710250  0.12896650  0.35759850  1
  H  H160  1  0.15435700  0.64196700  0.26351000  1
  H  H161  1  0.84564300  0.14196700  0.23649000  1
  H  H162  1  0.84564300  0.85803300  0.26351000  1
  H  H163  1  0.15435700  0.35803300  0.23649000  1
  H  H164  1  0.34564300  0.85803300  0.23649000  1
  H  H165  1  0.65435700  0.35803300  0.26351000  1
  H  H166  1  0.65435700  0.64196700  0.23649000  1
  H  H167  1  0.34564300  0.14196700  0.26351000  1
  O  O168  1  0.83272950  0.21473250  0.94303650  1
  O  O169  1  0.16727050  0.71473250  0.55696350  1
  O  O170  1  0.16727050  0.28526750  0.94303650  1
  O  O171  1  0.83272950  0.78526750  0.55696350  1
  O  O172  1  0.66727050  0.28526750  0.55696350  1
  O  O173  1  0.33272950  0.78526750  0.94303650  1
  O  O174  1  0.33272950  0.21473250  0.55696350  1
  O  O175  1  0.66727050  0.71473250  0.94303650  1
  O  O176  1  0.66382250  0.05620350  0.94344350  1
  O  O177  1  0.33617750  0.55620350  0.55655650  1
  O  O178  1  0.33617750  0.44379650  0.94344350  1
  O  O179  1  0.66382250  0.94379650  0.55655650  1
  O  O180  1  0.83617750  0.44379650  0.55655650  1
  O  O181  1  0.16382250  0.94379650  0.94344350  1
  O  O182  1  0.16382250  0.05620350  0.55655650  1
  O  O183  1  0.83617750  0.55620350  0.94344350  1
  O  O184  1  0.56740400  0.37858900  0.96701800  1
  O  O185  1  0.43259600  0.87858900  0.53298200  1
  O  O186  1  0.43259600  0.12141100  0.96701800  1
  O  O187  1  0.56740400  0.62141100  0.53298200  1
  O  O188  1  0.93259600  0.12141100  0.53298200  1
  O  O189  1  0.06740400  0.62141100  0.96701800  1
  O  O190  1  0.06740400  0.37858900  0.53298200  1
  O  O191  1  0.93259600  0.87858900  0.96701800  1
  O  O192  1  0.80254150  0.39118850  0.83881650  1
  O  O193  1  0.19745850  0.89118850  0.66118350  1
  O  O194  1  0.19745850  0.10881150  0.83881650  1
  O  O195  1  0.80254150  0.60881150  0.66118350  1
  O  O196  1  0.69745850  0.10881150  0.66118350  1
  O  O197  1  0.30254150  0.60881150  0.83881650  1
  O  O198  1  0.30254150  0.39118850  0.66118350  1
  O  O199  1  0.69745850  0.89118850  0.83881650  1
  O  O200  1  0.94348000  0.08569000  0.82336100  1
  O  O201  1  0.05652000  0.58569000  0.67663900  1
  O  O202  1  0.05652000  0.41431000  0.82336100  1
  O  O203  1  0.94348000  0.91431000  0.67663900  1
  O  O204  1  0.55652000  0.41431000  0.67663900  1
  O  O205  1  0.44348000  0.91431000  0.82336100  1
  O  O206  1  0.44348000  0.08569000  0.67663900  1
  O  O207  1  0.55652000  0.58569000  0.82336100  1
  O  O208  1  0.61593350  0.17358550  0.81064850  1
  O  O209  1  0.38406650  0.67358550  0.68935150  1
  O  O210  1  0.38406650  0.32641450  0.81064850  1
  O  O211  1  0.61593350  0.82641450  0.68935150  1
  O  O212  1  0.88406650  0.32641450  0.68935150  1
  O  O213  1  0.11593350  0.82641450  0.81064850  1
  O  O214  1  0.11593350  0.17358550  0.68935150  1
  O  O215  1  0.88406650  0.67358550  0.81064850  1
  O  O216  1  0.33272950  0.71473250  0.44303650  1
  O  O217  1  0.66727050  0.21473250  0.05696350  1
  O  O218  1  0.66727050  0.78526750  0.44303650  1
  O  O219  1  0.33272950  0.28526750  0.05696350  1
  O  O220  1  0.16727050  0.78526750  0.05696350  1
  O  O221  1  0.83272950  0.28526750  0.44303650  1
  O  O222  1  0.83272950  0.71473250  0.05696350  1
  O  O223  1  0.16727050  0.21473250  0.44303650  1
  O  O224  1  0.16382250  0.55620350  0.44344350  1
  O  O225  1  0.83617750  0.05620350  0.05655650  1
  O  O226  1  0.83617750  0.94379650  0.44344350  1
  O  O227  1  0.16382250  0.44379650  0.05655650  1
  O  O228  1  0.33617750  0.94379650  0.05655650  1
  O  O229  1  0.66382250  0.44379650  0.44344350  1
  O  O230  1  0.66382250  0.55620350  0.05655650  1
  O  O231  1  0.33617750  0.05620350  0.44344350  1
  O  O232  1  0.06740400  0.87858900  0.46701800  1
  O  O233  1  0.93259600  0.37858900  0.03298200  1
  O  O234  1  0.93259600  0.62141100  0.46701800  1
  O  O235  1  0.06740400  0.12141100  0.03298200  1
  O  O236  1  0.43259600  0.62141100  0.03298200  1
  O  O237  1  0.56740400  0.12141100  0.46701800  1
  O  O238  1  0.56740400  0.87858900  0.03298200  1
  O  O239  1  0.43259600  0.37858900  0.46701800  1
  O  O240  1  0.30254150  0.89118850  0.33881650  1
  O  O241  1  0.69745850  0.39118850  0.16118350  1
  O  O242  1  0.69745850  0.60881150  0.33881650  1
  O  O243  1  0.30254150  0.10881150  0.16118350  1
  O  O244  1  0.19745850  0.60881150  0.16118350  1
  O  O245  1  0.80254150  0.10881150  0.33881650  1
  O  O246  1  0.80254150  0.89118850  0.16118350  1
  O  O247  1  0.19745850  0.39118850  0.33881650  1
  O  O248  1  0.44348000  0.58569000  0.32336100  1
  O  O249  1  0.55652000  0.08569000  0.17663900  1
  O  O250  1  0.55652000  0.91431000  0.32336100  1
  O  O251  1  0.44348000  0.41431000  0.17663900  1
  O  O252  1  0.05652000  0.91431000  0.17663900  1
  O  O253  1  0.94348000  0.41431000  0.32336100  1
  O  O254  1  0.94348000  0.58569000  0.17663900  1
  O  O255  1  0.05652000  0.08569000  0.32336100  1
  O  O256  1  0.11593350  0.67358550  0.31064850  1
  O  O257  1  0.88406650  0.17358550  0.18935150  1
  O  O258  1  0.88406650  0.82641450  0.31064850  1
  O  O259  1  0.11593350  0.32641450  0.18935150  1
  O  O260  1  0.38406650  0.82641450  0.18935150  1
  O  O261  1  0.61593350  0.32641450  0.31064850  1
  O  O262  1  0.61593350  0.67358550  0.18935150  1
  O  O263  1  0.38406650  0.17358550  0.31064850  1
