# generated using pymatgen
data_LiCuF2
_symmetry_space_group_name_H-M   'P 1'
_cell_length_a   2.95382419
_cell_length_b   2.95382419
_cell_length_c   17.60755010
_cell_angle_alpha   90.00000000
_cell_angle_beta   90.00000000
_cell_angle_gamma   120.00000000
_symmetry_Int_Tables_number   1
_chemical_formula_structural   LiCuF2
_chemical_formula_sum   'Li3 Cu3 F6'
_cell_volume   133.04508957
_cell_formula_units_Z   3
loop_
 _symmetry_equiv_pos_site_id
 _symmetry_equiv_pos_as_xyz
  1  'x, y, z'
loop_
 _atom_site_type_symbol
 _atom_site_label
 _atom_site_symmetry_multiplicity
 _atom_site_fract_x
 _atom_site_fract_y
 _atom_site_fract_z
 _atom_site_occupancy
  Li  Li0  1  0.33333333  0.66666667  0.16666667  1
  Li  Li1  1  1.00000000  1.00000000  0.50000000  1
  Li  Li2  1  0.66666667  0.33333333  0.83333333  1
  Cu  Cu3  1  0.00000000  0.00000000  0.00000000  1
  Cu  Cu4  1  0.66666667  0.33333333  0.33333333  1
  Cu  Cu5  1  0.33333333  0.66666667  0.66666667  1
  F  F6  1  0.66666667  0.33333333  0.22835333  1
  F  F7  1  0.00000000  0.00000000  0.10498000  1
  F  F8  1  0.33333333  0.66666667  0.56168667  1
  F  F9  1  0.66666667  0.33333333  0.43831333  1
  F  F10  1  0.00000000  0.00000000  0.89502000  1
  F  F11  1  0.33333333  0.66666667  0.77164667  1
