# generated using pymatgen
data_Li2Fe3WO8
_symmetry_space_group_name_H-M   'P 1'
_cell_length_a   12.22738000
_cell_length_b   12.16305000
_cell_length_c   8.61432271
_cell_angle_alpha   90.00000000
_cell_angle_beta   90.29048010
_cell_angle_gamma   90.00000000
_symmetry_Int_Tables_number   1
_chemical_formula_structural   Li2Fe3WO8
_chemical_formula_sum   'Li16 Fe24 W8 O64'
_cell_volume   1281.12485545
_cell_formula_units_Z   8
loop_
 _symmetry_equiv_pos_site_id
 _symmetry_equiv_pos_as_xyz
  1  'x, y, z'
loop_
 _atom_site_type_symbol
 _atom_site_label
 _atom_site_symmetry_multiplicity
 _atom_site_fract_x
 _atom_site_fract_y
 _atom_site_fract_z
 _atom_site_occupancy
  Li  Li0  1  0.12581750  0.87736450  0.62453200  1
  Li  Li1  1  0.62205250  0.12418050  0.87883700  1
  Li  Li2  1  0.37191900  0.87374500  0.37209400  1
  Li  Li3  1  0.62808100  0.87374500  0.62790600  1
  Li  Li4  1  0.87373700  0.12449500  0.12820800  1
  Li  Li5  1  0.12626300  0.12449500  0.87179200  1
  Li  Li6  1  0.87418250  0.87736450  0.37546800  1
  Li  Li7  1  0.37794750  0.12418050  0.12116300  1
  Li  Li8  1  0.62581750  0.37736450  0.62453200  1
  Li  Li9  1  0.12205250  0.62418050  0.87883700  1
  Li  Li10  1  0.87191900  0.37374500  0.37209400  1
  Li  Li11  1  0.12808100  0.37374500  0.62790600  1
  Li  Li12  1  0.37373700  0.62449500  0.12820800  1
  Li  Li13  1  0.62626300  0.62449500  0.87179200  1
  Li  Li14  1  0.37418250  0.37736450  0.37546800  1
  Li  Li15  1  0.87794750  0.62418050  0.12116300  1
  Fe  Fe16  1  0.37194700  0.00241600  0.75814100  1
  Fe  Fe17  1  0.25310150  0.87768250  0.00560400  1
  Fe  Fe18  1  0.63386850  0.25467950  0.24790000  1
  Fe  Fe19  1  0.50000000  0.88351300  0.00000000  1
  Fe  Fe20  1  0.62805300  0.00241600  0.24185900  1
  Fe  Fe21  1  0.75499150  0.12184550  0.49215700  1
  Fe  Fe22  1  0.74689850  0.87768250  0.99439600  1
  Fe  Fe23  1  0.87256750  0.99558550  0.74305700  1
  Fe  Fe24  1  0.50000000  0.61992800  0.50000000  1
  Fe  Fe25  1  0.36613150  0.25467950  0.75210000  1
  Fe  Fe26  1  0.24500850  0.12184550  0.50784300  1
  Fe  Fe27  1  0.12743250  0.99558550  0.25694300  1
  Fe  Fe28  1  0.87194700  0.50241600  0.75814100  1
  Fe  Fe29  1  0.75310150  0.37768250  0.00560400  1
  Fe  Fe30  1  0.13386850  0.75467950  0.24790000  1
  Fe  Fe31  1  0.00000000  0.38351300  0.00000000  1
  Fe  Fe32  1  0.12805300  0.50241600  0.24185900  1
  Fe  Fe33  1  0.25499150  0.62184550  0.49215700  1
  Fe  Fe34  1  0.24689850  0.37768250  0.99439600  1
  Fe  Fe35  1  0.37256750  0.49558550  0.74305700  1
  Fe  Fe36  1  0.00000000  0.11992800  0.50000000  1
  Fe  Fe37  1  0.86613150  0.75467950  0.75210000  1
  Fe  Fe38  1  0.74500850  0.62184550  0.50784300  1
  Fe  Fe39  1  0.62743250  0.49558550  0.25694300  1
  W  W40  1  0.50000000  0.12534000  0.50000000  1
  W  W41  1  0.37345550  0.74837150  0.75285200  1
  W  W42  1  0.62654450  0.74837150  0.24714800  1
  W  W43  1  0.50000000  0.37548100  0.00000000  1
  W  W44  1  0.00000000  0.62534000  0.50000000  1
  W  W45  1  0.87345550  0.24837150  0.75285200  1
  W  W46  1  0.12654450  0.24837150  0.24714800  1
  W  W47  1  0.00000000  0.87548100  0.00000000  1
  O  O48  1  0.49317450  0.12142250  0.72634800  1
  O  O49  1  0.38120700  0.01563400  0.50645400  1
  O  O50  1  0.23840650  0.86951950  0.24766700  1
  O  O51  1  0.26936000  0.87086700  0.74576900  1
  O  O52  1  0.61664950  0.26159550  0.01151400  1
  O  O53  1  0.37984450  0.98913350  0.98708800  1
  O  O54  1  0.50682550  0.12142250  0.27365200  1
  O  O55  1  0.61684650  0.23491450  0.49285400  1
  O  O56  1  0.48450000  0.87066200  0.75816100  1
  O  O57  1  0.38140150  0.75344050  0.97595000  1
  O  O58  1  0.73612800  0.12375000  0.26235300  1
  O  O59  1  0.51550000  0.87066200  0.24183900  1
  O  O60  1  0.61879300  0.01563400  0.49354600  1
  O  O61  1  0.62015550  0.98913350  0.01291200  1
  O  O62  1  0.75942750  0.13955950  0.73778300  1
  O  O63  1  0.37488600  0.74145200  0.51988800  1
  O  O64  1  0.61859850  0.75344050  0.02405000  1
  O  O65  1  0.73064000  0.87086700  0.25423100  1
  O  O66  1  0.87527550  0.01620650  0.50356200  1
  O  O67  1  0.88644350  0.98523650  0.99682800  1
  O  O68  1  0.48907600  0.63906300  0.73616600  1
  O  O69  1  0.76159350  0.86951950  0.75233300  1
  O  O70  1  0.62511400  0.74145200  0.48011200  1
  O  O71  1  0.51092400  0.63906300  0.26383400  1
  O  O72  1  0.38335050  0.26159550  0.98848600  1
  O  O73  1  0.49610350  0.36554650  0.77267700  1
  O  O74  1  0.12472450  0.01620650  0.49643800  1
  O  O75  1  0.38315350  0.23491450  0.50714600  1
  O  O76  1  0.24057250  0.13955950  0.26221700  1
  O  O77  1  0.26387200  0.12375000  0.73764700  1
  O  O78  1  0.11355650  0.98523650  0.00317200  1
  O  O79  1  0.50389650  0.36554650  0.22732300  1
  O  O80  1  0.99317450  0.62142250  0.72634800  1
  O  O81  1  0.88120700  0.51563400  0.50645400  1
  O  O82  1  0.73840650  0.36951950  0.24766700  1
  O  O83  1  0.76936000  0.37086700  0.74576900  1
  O  O84  1  0.11664950  0.76159550  0.01151400  1
  O  O85  1  0.87984450  0.48913350  0.98708800  1
  O  O86  1  0.00682550  0.62142250  0.27365200  1
  O  O87  1  0.11684650  0.73491450  0.49285400  1
  O  O88  1  0.98450000  0.37066200  0.75816100  1
  O  O89  1  0.88140150  0.25344050  0.97595000  1
  O  O90  1  0.23612800  0.62375000  0.26235300  1
  O  O91  1  0.01550000  0.37066200  0.24183900  1
  O  O92  1  0.11879300  0.51563400  0.49354600  1
  O  O93  1  0.12015550  0.48913350  0.01291200  1
  O  O94  1  0.25942750  0.63955950  0.73778300  1
  O  O95  1  0.87488600  0.24145200  0.51988800  1
  O  O96  1  0.11859850  0.25344050  0.02405000  1
  O  O97  1  0.23064000  0.37086700  0.25423100  1
  O  O98  1  0.37527550  0.51620650  0.50356200  1
  O  O99  1  0.38644350  0.48523650  0.99682800  1
  O  O100  1  0.98907600  0.13906300  0.73616600  1
  O  O101  1  0.26159350  0.36951950  0.75233300  1
  O  O102  1  0.12511400  0.24145200  0.48011200  1
  O  O103  1  0.01092400  0.13906300  0.26383400  1
  O  O104  1  0.88335050  0.76159550  0.98848600  1
  O  O105  1  0.99610350  0.86554650  0.77267700  1
  O  O106  1  0.62472450  0.51620650  0.49643800  1
  O  O107  1  0.88315350  0.73491450  0.50714600  1
  O  O108  1  0.74057250  0.63955950  0.26221700  1
  O  O109  1  0.76387200  0.62375000  0.73764700  1
  O  O110  1  0.61355650  0.48523650  0.00317200  1
  O  O111  1  0.00389650  0.86554650  0.22732300  1
