# generated using pymatgen
data_Na5SbO5
_symmetry_space_group_name_H-M   'P 1'
_cell_length_a   10.90081200
_cell_length_b   4.46709400
_cell_length_c   6.48447526
_cell_angle_alpha   90.00000000
_cell_angle_beta   108.68239842
_cell_angle_gamma   90.00000000
_symmetry_Int_Tables_number   1
_chemical_formula_structural   Na5SbO5
_chemical_formula_sum   'Na10 Sb2 O10'
_cell_volume   299.12335041
_cell_formula_units_Z   2
loop_
 _symmetry_equiv_pos_site_id
 _symmetry_equiv_pos_as_xyz
  1  'x, y, z'
loop_
 _atom_site_type_symbol
 _atom_site_label
 _atom_site_symmetry_multiplicity
 _atom_site_fract_x
 _atom_site_fract_y
 _atom_site_fract_z
 _atom_site_occupancy
  Na  Na0  1  0.17830600  0.50020700  0.35806500  1
  Na  Na1  1  0.19703500  0.49992800  0.82384400  1
  Na  Na2  1  0.30296500  0.99992800  0.17615600  1
  Na  Na3  1  0.32169400  0.00020700  0.64193500  1
  Na  Na4  1  0.00000000  0.99456100  0.00000000  1
  Na  Na5  1  0.67830600  0.00020700  0.35806500  1
  Na  Na6  1  0.69703500  0.99992800  0.82384400  1
  Na  Na7  1  0.80296500  0.49992800  0.17615600  1
  Na  Na8  1  0.82169400  0.50020700  0.64193500  1
  Na  Na9  1  0.50000000  0.49456100  0.00000000  1
  Sb  Sb10  1  0.00000000  0.00894200  0.50000000  1
  Sb  Sb11  1  0.50000000  0.50894200  0.50000000  1
  O  O12  1  0.13142150  0.99923550  0.34363600  1
  O  O13  1  0.14350950  0.99920050  0.79211100  1
  O  O14  1  0.35649050  0.49920050  0.20788900  1
  O  O15  1  0.36857850  0.49923550  0.65636400  1
  O  O16  1  0.00000000  0.49305200  0.50000000  1
  O  O17  1  0.63142150  0.49923550  0.34363600  1
  O  O18  1  0.64350950  0.49920050  0.79211100  1
  O  O19  1  0.85649050  0.99920050  0.20788900  1
  O  O20  1  0.86857850  0.99923550  0.65636400  1
  O  O21  1  0.50000000  0.99305200  0.50000000  1
