# generated using pymatgen
data_Na3SiH11O9
_symmetry_space_group_name_H-M   'P 1'
_cell_length_a   10.98241700
_cell_length_b   11.89765100
_cell_length_c   13.01359600
_cell_angle_alpha   90.00000000
_cell_angle_beta   90.00000000
_cell_angle_gamma   90.00000000
_symmetry_Int_Tables_number   1
_chemical_formula_structural   Na3SiH11O9
_chemical_formula_sum   'Na24 Si8 H88 O72'
_cell_volume   1700.42106069
_cell_formula_units_Z   8
loop_
 _symmetry_equiv_pos_site_id
 _symmetry_equiv_pos_as_xyz
  1  'x, y, z'
loop_
 _atom_site_type_symbol
 _atom_site_label
 _atom_site_symmetry_multiplicity
 _atom_site_fract_x
 _atom_site_fract_y
 _atom_site_fract_z
 _atom_site_occupancy
  Na  Na0  1  0.63674900  0.82684000  0.86994500  1
  Na  Na1  1  0.86325100  0.32684000  0.13005500  1
  Na  Na2  1  0.13674900  0.17316000  0.63005500  1
  Na  Na3  1  0.36325100  0.67316000  0.36994500  1
  Na  Na4  1  0.36325100  0.17316000  0.13005500  1
  Na  Na5  1  0.13674900  0.67316000  0.86994500  1
  Na  Na6  1  0.86325100  0.82684000  0.36994500  1
  Na  Na7  1  0.63674900  0.32684000  0.63005500  1
  Na  Na8  1  0.60664000  0.68281400  0.08262900  1
  Na  Na9  1  0.89336000  0.18281400  0.91737100  1
  Na  Na10  1  0.10664000  0.31718600  0.41737100  1
  Na  Na11  1  0.39336000  0.81718600  0.58262900  1
  Na  Na12  1  0.39336000  0.31718600  0.91737100  1
  Na  Na13  1  0.10664000  0.81718600  0.08262900  1
  Na  Na14  1  0.89336000  0.68281400  0.58262900  1
  Na  Na15  1  0.60664000  0.18281400  0.41737100  1
  Na  Na16  1  0.37900700  0.84257000  0.18763000  1
  Na  Na17  1  0.12099300  0.34257000  0.81237000  1
  Na  Na18  1  0.87900700  0.15743000  0.31237000  1
  Na  Na19  1  0.62099300  0.65743000  0.68763000  1
  Na  Na20  1  0.62099300  0.15743000  0.81237000  1
  Na  Na21  1  0.87900700  0.65743000  0.18763000  1
  Na  Na22  1  0.12099300  0.84257000  0.68763000  1
  Na  Na23  1  0.37900700  0.34257000  0.31237000  1
  Si  Si24  1  0.62232900  0.97556600  0.12909900  1
  Si  Si25  1  0.87767100  0.47556600  0.87090100  1
  Si  Si26  1  0.12232900  0.02443400  0.37090100  1
  Si  Si27  1  0.37767100  0.52443400  0.62909900  1
  Si  Si28  1  0.37767100  0.02443400  0.87090100  1
  Si  Si29  1  0.12232900  0.52443400  0.12909900  1
  Si  Si30  1  0.87767100  0.97556600  0.62909900  1
  Si  Si31  1  0.62232900  0.47556600  0.37090100  1
  H  H32  1  0.50873300  0.92281400  0.72317300  1
  H  H33  1  0.99126700  0.42281400  0.27682700  1
  H  H34  1  0.00873300  0.07718600  0.77682700  1
  H  H35  1  0.49126700  0.57718600  0.22317300  1
  H  H36  1  0.49126700  0.07718600  0.27682700  1
  H  H37  1  0.00873300  0.57718600  0.72317300  1
  H  H38  1  0.99126700  0.92281400  0.22317300  1
  H  H39  1  0.50873300  0.42281400  0.77682700  1
  H  H40  1  0.63155400  0.90749100  0.65634500  1
  H  H41  1  0.86844600  0.40749100  0.34365500  1
  H  H42  1  0.13155400  0.09250900  0.84365500  1
  H  H43  1  0.36844600  0.59250900  0.15634500  1
  H  H44  1  0.36844600  0.09250900  0.34365500  1
  H  H45  1  0.13155400  0.59250900  0.65634500  1
  H  H46  1  0.86844600  0.90749100  0.15634500  1
  H  H47  1  0.63155400  0.40749100  0.84365500  1
  H  H48  1  0.65668800  0.81114700  0.25664800  1
  H  H49  1  0.84331200  0.31114700  0.74335200  1
  H  H50  1  0.15668800  0.18885300  0.24335200  1
  H  H51  1  0.34331200  0.68885300  0.75664800  1
  H  H52  1  0.34331200  0.18885300  0.74335200  1
  H  H53  1  0.15668800  0.68885300  0.25664800  1
  H  H54  1  0.84331200  0.81114700  0.75664800  1
  H  H55  1  0.65668800  0.31114700  0.24335200  1
  H  H56  1  0.64677200  0.68958400  0.31154200  1
  H  H57  1  0.85322800  0.18958400  0.68845800  1
  H  H58  1  0.14677200  0.31041600  0.18845800  1
  H  H59  1  0.35322800  0.81041600  0.81154200  1
  H  H60  1  0.35322800  0.31041600  0.68845800  1
  H  H61  1  0.14677200  0.81041600  0.31154200  1
  H  H62  1  0.85322800  0.68958400  0.81154200  1
  H  H63  1  0.64677200  0.18958400  0.18845800  1
  H  H64  1  0.69798400  0.82940800  0.53661600  1
  H  H65  1  0.80201600  0.32940800  0.46338400  1
  H  H66  1  0.19798400  0.17059200  0.96338400  1
  H  H67  1  0.30201600  0.67059200  0.03661600  1
  H  H68  1  0.30201600  0.17059200  0.46338400  1
  H  H69  1  0.19798400  0.67059200  0.53661600  1
  H  H70  1  0.80201600  0.82940800  0.03661600  1
  H  H71  1  0.69798400  0.32940800  0.96338400  1
  H  H72  1  0.65004200  0.71627600  0.47354300  1
  H  H73  1  0.84995800  0.21627600  0.52645700  1
  H  H74  1  0.15004200  0.28372400  0.02645700  1
  H  H75  1  0.34995800  0.78372400  0.97354300  1
  H  H76  1  0.34995800  0.28372400  0.52645700  1
  H  H77  1  0.15004200  0.78372400  0.47354300  1
  H  H78  1  0.84995800  0.71627600  0.97354300  1
  H  H79  1  0.65004200  0.21627600  0.02645700  1
  H  H80  1  0.81022300  0.98391600  0.83702800  1
  H  H81  1  0.68977700  0.48391600  0.16297200  1
  H  H82  1  0.31022300  0.01608400  0.66297200  1
  H  H83  1  0.18977700  0.51608400  0.33702800  1
  H  H84  1  0.18977700  0.01608400  0.16297200  1
  H  H85  1  0.31022300  0.51608400  0.83702800  1
  H  H86  1  0.68977700  0.98391600  0.33702800  1
  H  H87  1  0.81022300  0.48391600  0.66297200  1
  H  H88  1  0.76103100  0.99356200  0.95820200  1
  H  H89  1  0.73896900  0.49356200  0.04179800  1
  H  H90  1  0.26103100  0.00643800  0.54179800  1
  H  H91  1  0.23896900  0.50643800  0.45820200  1
  H  H92  1  0.23896900  0.00643800  0.04179800  1
  H  H93  1  0.26103100  0.50643800  0.95820200  1
  H  H94  1  0.73896900  0.99356200  0.45820200  1
  H  H95  1  0.76103100  0.49356200  0.54179800  1
  H  H96  1  0.36369500  0.92827200  0.39715600  1
  H  H97  1  0.13630500  0.42827200  0.60284400  1
  H  H98  1  0.86369500  0.07172800  0.10284400  1
  H  H99  1  0.63630500  0.57172800  0.89715600  1
  H  H100  1  0.63630500  0.07172800  0.60284400  1
  H  H101  1  0.86369500  0.57172800  0.39715600  1
  H  H102  1  0.13630500  0.92827200  0.89715600  1
  H  H103  1  0.36369500  0.42827200  0.10284400  1
  H  H104  1  0.49591400  0.89679400  0.35197500  1
  H  H105  1  0.00408600  0.39679400  0.64802500  1
  H  H106  1  0.99591400  0.10320600  0.14802500  1
  H  H107  1  0.50408600  0.60320600  0.85197500  1
  H  H108  1  0.50408600  0.10320600  0.64802500  1
  H  H109  1  0.99591400  0.60320600  0.35197500  1
  H  H110  1  0.00408600  0.89679400  0.85197500  1
  H  H111  1  0.49591400  0.39679400  0.14802500  1
  H  H112  1  0.49651100  0.89372600  0.99865800  1
  H  H113  1  0.00348900  0.39372600  0.00134200  1
  H  H114  1  0.99651100  0.10627400  0.50134200  1
  H  H115  1  0.50348900  0.60627400  0.49865800  1
  H  H116  1  0.50348900  0.10627400  0.00134200  1
  H  H117  1  0.99651100  0.60627400  0.99865800  1
  H  H118  1  0.00348900  0.89372600  0.49865800  1
  H  H119  1  0.49651100  0.39372600  0.50134200  1
  O  O120  1  0.54280100  0.87537700  0.06599400  1
  O  O121  1  0.95719900  0.37537700  0.93400600  1
  O  O122  1  0.04280100  0.12462300  0.43400600  1
  O  O123  1  0.45719900  0.62462300  0.56599400  1
  O  O124  1  0.45719900  0.12462300  0.93400600  1
  O  O125  1  0.04280100  0.62462300  0.06599400  1
  O  O126  1  0.95719900  0.87537700  0.56599400  1
  O  O127  1  0.54280100  0.37537700  0.43400600  1
  O  O128  1  0.76631200  0.96557000  0.09205400  1
  O  O129  1  0.73368800  0.46557000  0.90794600  1
  O  O130  1  0.26631200  0.03443000  0.40794600  1
  O  O131  1  0.23368800  0.53443000  0.59205400  1
  O  O132  1  0.23368800  0.03443000  0.90794600  1
  O  O133  1  0.26631200  0.53443000  0.09205400  1
  O  O134  1  0.73368800  0.96557000  0.59205400  1
  O  O135  1  0.76631200  0.46557000  0.40794600  1
  O  O136  1  0.56767000  0.10065100  0.10421900  1
  O  O137  1  0.93233000  0.60065100  0.89578100  1
  O  O138  1  0.06767000  0.89934900  0.39578100  1
  O  O139  1  0.43233000  0.39934900  0.60421900  1
  O  O140  1  0.43233000  0.89934900  0.89578100  1
  O  O141  1  0.06767000  0.39934900  0.10421900  1
  O  O142  1  0.93233000  0.10065100  0.60421900  1
  O  O143  1  0.56767000  0.60065100  0.39578100  1
  O  O144  1  0.59897400  0.94108700  0.25047300  1
  O  O145  1  0.90102600  0.44108700  0.74952700  1
  O  O146  1  0.09897400  0.05891300  0.24952700  1
  O  O147  1  0.40102600  0.55891300  0.75047300  1
  O  O148  1  0.40102600  0.05891300  0.74952700  1
  O  O149  1  0.09897400  0.55891300  0.25047300  1
  O  O150  1  0.90102600  0.94108700  0.75047300  1
  O  O151  1  0.59897400  0.44108700  0.24952700  1
  O  O152  1  0.56203100  0.86481300  0.69191400  1
  O  O153  1  0.93796900  0.36481300  0.30808600  1
  O  O154  1  0.06203100  0.13518700  0.80808600  1
  O  O155  1  0.43796900  0.63518700  0.19191400  1
  O  O156  1  0.43796900  0.13518700  0.30808600  1
  O  O157  1  0.06203100  0.63518700  0.69191400  1
  O  O158  1  0.93796900  0.86481300  0.19191400  1
  O  O159  1  0.56203100  0.36481300  0.80808600  1
  O  O160  1  0.69575700  0.73426600  0.26075500  1
  O  O161  1  0.80424300  0.23426600  0.73924500  1
  O  O162  1  0.19575700  0.26573400  0.23924500  1
  O  O163  1  0.30424300  0.76573400  0.76075500  1
  O  O164  1  0.30424300  0.26573400  0.73924500  1
  O  O165  1  0.19575700  0.76573400  0.26075500  1
  O  O166  1  0.80424300  0.73426600  0.76075500  1
  O  O167  1  0.69575700  0.23426600  0.23924500  1
  O  O168  1  0.71668300  0.75220400  0.51287400  1
  O  O169  1  0.78331700  0.25220400  0.48712600  1
  O  O170  1  0.21668300  0.24779600  0.98712600  1
  O  O171  1  0.28331700  0.74779600  0.01287400  1
  O  O172  1  0.28331700  0.24779600  0.48712600  1
  O  O173  1  0.21668300  0.74779600  0.51287400  1
  O  O174  1  0.78331700  0.75220400  0.01287400  1
  O  O175  1  0.71668300  0.25220400  0.98712600  1
  O  O176  1  0.74415100  0.01382800  0.88498400  1
  O  O177  1  0.75584900  0.51382800  0.11501600  1
  O  O178  1  0.24415100  0.98617200  0.61501600  1
  O  O179  1  0.25584900  0.48617200  0.38498400  1
  O  O180  1  0.25584900  0.98617200  0.11501600  1
  O  O181  1  0.24415100  0.48617200  0.88498400  1
  O  O182  1  0.75584900  0.01382800  0.38498400  1
  O  O183  1  0.74415100  0.51382800  0.61501600  1
  O  O184  1  0.42624000  0.86563100  0.39165900  1
  O  O185  1  0.07376000  0.36563100  0.60834100  1
  O  O186  1  0.92624000  0.13436900  0.10834100  1
  O  O187  1  0.57376000  0.63436900  0.89165900  1
  O  O188  1  0.57376000  0.13436900  0.60834100  1
  O  O189  1  0.92624000  0.63436900  0.39165900  1
  O  O190  1  0.07376000  0.86563100  0.89165900  1
  O  O191  1  0.42624000  0.36563100  0.10834100  1
