# generated using pymatgen
data_Ba2Ti6N2O11
_symmetry_space_group_name_H-M   'P 1'
_cell_length_a   15.41115000
_cell_length_b   3.94959200
_cell_length_c   9.19408657
_cell_angle_alpha   90.00000000
_cell_angle_beta   98.54232929
_cell_angle_gamma   90.00000000
_symmetry_Int_Tables_number   1
_chemical_formula_structural   Ba2Ti6N2O11
_chemical_formula_sum   'Ba4 Ti12 N4 O22'
_cell_volume   553.41516516
_cell_formula_units_Z   2
loop_
 _symmetry_equiv_pos_site_id
 _symmetry_equiv_pos_as_xyz
  1  'x, y, z'
loop_
 _atom_site_type_symbol
 _atom_site_label
 _atom_site_symmetry_multiplicity
 _atom_site_fract_x
 _atom_site_fract_y
 _atom_site_fract_z
 _atom_site_occupancy
  Ba  Ba0  1  0.54302000  0.00000000  0.76393100  1
  Ba  Ba1  1  0.94393300  0.50000000  0.22805400  1
  Ba  Ba2  1  0.04302000  0.50000000  0.76393100  1
  Ba  Ba3  1  0.44393300  0.00000000  0.22805400  1
  Ti  Ti4  1  0.61087900  0.50000000  0.09266300  1
  Ti  Ti5  1  0.66833400  0.50000000  0.43789700  1
  Ti  Ti6  1  0.73359200  0.50000000  0.77111800  1
  Ti  Ti7  1  0.75366000  0.00000000  0.24041600  1
  Ti  Ti8  1  0.82232800  0.00000000  0.56293300  1
  Ti  Ti9  1  0.86458900  0.00000000  0.89995800  1
  Ti  Ti10  1  0.11087900  0.00000000  0.09266300  1
  Ti  Ti11  1  0.16833400  0.00000000  0.43789700  1
  Ti  Ti12  1  0.23359200  0.00000000  0.77111800  1
  Ti  Ti13  1  0.25366000  0.50000000  0.24041600  1
  Ti  Ti14  1  0.32232800  0.50000000  0.56293300  1
  Ti  Ti15  1  0.36458900  0.50000000  0.89995800  1
  N  N16  1  0.70079500  0.00000000  0.42550800  1
  N  N17  1  0.75558900  0.00000000  0.76572900  1
  N  N18  1  0.20079500  0.50000000  0.42550800  1
  N  N19  1  0.25558900  0.50000000  0.76572900  1
  O  O20  1  0.57033700  0.50000000  0.29345200  1
  O  O21  1  0.62645900  0.50000000  0.61682000  1
  O  O22  1  0.65890500  0.50000000  0.91105000  1
  O  O23  1  0.63358700  0.00000000  0.11206500  1
  O  O24  1  0.73794100  0.50000000  0.23618100  1
  O  O25  1  0.79624600  0.50000000  0.57476500  1
  O  O26  1  0.85794000  0.50000000  0.89449500  1
  O  O27  1  0.83283400  0.00000000  0.09395000  1
  O  O28  1  0.86771400  0.00000000  0.38591800  1
  O  O29  1  0.92215800  0.00000000  0.70996600  1
  O  O30  1  0.99808800  0.00000000  0.00319900  1
  O  O31  1  0.07033700  0.00000000  0.29345200  1
  O  O32  1  0.12645900  0.00000000  0.61682000  1
  O  O33  1  0.15890500  0.00000000  0.91105000  1
  O  O34  1  0.13358700  0.50000000  0.11206500  1
  O  O35  1  0.23794100  0.00000000  0.23618100  1
  O  O36  1  0.29624600  0.00000000  0.57476500  1
  O  O37  1  0.35794000  0.00000000  0.89449500  1
  O  O38  1  0.33283400  0.50000000  0.09395000  1
  O  O39  1  0.36771400  0.50000000  0.38591800  1
  O  O40  1  0.42215800  0.50000000  0.70996600  1
  O  O41  1  0.49808800  0.50000000  0.00319900  1
