# generated using pymatgen
data_Rb2MgO2
_symmetry_space_group_name_H-M   'P 1'
_cell_length_a   9.78014100
_cell_length_b   6.48934800
_cell_length_c   16.20919867
_cell_angle_alpha   90.00000000
_cell_angle_beta   118.31391968
_cell_angle_gamma   90.00000000
_symmetry_Int_Tables_number   1
_chemical_formula_structural   Rb2MgO2
_chemical_formula_sum   'Rb16 Mg8 O16'
_cell_volume   905.66813618
_cell_formula_units_Z   8
loop_
 _symmetry_equiv_pos_site_id
 _symmetry_equiv_pos_as_xyz
  1  'x, y, z'
loop_
 _atom_site_type_symbol
 _atom_site_label
 _atom_site_symmetry_multiplicity
 _atom_site_fract_x
 _atom_site_fract_y
 _atom_site_fract_z
 _atom_site_occupancy
  Rb  Rb0  1  0.85268900  0.66794500  0.02942800  1
  Rb  Rb1  1  0.92051100  0.12877700  0.16498300  1
  Rb  Rb2  1  0.68063500  0.91588200  0.25996900  1
  Rb  Rb3  1  0.56846400  0.43484500  0.12096400  1
  Rb  Rb4  1  0.85268900  0.83205500  0.52942800  1
  Rb  Rb5  1  0.92051100  0.37122300  0.66498300  1
  Rb  Rb6  1  0.43153600  0.93484500  0.37903600  1
  Rb  Rb7  1  0.31936500  0.41588200  0.24003100  1
  Rb  Rb8  1  0.68063500  0.58411800  0.75996900  1
  Rb  Rb9  1  0.56846400  0.06515500  0.62096400  1
  Rb  Rb10  1  0.07948900  0.62877700  0.33501700  1
  Rb  Rb11  1  0.14731100  0.16794500  0.47057200  1
  Rb  Rb12  1  0.43153600  0.56515500  0.87903600  1
  Rb  Rb13  1  0.31936500  0.08411800  0.74003100  1
  Rb  Rb14  1  0.07948900  0.87122300  0.83501700  1
  Rb  Rb15  1  0.14731100  0.33205500  0.97057200  1
  Mg  Mg16  1  0.75671400  0.37149400  0.37260300  1
  Mg  Mg17  1  0.41187600  0.95016300  0.04032300  1
  Mg  Mg18  1  0.58812400  0.45016300  0.45967700  1
  Mg  Mg19  1  0.24328600  0.87149400  0.12739700  1
  Mg  Mg20  1  0.75671400  0.12850600  0.87260300  1
  Mg  Mg21  1  0.41187600  0.54983700  0.54032300  1
  Mg  Mg22  1  0.58812400  0.04983700  0.95967700  1
  Mg  Mg23  1  0.24328600  0.62850600  0.62739700  1
  O  O24  1  0.86220600  0.30439200  0.30328600  1
  O  O25  1  0.62888700  0.87150500  0.07032500  1
  O  O26  1  0.73991800  0.22526500  0.47267500  1
  O  O27  1  0.61693800  0.59791300  0.35777800  1
  O  O28  1  0.38306200  0.09791300  0.14222200  1
  O  O29  1  0.26008200  0.72526500  0.02732500  1
  O  O30  1  0.86220600  0.19560800  0.80328600  1
  O  O31  1  0.62888700  0.62849500  0.57032500  1
  O  O32  1  0.37111300  0.37150500  0.42967500  1
  O  O33  1  0.13779400  0.80439200  0.19671400  1
  O  O34  1  0.73991800  0.27473500  0.97267500  1
  O  O35  1  0.61693800  0.90208700  0.85777800  1
  O  O36  1  0.38306200  0.40208700  0.64222200  1
  O  O37  1  0.26008200  0.77473500  0.52732500  1
  O  O38  1  0.37111300  0.12849500  0.92967500  1
  O  O39  1  0.13779400  0.69560800  0.69671400  1
