# generated using pymatgen
data_NbNO
_symmetry_space_group_name_H-M   'P 1'
_cell_length_a   12.77413800
_cell_length_b   4.00873800
_cell_length_c   6.83714920
_cell_angle_alpha   90.00000000
_cell_angle_beta   106.35621688
_cell_angle_gamma   90.00000000
_symmetry_Int_Tables_number   1
_chemical_formula_structural   NbNO
_chemical_formula_sum   'Nb8 N8 O8'
_cell_volume   335.94844991
_cell_formula_units_Z   8
loop_
 _symmetry_equiv_pos_site_id
 _symmetry_equiv_pos_as_xyz
  1  'x, y, z'
loop_
 _atom_site_type_symbol
 _atom_site_label
 _atom_site_symmetry_multiplicity
 _atom_site_fract_x
 _atom_site_fract_y
 _atom_site_fract_z
 _atom_site_occupancy
  Nb  Nb0  1  0.10419100  0.00000000  0.71297100  1
  Nb  Nb1  1  0.20850100  0.00000000  0.29352700  1
  Nb  Nb2  1  0.29149900  0.50000000  0.70647300  1
  Nb  Nb3  1  0.39580900  0.50000000  0.28702900  1
  Nb  Nb4  1  0.60419100  0.50000000  0.71297100  1
  Nb  Nb5  1  0.70850100  0.50000000  0.29352700  1
  Nb  Nb6  1  0.79149900  0.00000000  0.70647300  1
  Nb  Nb7  1  0.89580900  0.00000000  0.28702900  1
  N  N8  1  0.13902000  0.50000000  0.73018800  1
  N  N9  1  0.25928800  0.00000000  0.64240300  1
  N  N10  1  0.24071200  0.50000000  0.35759700  1
  N  N11  1  0.36098000  0.00000000  0.26981200  1
  N  N12  1  0.63902000  0.00000000  0.73018800  1
  N  N13  1  0.75928800  0.50000000  0.64240300  1
  N  N14  1  0.74071200  0.00000000  0.35759700  1
  N  N15  1  0.86098000  0.50000000  0.26981200  1
  O  O16  1  0.05690000  0.00000000  0.37606500  1
  O  O17  1  0.12827200  0.00000000  0.00897800  1
  O  O18  1  0.37172800  0.50000000  0.99102200  1
  O  O19  1  0.44310000  0.50000000  0.62393500  1
  O  O20  1  0.55690000  0.50000000  0.37606500  1
  O  O21  1  0.62827200  0.50000000  0.00897800  1
  O  O22  1  0.87172800  0.00000000  0.99102200  1
  O  O23  1  0.94310000  0.00000000  0.62393500  1
