# generated using pymatgen
data_K2LiVS4
_symmetry_space_group_name_H-M   'P 1'
_cell_length_a   10.70016000
_cell_length_b   8.52112600
_cell_length_c   18.22339607
_cell_angle_alpha   90.00000000
_cell_angle_beta   94.83586394
_cell_angle_gamma   90.00000000
_symmetry_Int_Tables_number   1
_chemical_formula_structural   K2LiVS4
_chemical_formula_sum   'K16 Li8 V8 S32'
_cell_volume   1655.64739879
_cell_formula_units_Z   8
loop_
 _symmetry_equiv_pos_site_id
 _symmetry_equiv_pos_as_xyz
  1  'x, y, z'
loop_
 _atom_site_type_symbol
 _atom_site_label
 _atom_site_symmetry_multiplicity
 _atom_site_fract_x
 _atom_site_fract_y
 _atom_site_fract_z
 _atom_site_occupancy
  K  K0  1  0.13173750  0.02565850  0.92751000  1
  K  K1  1  0.13173750  0.97434150  0.42751000  1
  K  K2  1  0.49996050  0.18115950  0.75005000  1
  K  K3  1  0.51597000  0.98487300  0.50219600  1
  K  K4  1  0.49996050  0.81884050  0.25005000  1
  K  K5  1  0.51597000  0.01512700  0.00219600  1
  K  K6  1  0.87146550  0.02467750  0.57297100  1
  K  K7  1  0.87146550  0.97532250  0.07297100  1
  K  K8  1  0.63173750  0.52565850  0.92751000  1
  K  K9  1  0.63173750  0.47434150  0.42751000  1
  K  K10  1  0.99996050  0.68115950  0.75005000  1
  K  K11  1  0.01597000  0.48487300  0.50219600  1
  K  K12  1  0.99996050  0.31884050  0.25005000  1
  K  K13  1  0.01597000  0.51512700  0.00219600  1
  K  K14  1  0.37146550  0.52467750  0.57297100  1
  K  K15  1  0.37146550  0.47532250  0.07297100  1
  Li  Li16  1  0.35461800  0.75845400  0.78417000  1
  Li  Li17  1  0.35461800  0.24154600  0.28417000  1
  Li  Li18  1  0.64559000  0.75806200  0.71607400  1
  Li  Li19  1  0.64559000  0.24193800  0.21607400  1
  Li  Li20  1  0.85461800  0.25845400  0.78417000  1
  Li  Li21  1  0.85461800  0.74154600  0.28417000  1
  Li  Li22  1  0.14559000  0.25806200  0.71607400  1
  Li  Li23  1  0.14559000  0.74193800  0.21607400  1
  V  V24  1  0.24519400  0.94499400  0.64495500  1
  V  V25  1  0.24519400  0.05500600  0.14495500  1
  V  V26  1  0.75443150  0.94500450  0.85488900  1
  V  V27  1  0.75443150  0.05499550  0.35488900  1
  V  V28  1  0.74519400  0.44499400  0.64495500  1
  V  V29  1  0.74519400  0.55500600  0.14495500  1
  V  V30  1  0.25443150  0.44500450  0.85488900  1
  V  V31  1  0.25443150  0.55499550  0.35488900  1
  S  S32  1  0.19524250  0.97938950  0.75654900  1
  S  S33  1  0.23564800  0.16712800  0.59006000  1
  S  S34  1  0.19524250  0.02061050  0.25654900  1
  S  S35  1  0.23564800  0.83287200  0.09006000  1
  S  S36  1  0.38137850  0.28290650  0.91306600  1
  S  S37  1  0.38137850  0.71709350  0.41306600  1
  S  S38  1  0.43560900  0.85197800  0.65395700  1
  S  S39  1  0.43560900  0.14802200  0.15395700  1
  S  S40  1  0.56371750  0.85333250  0.84742900  1
  S  S41  1  0.56371750  0.14666750  0.34742900  1
  S  S42  1  0.61834400  0.28272800  0.58692400  1
  S  S43  1  0.61834400  0.71727200  0.08692400  1
  S  S44  1  0.76402550  0.16678450  0.90992400  1
  S  S45  1  0.80401850  0.97923050  0.74311700  1
  S  S46  1  0.76402550  0.83321550  0.40992400  1
  S  S47  1  0.80401850  0.02076950  0.24311700  1
  S  S48  1  0.69524250  0.47938950  0.75654900  1
  S  S49  1  0.73564800  0.66712800  0.59006000  1
  S  S50  1  0.69524250  0.52061050  0.25654900  1
  S  S51  1  0.73564800  0.33287200  0.09006000  1
  S  S52  1  0.88137850  0.78290650  0.91306600  1
  S  S53  1  0.88137850  0.21709350  0.41306600  1
  S  S54  1  0.93560900  0.35197800  0.65395700  1
  S  S55  1  0.93560900  0.64802200  0.15395700  1
  S  S56  1  0.06371750  0.35333250  0.84742900  1
  S  S57  1  0.06371750  0.64666750  0.34742900  1
  S  S58  1  0.11834400  0.78272800  0.58692400  1
  S  S59  1  0.11834400  0.21727200  0.08692400  1
  S  S60  1  0.26402550  0.66678450  0.90992400  1
  S  S61  1  0.30401850  0.47923050  0.74311700  1
  S  S62  1  0.26402550  0.33321550  0.40992400  1
  S  S63  1  0.30401850  0.52076950  0.24311700  1
