# generated using pymatgen
data_CrO2
_symmetry_space_group_name_H-M   'P 1'
_cell_length_a   5.04708175
_cell_length_b   2.98575633
_cell_length_c   9.43886008
_cell_angle_alpha   90.00000000
_cell_angle_beta   100.47152615
_cell_angle_gamma   90.00000000
_symmetry_Int_Tables_number   1
_chemical_formula_structural   CrO2
_chemical_formula_sum   'Cr4 O8'
_cell_volume   139.86862886
_cell_formula_units_Z   4
loop_
 _symmetry_equiv_pos_site_id
 _symmetry_equiv_pos_as_xyz
  1  'x, y, z'
loop_
 _atom_site_type_symbol
 _atom_site_label
 _atom_site_symmetry_multiplicity
 _atom_site_fract_x
 _atom_site_fract_y
 _atom_site_fract_z
 _atom_site_occupancy
  Cr  Cr0  1  0.24946100  0.50000000  0.75331500  1
  Cr  Cr1  1  0.25053900  0.00000000  0.24668500  1
  Cr  Cr2  1  0.74946100  0.00000000  0.75331500  1
  Cr  Cr3  1  0.75053900  0.50000000  0.24668500  1
  O  O4  1  0.61989400  0.00000000  0.34920500  1
  O  O5  1  0.11895550  0.00000000  0.85626300  1
  O  O6  1  0.38104450  0.50000000  0.14373700  1
  O  O7  1  0.88010600  0.50000000  0.65079500  1
  O  O8  1  0.11989400  0.50000000  0.34920500  1
  O  O9  1  0.61895550  0.50000000  0.85626300  1
  O  O10  1  0.88104450  0.00000000  0.14373700  1
  O  O11  1  0.38010600  0.00000000  0.65079500  1
