# generated using pymatgen
data_Ba3As2H14S8O7
_symmetry_space_group_name_H-M   'P 1'
_cell_length_a   12.75455500
_cell_length_b   12.90625200
_cell_length_c   16.81156713
_cell_angle_alpha   90.00000000
_cell_angle_beta   130.51121275
_cell_angle_gamma   90.00000000
_symmetry_Int_Tables_number   1
_chemical_formula_structural   Ba3As2H14S8O7
_chemical_formula_sum   'Ba12 As8 H56 S32 O28'
_cell_volume   2104.00400586
_cell_formula_units_Z   4
loop_
 _symmetry_equiv_pos_site_id
 _symmetry_equiv_pos_as_xyz
  1  'x, y, z'
loop_
 _atom_site_type_symbol
 _atom_site_label
 _atom_site_symmetry_multiplicity
 _atom_site_fract_x
 _atom_site_fract_y
 _atom_site_fract_z
 _atom_site_occupancy
  Ba  Ba0  1  0.95681800  0.23627600  0.62332000  1
  Ba  Ba1  1  0.95681800  0.26372400  0.12332000  1
  Ba  Ba2  1  0.04318200  0.76372400  0.37668000  1
  Ba  Ba3  1  0.04318200  0.73627600  0.87668000  1
  Ba  Ba4  1  0.32618800  0.38043500  0.06727200  1
  Ba  Ba5  1  0.32618800  0.11956500  0.56727200  1
  Ba  Ba6  1  0.67381200  0.61956500  0.93272800  1
  Ba  Ba7  1  0.67381200  0.88043500  0.43272800  1
  Ba  Ba8  1  0.30575700  0.02297700  0.09680000  1
  Ba  Ba9  1  0.30575700  0.47702300  0.59680000  1
  Ba  Ba10  1  0.69424300  0.97702300  0.90320000  1
  Ba  Ba11  1  0.69424300  0.52297700  0.40320000  1
  As  As12  1  0.46434800  0.25314600  0.36302900  1
  As  As13  1  0.46434800  0.24685400  0.86302900  1
  As  As14  1  0.53565200  0.74685400  0.63697100  1
  As  As15  1  0.53565200  0.75314600  0.13697100  1
  As  As16  1  0.96238200  0.24151200  0.87436300  1
  As  As17  1  0.96238200  0.25848800  0.37436300  1
  As  As18  1  0.03761800  0.75848800  0.12563700  1
  As  As19  1  0.03761800  0.74151200  0.62563700  1
  H  H20  1  0.08565100  0.49244500  0.68065300  1
  H  H21  1  0.08565100  0.00755500  0.18065300  1
  H  H22  1  0.91434900  0.50755500  0.31934700  1
  H  H23  1  0.91434900  0.99244500  0.81934700  1
  H  H24  1  0.19195200  0.40693000  0.75510900  1
  H  H25  1  0.19195200  0.09307000  0.25510900  1
  H  H26  1  0.80804800  0.59307000  0.24489100  1
  H  H27  1  0.80804800  0.90693000  0.74489100  1
  H  H28  1  0.09059100  0.99568700  0.67215500  1
  H  H29  1  0.09059100  0.50431300  0.17215500  1
  H  H30  1  0.90940900  0.00431300  0.32784500  1
  H  H31  1  0.90940900  0.49568700  0.82784500  1
  H  H32  1  0.20601900  0.06701600  0.76962100  1
  H  H33  1  0.20601900  0.43298400  0.26962100  1
  H  H34  1  0.79398100  0.93298400  0.23037900  1
  H  H35  1  0.79398100  0.56701600  0.73037900  1
  H  H36  1  0.28815100  0.58100600  0.93996100  1
  H  H37  1  0.28815100  0.91899400  0.43996100  1
  H  H38  1  0.71184900  0.41899400  0.06003900  1
  H  H39  1  0.71184900  0.08100600  0.56003900  1
  H  H40  1  0.15976100  0.51334400  0.85337800  1
  H  H41  1  0.15976100  0.98665600  0.35337800  1
  H  H42  1  0.84023900  0.48665600  0.14662200  1
  H  H43  1  0.84023900  0.01334400  0.64662200  1
  H  H44  1  0.26618900  0.90063100  0.91314300  1
  H  H45  1  0.26618900  0.59936900  0.41314300  1
  H  H46  1  0.73381100  0.09936900  0.08685700  1
  H  H47  1  0.73381100  0.40063100  0.58685700  1
  H  H48  1  0.14005000  0.97239600  0.83990300  1
  H  H49  1  0.14005000  0.52760400  0.33990300  1
  H  H50  1  0.85995000  0.02760400  0.16009700  1
  H  H51  1  0.85995000  0.47239600  0.66009700  1
  H  H52  1  0.59901100  0.50524100  0.16439400  1
  H  H53  1  0.59901100  0.99475900  0.66439400  1
  H  H54  1  0.40098900  0.49475900  0.83560600  1
  H  H55  1  0.40098900  0.00524100  0.33560600  1
  H  H56  1  0.67306800  0.39631500  0.21746600  1
  H  H57  1  0.67306800  0.10368500  0.71746600  1
  H  H58  1  0.32693200  0.60368500  0.78253400  1
  H  H59  1  0.32693200  0.89631500  0.28253400  1
  H  H60  1  0.63651900  0.00795700  0.24247100  1
  H  H61  1  0.63651900  0.49204300  0.74247100  1
  H  H62  1  0.36348100  0.99204300  0.75752900  1
  H  H63  1  0.36348100  0.50795700  0.25752900  1
  H  H64  1  0.64558500  0.09829600  0.31253700  1
  H  H65  1  0.64558500  0.40170400  0.81253700  1
  H  H66  1  0.35441500  0.90170400  0.68746300  1
  H  H67  1  0.35441500  0.59829600  0.18746300  1
  H  H68  1  0.45287100  0.17364300  0.04118200  1
  H  H69  1  0.45287100  0.32635700  0.54118200  1
  H  H70  1  0.54712900  0.82635700  0.95881800  1
  H  H71  1  0.54712900  0.67364300  0.45881800  1
  H  H72  1  0.56249300  0.20165100  0.15901800  1
  H  H73  1  0.56249300  0.29834900  0.65901800  1
  H  H74  1  0.43750700  0.79834900  0.84098200  1
  H  H75  1  0.43750700  0.70165100  0.34098200  1
  S  S76  1  0.64592000  0.25990500  0.37537000  1
  S  S77  1  0.64592000  0.24009500  0.87537000  1
  S  S78  1  0.35408000  0.74009500  0.62463000  1
  S  S79  1  0.35408000  0.75990500  0.12463000  1
  S  S80  1  0.27597900  0.22912000  0.19912200  1
  S  S81  1  0.27597900  0.27088000  0.69912200  1
  S  S82  1  0.72402100  0.77088000  0.80087800  1
  S  S83  1  0.72402100  0.72912000  0.30087800  1
  S  S84  1  0.44738900  0.40363900  0.41494400  1
  S  S85  1  0.44738900  0.09636100  0.91494400  1
  S  S86  1  0.55261100  0.59636100  0.58505600  1
  S  S87  1  0.55261100  0.90363900  0.08505600  1
  S  S88  1  0.47748500  0.12406600  0.45417800  1
  S  S89  1  0.47748500  0.37593400  0.95417800  1
  S  S90  1  0.52251500  0.87593400  0.54582200  1
  S  S91  1  0.52251500  0.62406600  0.04582200  1
  S  S92  1  0.13829400  0.21860100  0.88164900  1
  S  S93  1  0.13829400  0.28139900  0.38164900  1
  S  S94  1  0.86170600  0.78139900  0.11835100  1
  S  S95  1  0.86170600  0.71860100  0.61835100  1
  S  S96  1  0.77254700  0.24090000  0.71051900  1
  S  S97  1  0.77254700  0.25910000  0.21051900  1
  S  S98  1  0.22745300  0.75910000  0.28948100  1
  S  S99  1  0.22745300  0.74090000  0.78948100  1
  S  S100  1  0.98836800  0.38307700  0.95733100  1
  S  S101  1  0.98836800  0.11692300  0.45733100  1
  S  S102  1  0.01163200  0.61692300  0.04266900  1
  S  S103  1  0.01163200  0.88307700  0.54266900  1
  S  S104  1  0.96763000  0.10743900  0.95856800  1
  S  S105  1  0.96763000  0.39256100  0.45856800  1
  S  S106  1  0.03237000  0.89256100  0.04143200  1
  S  S107  1  0.03237000  0.60743900  0.54143200  1
  O  O108  1  0.10900700  0.44262100  0.73463300  1
  O  O109  1  0.10900700  0.05737900  0.23463300  1
  O  O110  1  0.89099300  0.55737900  0.26536700  1
  O  O111  1  0.89099300  0.94262100  0.76536700  1
  O  O112  1  0.10778700  0.04692200  0.72402200  1
  O  O113  1  0.10778700  0.45307800  0.22402200  1
  O  O114  1  0.89221300  0.95307800  0.27597800  1
  O  O115  1  0.89221300  0.54692200  0.77597800  1
  O  O116  1  0.20547400  0.54702300  0.92222500  1
  O  O117  1  0.20547400  0.95297700  0.42222500  1
  O  O118  1  0.79452600  0.45297700  0.07777500  1
  O  O119  1  0.79452600  0.04702300  0.57777500  1
  O  O120  1  0.18872600  0.93055700  0.90463400  1
  O  O121  1  0.18872600  0.56944300  0.40463400  1
  O  O122  1  0.81127400  0.06944300  0.09536600  1
  O  O123  1  0.81127400  0.43055700  0.59536600  1
  O  O124  1  0.61327800  0.45030100  0.21273400  1
  O  O125  1  0.61327800  0.04969900  0.71273400  1
  O  O126  1  0.38672200  0.54969900  0.78726600  1
  O  O127  1  0.38672200  0.95030100  0.28726600  1
  O  O128  1  0.61166800  0.02685500  0.28503000  1
  O  O129  1  0.61166800  0.47314500  0.78503000  1
  O  O130  1  0.38833200  0.97314500  0.71497000  1
  O  O131  1  0.38833200  0.52685500  0.21497000  1
  O  O132  1  0.46180800  0.18998600  0.10311100  1
  O  O133  1  0.46180800  0.31001400  0.60311100  1
  O  O134  1  0.53819200  0.81001400  0.89688900  1
  O  O135  1  0.53819200  0.68998600  0.39688900  1
