# generated using pymatgen
data_H3SNO3
_symmetry_space_group_name_H-M   'P 1'
_cell_length_a   8.13646600
_cell_length_b   8.18131100
_cell_length_c   9.38100200
_cell_angle_alpha   90.00000000
_cell_angle_beta   90.00000000
_cell_angle_gamma   90.00000000
_symmetry_Int_Tables_number   1
_chemical_formula_structural   H3SNO3
_chemical_formula_sum   'H24 S8 N8 O24'
_cell_volume   624.46477351
_cell_formula_units_Z   8
loop_
 _symmetry_equiv_pos_site_id
 _symmetry_equiv_pos_as_xyz
  1  'x, y, z'
loop_
 _atom_site_type_symbol
 _atom_site_label
 _atom_site_symmetry_multiplicity
 _atom_site_fract_x
 _atom_site_fract_y
 _atom_site_fract_z
 _atom_site_occupancy
  H  H0  1  0.64535000  0.40739000  0.57017600  1
  H  H1  1  0.85465000  0.90739000  0.42982400  1
  H  H2  1  0.14535000  0.59261000  0.92982400  1
  H  H3  1  0.35465000  0.09261000  0.07017600  1
  H  H4  1  0.35465000  0.59261000  0.42982400  1
  H  H5  1  0.14535000  0.09261000  0.57017600  1
  H  H6  1  0.85465000  0.40739000  0.07017600  1
  H  H7  1  0.64535000  0.90739000  0.92982400  1
  H  H8  1  0.74993200  0.57117300  0.63289000  1
  H  H9  1  0.75006800  0.07117300  0.36711000  1
  H  H10  1  0.24993200  0.42882700  0.86711000  1
  H  H11  1  0.25006800  0.92882700  0.13289000  1
  H  H12  1  0.25006800  0.42882700  0.36711000  1
  H  H13  1  0.24993200  0.92882700  0.63289000  1
  H  H14  1  0.75006800  0.57117300  0.13289000  1
  H  H15  1  0.74993200  0.07117300  0.86711000  1
  H  H16  1  0.80570300  0.48585100  0.47590600  1
  H  H17  1  0.69429700  0.98585100  0.52409400  1
  H  H18  1  0.30570300  0.51414900  0.02409400  1
  H  H19  1  0.19429700  0.01414900  0.97590600  1
  H  H20  1  0.19429700  0.51414900  0.52409400  1
  H  H21  1  0.30570300  0.01414900  0.47590600  1
  H  H22  1  0.69429700  0.48585100  0.97590600  1
  H  H23  1  0.80570300  0.98585100  0.02409400  1
  S  S24  1  0.90739400  0.33215600  0.67066000  1
  S  S25  1  0.59260600  0.83215600  0.32934000  1
  S  S26  1  0.40739400  0.66784400  0.82934000  1
  S  S27  1  0.09260600  0.16784400  0.17066000  1
  S  S28  1  0.09260600  0.66784400  0.32934000  1
  S  S29  1  0.40739400  0.16784400  0.67066000  1
  S  S30  1  0.59260600  0.33215600  0.17066000  1
  S  S31  1  0.90739400  0.83215600  0.82934000  1
  N  N32  1  0.76044500  0.46180800  0.57760500  1
  N  N33  1  0.73955500  0.96180800  0.42239500  1
  N  N34  1  0.26044500  0.53819200  0.92239500  1
  N  N35  1  0.23955500  0.03819200  0.07760500  1
  N  N36  1  0.23955500  0.53819200  0.42239500  1
  N  N37  1  0.26044500  0.03819200  0.57760500  1
  N  N38  1  0.73955500  0.46180800  0.07760500  1
  N  N39  1  0.76044500  0.96180800  0.92239500  1
  O  O40  1  0.04822600  0.44124400  0.67749600  1
  O  O41  1  0.45177400  0.94124400  0.32250400  1
  O  O42  1  0.54822600  0.55875600  0.82250400  1
  O  O43  1  0.95177400  0.05875600  0.17749600  1
  O  O44  1  0.95177400  0.55875600  0.32250400  1
  O  O45  1  0.54822600  0.05875600  0.67749600  1
  O  O46  1  0.45177400  0.44124400  0.17749600  1
  O  O47  1  0.04822600  0.94124400  0.82250400  1
  O  O48  1  0.92488500  0.19427300  0.57446700  1
  O  O49  1  0.57511500  0.69427300  0.42553300  1
  O  O50  1  0.42488500  0.80572700  0.92553300  1
  O  O51  1  0.07511500  0.30572700  0.07446700  1
  O  O52  1  0.07511500  0.80572700  0.42553300  1
  O  O53  1  0.42488500  0.30572700  0.57446700  1
  O  O54  1  0.57511500  0.19427300  0.07446700  1
  O  O55  1  0.92488500  0.69427300  0.92553300  1
  O  O56  1  0.82570600  0.29850000  0.80469900  1
  O  O57  1  0.67429400  0.79850000  0.19530100  1
  O  O58  1  0.32570600  0.70150000  0.69530100  1
  O  O59  1  0.17429400  0.20150000  0.30469900  1
  O  O60  1  0.17429400  0.70150000  0.19530100  1
  O  O61  1  0.32570600  0.20150000  0.80469900  1
  O  O62  1  0.67429400  0.29850000  0.30469900  1
  O  O63  1  0.82570600  0.79850000  0.69530100  1
