# generated using pymatgen
data_Li2Mn5(FeO6)2
_symmetry_space_group_name_H-M   'P 1'
_cell_length_a   8.45989400
_cell_length_b   8.45219200
_cell_length_c   13.69491075
_cell_angle_alpha   90.00000000
_cell_angle_beta   107.74737149
_cell_angle_gamma   90.00000000
_symmetry_Int_Tables_number   1
_chemical_formula_structural   Li2Mn5(FeO6)2
_chemical_formula_sum   'Li8 Mn20 Fe8 O48'
_cell_volume   932.64707020
_cell_formula_units_Z   4
loop_
 _symmetry_equiv_pos_site_id
 _symmetry_equiv_pos_as_xyz
  1  'x, y, z'
loop_
 _atom_site_type_symbol
 _atom_site_label
 _atom_site_symmetry_multiplicity
 _atom_site_fract_x
 _atom_site_fract_y
 _atom_site_fract_z
 _atom_site_occupancy
  Li  Li0  1  0.16509800  0.12826600  0.08523100  1
  Li  Li1  1  0.49548700  0.86687400  0.24592200  1
  Li  Li2  1  0.16509800  0.87173400  0.58523100  1
  Li  Li3  1  0.49548700  0.13312600  0.74592200  1
  Li  Li4  1  0.66509800  0.62826600  0.08523100  1
  Li  Li5  1  0.99548700  0.36687400  0.24592200  1
  Li  Li6  1  0.66509800  0.37173400  0.58523100  1
  Li  Li7  1  0.99548700  0.63312600  0.74592200  1
  Mn  Mn8  1  0.49623700  0.00341500  0.99633000  1
  Mn  Mn9  1  0.58462250  0.24975550  0.16764200  1
  Mn  Mn10  1  0.83385450  0.00058750  0.16634700  1
  Mn  Mn11  1  0.16816850  0.00076250  0.33844400  1
  Mn  Mn12  1  0.41634500  0.24564900  0.33601100  1
  Mn  Mn13  1  0.49623700  0.99658500  0.49633000  1
  Mn  Mn14  1  0.83385450  0.99941250  0.66634700  1
  Mn  Mn15  1  0.58462250  0.75024450  0.66764200  1
  Mn  Mn16  1  0.41634500  0.75435100  0.83601100  1
  Mn  Mn17  1  0.16816850  0.99923750  0.83844400  1
  Mn  Mn18  1  0.99623700  0.50341500  0.99633000  1
  Mn  Mn19  1  0.08462250  0.74975550  0.16764200  1
  Mn  Mn20  1  0.33385450  0.50058750  0.16634700  1
  Mn  Mn21  1  0.66816850  0.50076250  0.33844400  1
  Mn  Mn22  1  0.91634500  0.74564900  0.33601100  1
  Mn  Mn23  1  0.99623700  0.49658500  0.49633000  1
  Mn  Mn24  1  0.33385450  0.49941250  0.66634700  1
  Mn  Mn25  1  0.08462250  0.25024450  0.66764200  1
  Mn  Mn26  1  0.91634500  0.25435100  0.83601100  1
  Mn  Mn27  1  0.66816850  0.49923750  0.83844400  1
  Fe  Fe28  1  0.25317900  0.75415900  0.99871300  1
  Fe  Fe29  1  0.83647500  0.12999800  0.41642600  1
  Fe  Fe30  1  0.25317900  0.24584100  0.49871300  1
  Fe  Fe31  1  0.83647500  0.87000200  0.91642600  1
  Fe  Fe32  1  0.75317900  0.25415900  0.99871300  1
  Fe  Fe33  1  0.33647500  0.62999800  0.41642600  1
  Fe  Fe34  1  0.75317900  0.74584100  0.49871300  1
  Fe  Fe35  1  0.33647500  0.37000200  0.91642600  1
  O  O36  1  0.75874150  0.01144850  0.99639800  1
  O  O37  1  0.50743550  0.23596250  0.99873400  1
  O  O38  1  0.31126050  0.73575750  0.15351400  1
  O  O39  1  0.59294000  0.01482000  0.15230600  1
  O  O40  1  0.07953300  0.98432700  0.18581400  1
  O  O41  1  0.35742550  0.26546350  0.18334700  1
  O  O42  1  0.65365450  0.26356950  0.33869500  1
  O  O43  1  0.93259250  0.00827550  0.33379200  1
  O  O44  1  0.39651250  0.98986550  0.34470700  1
  O  O45  1  0.68532700  0.72847100  0.33824600  1
  O  O46  1  0.23554200  0.01086300  0.48617700  1
  O  O47  1  0.48402800  0.22622300  0.48778800  1
  O  O48  1  0.75874150  0.98855150  0.49639800  1
  O  O49  1  0.50743550  0.76403750  0.49873400  1
  O  O50  1  0.31126050  0.26424250  0.65351400  1
  O  O51  1  0.59294000  0.98518000  0.65230600  1
  O  O52  1  0.35742550  0.73453650  0.68334700  1
  O  O53  1  0.07953300  0.01567300  0.68581400  1
  O  O54  1  0.65365450  0.73643050  0.83869500  1
  O  O55  1  0.93259250  0.99172450  0.83379200  1
  O  O56  1  0.39651250  0.01013450  0.84470700  1
  O  O57  1  0.68532700  0.27152900  0.83824600  1
  O  O58  1  0.48402800  0.77377700  0.98778800  1
  O  O59  1  0.23554200  0.98913700  0.98617700  1
  O  O60  1  0.25874150  0.51144850  0.99639800  1
  O  O61  1  0.00743550  0.73596250  0.99873400  1
  O  O62  1  0.81126050  0.23575750  0.15351400  1
  O  O63  1  0.09294000  0.51482000  0.15230600  1
  O  O64  1  0.57953300  0.48432700  0.18581400  1
  O  O65  1  0.85742550  0.76546350  0.18334700  1
  O  O66  1  0.15365450  0.76356950  0.33869500  1
  O  O67  1  0.43259250  0.50827550  0.33379200  1
  O  O68  1  0.89651250  0.48986550  0.34470700  1
  O  O69  1  0.18532700  0.22847100  0.33824600  1
  O  O70  1  0.73554200  0.51086300  0.48617700  1
  O  O71  1  0.98402800  0.72622300  0.48778800  1
  O  O72  1  0.25874150  0.48855150  0.49639800  1
  O  O73  1  0.00743550  0.26403750  0.49873400  1
  O  O74  1  0.81126050  0.76424250  0.65351400  1
  O  O75  1  0.09294000  0.48518000  0.65230600  1
  O  O76  1  0.85742550  0.23453650  0.68334700  1
  O  O77  1  0.57953300  0.51567300  0.68581400  1
  O  O78  1  0.15365450  0.23643050  0.83869500  1
  O  O79  1  0.43259250  0.49172450  0.83379200  1
  O  O80  1  0.89651250  0.51013450  0.84470700  1
  O  O81  1  0.18532700  0.77152900  0.83824600  1
  O  O82  1  0.98402800  0.27377700  0.98778800  1
  O  O83  1  0.73554200  0.48913700  0.98617700  1
