# generated using pymatgen
data_V7O13
_symmetry_space_group_name_H-M   'P 1'
_cell_length_a   5.57402985
_cell_length_b   7.09021385
_cell_length_c   11.45292962
_cell_angle_alpha   96.57026476
_cell_angle_beta   90.02236272
_cell_angle_gamma   108.18567289
_symmetry_Int_Tables_number   1
_chemical_formula_structural   V7O13
_chemical_formula_sum   'V14 O26'
_cell_volume   426.88615195
_cell_formula_units_Z   2
loop_
 _symmetry_equiv_pos_site_id
 _symmetry_equiv_pos_as_xyz
  1  'x, y, z'
loop_
 _atom_site_type_symbol
 _atom_site_label
 _atom_site_symmetry_multiplicity
 _atom_site_fract_x
 _atom_site_fract_y
 _atom_site_fract_z
 _atom_site_occupancy
  V  V0  1  0.59290000  0.75468500  0.64046000  1
  V  V1  1  0.38966000  0.22695500  0.36070900  1
  V  V2  1  0.79127400  0.49169700  0.20959600  1
  V  V3  1  0.20900900  0.51298600  0.79867500  1
  V  V4  1  0.20979100  0.71765000  0.05370800  1
  V  V5  1  0.78572500  0.28726200  0.94882400  1
  V  V6  1  0.80040700  0.78803200  0.94039000  1
  V  V7  1  0.20437500  0.21913400  0.05974700  1
  V  V8  1  0.78271500  0.97843100  0.20549800  1
  V  V9  1  0.20023000  0.01802400  0.78518100  1
  V  V10  1  0.61967600  0.26713600  0.65367600  1
  V  V11  1  0.38618000  0.73286200  0.35428200  1
  V  V12  1  0.99722900  0.99673200  0.49544000  1
  V  V13  1  0.00104000  0.49766900  0.50135800  1
  O  O14  1  0.13281700  0.77136900  0.87982600  1
  O  O15  1  0.87225200  0.24315800  0.12086100  1
  O  O16  1  0.58906000  0.69341900  0.82036300  1
  O  O17  1  0.41641000  0.29880700  0.18131100  1
  O  O18  1  0.95138800  0.07422100  0.90950200  1
  O  O19  1  0.05263300  0.93213000  0.09004200  1
  O  O20  1  0.84856700  0.36577900  0.79595700  1
  O  O21  1  0.14154000  0.63453500  0.20690200  1
  O  O22  1  0.10575600  0.75723900  0.44935900  1
  O  O23  1  0.90918900  0.24481900  0.54451500  1
  O  O24  1  0.32567800  0.28526700  0.75027100  1
  O  O25  1  0.66996000  0.69672600  0.25160100  1
  O  O26  1  0.19498400  0.44661300  0.97723400  1
  O  O27  1  0.81181600  0.55946400  0.02651100  1
  O  O28  1  0.03624000  0.07287400  0.32958500  1
  O  O29  1  0.97059100  0.93425500  0.66879900  1
  O  O30  1  0.75176300  0.39453400  0.35566300  1
  O  O31  1  0.25113000  0.59723400  0.63608200  1
  O  O32  1  0.49524400  0.98817400  0.70655400  1
  O  O33  1  0.48214200  0.98935300  0.29894200  1
  O  O34  1  0.45750700  0.16780500  0.94640300  1
  O  O35  1  0.54305700  0.83274000  0.05448800  1
  O  O36  1  0.28555200  0.47298900  0.39335500  1
  O  O37  1  0.72796300  0.54653400  0.60130100  1
  O  O38  1  0.62845400  0.83483000  0.48828500  1
  O  O39  1  0.37809700  0.17587600  0.50874400  1
