# generated using pymatgen
data_H12C4N2O9
_symmetry_space_group_name_H-M   'P 1'
_cell_length_a   6.98272100
_cell_length_b   11.32714900
_cell_length_c   12.49471800
_cell_angle_alpha   90.00000000
_cell_angle_beta   90.00000000
_cell_angle_gamma   90.00000000
_symmetry_Int_Tables_number   1
_chemical_formula_structural   H12C4N2O9
_chemical_formula_sum   'H48 C16 N8 O36'
_cell_volume   988.26123870
_cell_formula_units_Z   4
loop_
 _symmetry_equiv_pos_site_id
 _symmetry_equiv_pos_as_xyz
  1  'x, y, z'
loop_
 _atom_site_type_symbol
 _atom_site_label
 _atom_site_symmetry_multiplicity
 _atom_site_fract_x
 _atom_site_fract_y
 _atom_site_fract_z
 _atom_site_occupancy
  H  H0  1  0.30042900  0.28320700  0.49568600  1
  H  H1  1  0.19957100  0.78320700  0.00431400  1
  H  H2  1  0.69957100  0.71679300  0.99568600  1
  H  H3  1  0.80042900  0.21679300  0.50431400  1
  H  H4  1  0.69957100  0.71679300  0.50431400  1
  H  H5  1  0.80042900  0.21679300  0.99568600  1
  H  H6  1  0.30042900  0.28320700  0.00431400  1
  H  H7  1  0.19957100  0.78320700  0.49568600  1
  H  H8  1  0.86138300  0.65856300  0.18697500  1
  H  H9  1  0.63861700  0.15856300  0.31302500  1
  H  H10  1  0.13861700  0.34143700  0.68697500  1
  H  H11  1  0.36138300  0.84143700  0.81302500  1
  H  H12  1  0.13861700  0.34143700  0.81302500  1
  H  H13  1  0.36138300  0.84143700  0.68697500  1
  H  H14  1  0.86138300  0.65856300  0.31302500  1
  H  H15  1  0.63861700  0.15856300  0.18697500  1
  H  H16  1  0.48643400  0.88689100  0.31779600  1
  H  H17  1  0.01356600  0.38689100  0.18220400  1
  H  H18  1  0.51356600  0.11310900  0.81779600  1
  H  H19  1  0.98643400  0.61310900  0.68220400  1
  H  H20  1  0.51356600  0.11310900  0.68220400  1
  H  H21  1  0.98643400  0.61310900  0.81779600  1
  H  H22  1  0.48643400  0.88689100  0.18220400  1
  H  H23  1  0.01356600  0.38689100  0.31779600  1
  H  H24  1  0.61743100  0.78729300  0.25000000  1
  H  H25  1  0.88256900  0.28729300  0.25000000  1
  H  H26  1  0.38256900  0.21270700  0.75000000  1
  H  H27  1  0.11743100  0.71270700  0.75000000  1
  H  H28  1  0.37853500  0.77472100  0.25000000  1
  H  H29  1  0.12146500  0.27472100  0.25000000  1
  H  H30  1  0.62146500  0.22527900  0.75000000  1
  H  H31  1  0.87853500  0.72527900  0.75000000  1
  H  H32  1  0.95444300  0.85378300  0.25000000  1
  H  H33  1  0.54555700  0.35378300  0.25000000  1
  H  H34  1  0.04555700  0.14621700  0.75000000  1
  H  H35  1  0.45444300  0.64621700  0.75000000  1
  H  H36  1  0.87694200  0.99423500  0.25000000  1
  H  H37  1  0.62305800  0.49423500  0.25000000  1
  H  H38  1  0.12305800  0.00576500  0.75000000  1
  H  H39  1  0.37694200  0.50576500  0.75000000  1
  H  H40  1  0.07730700  0.96069300  0.31835300  1
  H  H41  1  0.42269300  0.46069300  0.18164700  1
  H  H42  1  0.92269300  0.03930700  0.81835300  1
  H  H43  1  0.57730700  0.53930700  0.68164700  1
  H  H44  1  0.92269300  0.03930700  0.68164700  1
  H  H45  1  0.57730700  0.53930700  0.81835300  1
  H  H46  1  0.07730700  0.96069300  0.18164700  1
  H  H47  1  0.42269300  0.46069300  0.31835300  1
  C  C48  1  0.26738200  0.99044000  0.51137100  1
  C  C49  1  0.23261800  0.49044000  0.98862900  1
  C  C50  1  0.73261800  0.00956000  0.01137100  1
  C  C51  1  0.76738200  0.50956000  0.48862900  1
  C  C52  1  0.73261800  0.00956000  0.48862900  1
  C  C53  1  0.76738200  0.50956000  0.01137100  1
  C  C54  1  0.26738200  0.99044000  0.98862900  1
  C  C55  1  0.23261800  0.49044000  0.51137100  1
  C  C56  1  0.25039300  0.11729500  0.46429900  1
  C  C57  1  0.24960700  0.61729500  0.03570100  1
  C  C58  1  0.74960700  0.88270500  0.96429900  1
  C  C59  1  0.75039300  0.38270500  0.53570100  1
  C  C60  1  0.74960700  0.88270500  0.53570100  1
  C  C61  1  0.75039300  0.38270500  0.96429900  1
  C  C62  1  0.25039300  0.11729500  0.03570100  1
  C  C63  1  0.24960700  0.61729500  0.46429900  1
  N  N64  1  0.48912900  0.83505500  0.25000000  1
  N  N65  1  0.01087100  0.33505500  0.25000000  1
  N  N66  1  0.51087100  0.16494500  0.75000000  1
  N  N67  1  0.98912900  0.66494500  0.75000000  1
  N  N68  1  0.99708300  0.94227900  0.25000000  1
  N  N69  1  0.50291700  0.44227900  0.25000000  1
  N  N70  1  0.00291700  0.05772100  0.75000000  1
  N  N71  1  0.49708300  0.55772100  0.75000000  1
  O  O72  1  0.33830100  0.97751700  0.60338300  1
  O  O73  1  0.16169900  0.47751700  0.89661700  1
  O  O74  1  0.66169900  0.02248300  0.10338300  1
  O  O75  1  0.83830100  0.52248300  0.39661700  1
  O  O76  1  0.66169900  0.02248300  0.39661700  1
  O  O77  1  0.83830100  0.52248300  0.10338300  1
  O  O78  1  0.33830100  0.97751700  0.89661700  1
  O  O79  1  0.16169900  0.47751700  0.60338300  1
  O  O80  1  0.20559600  0.90927600  0.44933400  1
  O  O81  1  0.29440400  0.40927600  0.05066600  1
  O  O82  1  0.79440400  0.09072400  0.94933400  1
  O  O83  1  0.70559600  0.59072400  0.55066600  1
  O  O84  1  0.79440400  0.09072400  0.55066600  1
  O  O85  1  0.70559600  0.59072400  0.94933400  1
  O  O86  1  0.20559600  0.90927600  0.05066600  1
  O  O87  1  0.29440400  0.40927600  0.44933400  1
  O  O88  1  0.31384000  0.19986700  0.53012000  1
  O  O89  1  0.18616000  0.69986700  0.96988000  1
  O  O90  1  0.68616000  0.80013300  0.03012000  1
  O  O91  1  0.81384000  0.30013300  0.46988000  1
  O  O92  1  0.68616000  0.80013300  0.46988000  1
  O  O93  1  0.81384000  0.30013300  0.03012000  1
  O  O94  1  0.31384000  0.19986700  0.96988000  1
  O  O95  1  0.18616000  0.69986700  0.53012000  1
  O  O96  1  0.18360800  0.13500200  0.37444000  1
  O  O97  1  0.31639200  0.63500200  0.12556000  1
  O  O98  1  0.81639200  0.86499800  0.87444000  1
  O  O99  1  0.68360800  0.36499800  0.62556000  1
  O  O100  1  0.81639200  0.86499800  0.62556000  1
  O  O101  1  0.68360800  0.36499800  0.87444000  1
  O  O102  1  0.18360800  0.13500200  0.12556000  1
  O  O103  1  0.31639200  0.63500200  0.37444000  1
  O  O104  1  0.84977300  0.71127100  0.25000000  1
  O  O105  1  0.65022700  0.21127100  0.25000000  1
  O  O106  1  0.15022700  0.28872900  0.75000000  1
  O  O107  1  0.34977300  0.78872900  0.75000000  1
