# generated using pymatgen
data_Rb10Al24Cd7(SiO4)24
_symmetry_space_group_name_H-M   'P 1'
_cell_length_a   17.82216700
_cell_length_b   17.82631076
_cell_length_c   17.83688915
_cell_angle_alpha   60.10388980
_cell_angle_beta   60.06538753
_cell_angle_gamma   60.03464071
_symmetry_Int_Tables_number   1
_chemical_formula_structural   Rb10Al24Cd7(SiO4)24
_chemical_formula_sum   'Rb10 Al24 Cd7 Si24 O96'
_cell_volume   4013.23206330
_cell_formula_units_Z   1
loop_
 _symmetry_equiv_pos_site_id
 _symmetry_equiv_pos_as_xyz
  1  'x, y, z'
loop_
 _atom_site_type_symbol
 _atom_site_label
 _atom_site_symmetry_multiplicity
 _atom_site_fract_x
 _atom_site_fract_y
 _atom_site_fract_z
 _atom_site_occupancy
  Rb  Rb0  1  0.74085500  0.74070100  0.27296600  1
  Rb  Rb1  1  0.58974800  0.15473300  0.58888000  1
  Rb  Rb2  1  0.15612600  0.59071600  0.58770600  1
  Rb  Rb3  1  0.59141300  0.59139600  0.15764100  1
  Rb  Rb4  1  0.25052700  0.75050400  0.25076000  1
  Rb  Rb5  1  0.75052200  0.25030300  0.25102300  1
  Rb  Rb6  1  0.16079100  0.16168200  0.58751000  1
  Rb  Rb7  1  0.59047100  0.15522900  0.16354500  1
  Rb  Rb8  1  0.15521700  0.58945500  0.16363200  1
  Rb  Rb9  1  0.24938500  0.24955200  0.25032900  1
  Al  Al10  1  0.60741800  0.78797300  0.96389500  1
  Al  Al11  1  0.96490300  0.60801400  0.78856000  1
  Al  Al12  1  0.78869600  0.96332100  0.60722300  1
  Al  Al13  1  0.78903600  0.13861600  0.96896200  1
  Al  Al14  1  0.13905600  0.96880900  0.78904500  1
  Al  Al15  1  0.13912000  0.60209500  0.96952600  1
  Al  Al16  1  0.21429500  0.39819700  0.86079500  1
  Al  Al17  1  0.60188300  0.13790800  0.78903500  1
  Al  Al18  1  0.97006800  0.13727200  0.60244900  1
  Al  Al19  1  0.39890200  0.02704100  0.85934100  1
  Al  Al20  1  0.13943900  0.78958200  0.60159700  1
  Al  Al21  1  0.96654300  0.78970800  0.13719100  1
  Al  Al22  1  0.02641200  0.21614600  0.86013300  1
  Al  Al23  1  0.86002300  0.21522700  0.39616900  1
  Al  Al24  1  0.60533300  0.96616300  0.13859000  1
  Al  Al25  1  0.02941300  0.85799900  0.39683900  1
  Al  Al26  1  0.39648900  0.85970600  0.21417100  1
  Al  Al27  1  0.78923600  0.60499200  0.13879300  1
  Al  Al28  1  0.85868100  0.39691900  0.03043200  1
  Al  Al29  1  0.85825400  0.02994500  0.21610300  1
  Al  Al30  1  0.21555200  0.85954100  0.02960200  1
  Al  Al31  1  0.21585800  0.02891000  0.39542700  1
  Al  Al32  1  0.02982900  0.39629100  0.21474100  1
  Al  Al33  1  0.39587000  0.21415700  0.02973800  1
  Cd  Cd34  1  0.99818200  0.99896100  0.00749700  1
  Cd  Cd35  1  0.99407800  0.50201200  0.00277600  1
  Cd  Cd36  1  0.50236600  0.99274600  0.00248600  1
  Cd  Cd37  1  0.99950100  0.99883300  0.49453200  1
  Cd  Cd38  1  0.16750200  0.77545800  0.77709400  1
  Cd  Cd39  1  0.77921800  0.15676200  0.78010800  1
  Cd  Cd40  1  0.21520100  0.21608000  0.85413700  1
  Si  Si41  1  0.78932800  0.60415800  0.96383000  1
  Si  Si42  1  0.60490000  0.96418000  0.78920500  1
  Si  Si43  1  0.96481900  0.78913500  0.60444900  1
  Si  Si44  1  0.14192000  0.78879600  0.96486100  1
  Si  Si45  1  0.96636600  0.13858300  0.78923700  1
  Si  Si46  1  0.60360300  0.14084300  0.96599900  1
  Si  Si47  1  0.14096700  0.60469100  0.78805900  1
  Si  Si48  1  0.39700400  0.21087300  0.85646700  1
  Si  Si49  1  0.14275400  0.96575100  0.60339200  1
  Si  Si50  1  0.03536500  0.39920700  0.85526600  1
  Si  Si51  1  0.78871700  0.14016200  0.60398700  1
  Si  Si52  1  0.78972100  0.96484900  0.14125600  1
  Si  Si53  1  0.21014900  0.03646200  0.85672700  1
  Si  Si54  1  0.21091100  0.85487900  0.39763100  1
  Si  Si55  1  0.96491000  0.60382700  0.14123700  1
  Si  Si56  1  0.85299600  0.03667600  0.39984500  1
  Si  Si57  1  0.60398100  0.78885600  0.14181700  1
  Si  Si58  1  0.85433700  0.39874300  0.21091900  1
  Si  Si59  1  0.39954100  0.85412200  0.03621000  1
  Si  Si60  1  0.03699700  0.85374700  0.21037000  1
  Si  Si61  1  0.85524700  0.21032800  0.03679800  1
  Si  Si62  1  0.03739800  0.21020400  0.39805900  1
  Si  Si63  1  0.39922700  0.03696400  0.21006700  1
  Si  Si64  1  0.21022100  0.39771300  0.03688800  1
  O  O65  1  0.68699500  0.67854100  0.98361200  1
  O  O66  1  0.41039200  0.95841700  0.96927400  1
  O  O67  1  0.97101200  0.40907900  0.95814600  1
  O  O68  1  0.77705600  0.50491100  0.00149400  1
  O  O69  1  0.63261100  0.85857300  0.85125600  1
  O  O70  1  0.85274300  0.63211500  0.85818800  1
  O  O71  1  0.50537900  0.00648100  0.77455200  1
  O  O72  1  0.95819600  0.16053200  0.96902800  1
  O  O73  1  0.16054400  0.97096500  0.95795900  1
  O  O74  1  0.67923800  0.98633800  0.68738300  1
  O  O75  1  0.98732700  0.68675400  0.67888700  1
  O  O76  1  0.21783100  0.78070900  0.99514700  1
  O  O77  1  0.85875200  0.85101800  0.63385400  1
  O  O78  1  0.15505600  0.68770300  0.97526100  1
  O  O79  1  0.68213800  0.15365300  0.97533700  1
  O  O80  1  0.00023600  0.21335000  0.77904500  1
  O  O81  1  0.00379400  0.77541700  0.50584500  1
  O  O82  1  0.95717700  0.96902700  0.40970100  1
  O  O83  1  0.50605800  0.21775700  0.99622700  1
  O  O84  1  0.85470600  0.15304200  0.84904500  1
  O  O85  1  0.15725800  0.84907500  0.85221500  1
  O  O86  1  0.97945400  0.15007600  0.68796100  1
  O  O87  1  0.16013800  0.41267000  0.96968200  1
  O  O88  1  0.15706300  0.63940800  0.84968600  1
  O  O89  1  0.64001000  0.15462000  0.85435700  1
  O  O90  1  0.41046300  0.16111100  0.95769400  1
  O  O91  1  0.15422600  0.97841200  0.68096800  1
  O  O92  1  0.31824000  0.31030900  0.84422200  1
  O  O93  1  0.03649900  0.59908000  0.84062700  1
  O  O94  1  0.59406100  0.02679700  0.84302300  1
  O  O95  1  0.85097500  0.15241800  0.64191800  1
  O  O96  1  0.15775300  0.85390300  0.64053800  1
  O  O97  1  0.21631200  0.50606000  0.77783200  1
  O  O98  1  0.49518600  0.21449300  0.77533200  1
  O  O99  1  0.96896900  0.95751900  0.16330800  1
  O  O100  1  0.77616700  0.00297700  0.21486900  1
  O  O101  1  0.21822200  0.99819600  0.50593400  1
  O  O102  1  0.15667100  0.68309200  0.68799600  1
  O  O103  1  0.68804200  0.15539700  0.68278800  1
  O  O104  1  0.14621100  0.35788800  0.84953100  1
  O  O105  1  0.35694800  0.14701000  0.84998700  1
  O  O106  1  0.01787800  0.49786000  0.77506300  1
  O  O107  1  0.84106900  0.03578800  0.59745000  1
  O  O108  1  0.02734800  0.84254400  0.59509100  1
  O  O109  1  0.02828500  0.32022200  0.84151500  1
  O  O110  1  0.30968800  0.02824300  0.84357300  1
  O  O111  1  0.85116400  0.85702500  0.15734200  1
  O  O112  1  0.77962100  0.21785200  0.50691000  1
  O  O113  1  0.21853600  0.77555400  0.49693300  1
  O  O114  1  0.14571200  0.14665600  0.84988200  1
  O  O115  1  0.68752100  0.98159000  0.15053700  1
  O  O116  1  0.98196700  0.68024800  0.14998800  1
  O  O117  1  0.96972500  0.16162100  0.41231900  1
  O  O118  1  0.16188900  0.95752000  0.41164900  1
  O  O119  1  0.00402600  0.50579300  0.21470800  1
  O  O120  1  0.63344700  0.85142800  0.15817100  1
  O  O121  1  0.85702100  0.63347200  0.15869000  1
  O  O122  1  0.31193800  0.84236900  0.32106500  1
  O  O123  1  0.84139300  0.32209300  0.31231700  1
  O  O124  1  0.77401500  0.01194800  0.49965500  1
  O  O125  1  0.21198800  0.01625600  0.77607500  1
  O  O126  1  0.02510600  0.03401200  0.84222700  1
  O  O127  1  0.50520900  0.77691400  0.21649600  1
  O  O128  1  0.77503900  0.49813100  0.21604300  1
  O  O129  1  0.84529600  0.14295100  0.36854900  1
  O  O130  1  0.14420800  0.84594200  0.36715900  1
  O  O131  1  0.41111900  0.96991800  0.16218600  1
  O  O132  1  0.95792500  0.41049600  0.16265200  1
  O  O133  1  0.67990600  0.68661200  0.15622600  1
  O  O134  1  0.83872500  0.02671000  0.32291800  1
  O  O135  1  0.59753600  0.83962500  0.03601700  1
  O  O136  1  0.36572000  0.84738100  0.14233100  1
  O  O137  1  0.84688000  0.36568300  0.14488000  1
  O  O138  1  0.84130200  0.59535800  0.02689400  1
  O  O139  1  0.02607700  0.83937400  0.31169700  1
  O  O140  1  0.84653800  0.14431800  0.14245400  1
  O  O141  1  0.14327000  0.84573000  0.14348000  1
  O  O142  1  0.49875200  0.77557100  0.01030900  1
  O  O143  1  0.03721700  0.02347000  0.59843800  1
  O  O144  1  0.01141800  0.21552000  0.49837500  1
  O  O145  1  0.01289300  0.77512500  0.21226400  1
  O  O146  1  0.32229900  0.84350800  0.02285100  1
  O  O147  1  0.84560800  0.31083200  0.02277100  1
  O  O148  1  0.14375100  0.14368200  0.36864300  1
  O  O149  1  0.77697200  0.21688900  0.00837100  1
  O  O150  1  0.02667100  0.31127400  0.32157300  1
  O  O151  1  0.32267500  0.02624000  0.31146600  1
  O  O152  1  0.84216800  0.02618700  0.03514700  1
  O  O153  1  0.03651200  0.84162300  0.02264900  1
  O  O154  1  0.49907400  0.01313400  0.21421500  1
  O  O155  1  0.14500900  0.36632900  0.14299000  1
  O  O156  1  0.36740700  0.14365700  0.14418800  1
  O  O157  1  0.21765600  0.49702000  0.00956500  1
  O  O158  1  0.02624000  0.59705500  0.03506200  1
  O  O159  1  0.59770100  0.03625800  0.02477700  1
  O  O160  1  0.31138800  0.32109200  0.02313800  1
