# generated using pymatgen
data_LiNb(PO3)4
_symmetry_space_group_name_H-M   'P 1'
_cell_length_a   17.21540400
_cell_length_b   12.09340800
_cell_length_c   5.41934531
_cell_angle_alpha   90.00000000
_cell_angle_beta   101.03312243
_cell_angle_gamma   90.00000000
_symmetry_Int_Tables_number   1
_chemical_formula_structural   LiNb(PO3)4
_chemical_formula_sum   'Li4 Nb4 P16 O48'
_cell_volume   1107.41511714
_cell_formula_units_Z   4
loop_
 _symmetry_equiv_pos_site_id
 _symmetry_equiv_pos_as_xyz
  1  'x, y, z'
loop_
 _atom_site_type_symbol
 _atom_site_label
 _atom_site_symmetry_multiplicity
 _atom_site_fract_x
 _atom_site_fract_y
 _atom_site_fract_z
 _atom_site_occupancy
  Li  Li0  1  0.43760000  0.00000000  0.39164400  1
  Li  Li1  1  0.56240000  0.00000000  0.60835600  1
  Li  Li2  1  0.93760000  0.50000000  0.39164400  1
  Li  Li3  1  0.06240000  0.50000000  0.60835600  1
  Nb  Nb4  1  0.25000000  0.75000000  0.00000000  1
  Nb  Nb5  1  0.25000000  0.25000000  0.00000000  1
  Nb  Nb6  1  0.75000000  0.25000000  0.00000000  1
  Nb  Nb7  1  0.75000000  0.75000000  0.00000000  1
  P  P8  1  0.57389450  0.20600250  0.17811800  1
  P  P9  1  0.57389450  0.79399750  0.17811800  1
  P  P10  1  0.81982750  0.88062550  0.53697100  1
  P  P11  1  0.81982750  0.11937450  0.53697100  1
  P  P12  1  0.18017250  0.11937450  0.46302900  1
  P  P13  1  0.18017250  0.88062550  0.46302900  1
  P  P14  1  0.42610550  0.20600250  0.82188200  1
  P  P15  1  0.42610550  0.79399750  0.82188200  1
  P  P16  1  0.07389450  0.70600250  0.17811800  1
  P  P17  1  0.07389450  0.29399750  0.17811800  1
  P  P18  1  0.31982750  0.38062550  0.53697100  1
  P  P19  1  0.31982750  0.61937450  0.53697100  1
  P  P20  1  0.68017250  0.61937450  0.46302900  1
  P  P21  1  0.68017250  0.38062550  0.46302900  1
  P  P22  1  0.92610550  0.70600250  0.82188200  1
  P  P23  1  0.92610550  0.29399750  0.82188200  1
  O  O24  1  0.50000000  0.26690700  0.00000000  1
  O  O25  1  0.50000000  0.73309300  0.00000000  1
  O  O26  1  0.80063600  0.12308100  0.25340900  1
  O  O27  1  0.80063600  0.87691900  0.25340900  1
  O  O28  1  0.36470800  0.18479500  0.98461200  1
  O  O29  1  0.36470800  0.81520500  0.98461200  1
  O  O30  1  0.54697600  0.11262700  0.31852500  1
  O  O31  1  0.54697600  0.88737300  0.31852500  1
  O  O32  1  0.60333800  0.69338700  0.36881600  1
  O  O33  1  0.60333800  0.30661300  0.36881600  1
  O  O34  1  0.85721800  0.00000000  0.61956100  1
  O  O35  1  0.24646200  0.14392600  0.32718200  1
  O  O36  1  0.24646200  0.85607400  0.32718200  1
  O  O37  1  0.75353800  0.14392600  0.67281800  1
  O  O38  1  0.75353800  0.85607400  0.67281800  1
  O  O39  1  0.14278200  0.00000000  0.38043900  1
  O  O40  1  0.39666200  0.30661300  0.63118400  1
  O  O41  1  0.39666200  0.69338700  0.63118400  1
  O  O42  1  0.45302400  0.11262700  0.68147500  1
  O  O43  1  0.45302400  0.88737300  0.68147500  1
  O  O44  1  0.63529200  0.18479500  0.01538800  1
  O  O45  1  0.63529200  0.81520500  0.01538800  1
  O  O46  1  0.19936400  0.12308100  0.74659100  1
  O  O47  1  0.19936400  0.87691900  0.74659100  1
  O  O48  1  0.00000000  0.76690700  0.00000000  1
  O  O49  1  0.00000000  0.23309300  0.00000000  1
  O  O50  1  0.30063600  0.62308100  0.25340900  1
  O  O51  1  0.30063600  0.37691900  0.25340900  1
  O  O52  1  0.86470800  0.68479500  0.98461200  1
  O  O53  1  0.86470800  0.31520500  0.98461200  1
  O  O54  1  0.04697600  0.61262700  0.31852500  1
  O  O55  1  0.04697600  0.38737300  0.31852500  1
  O  O56  1  0.10333800  0.19338700  0.36881600  1
  O  O57  1  0.10333800  0.80661300  0.36881600  1
  O  O58  1  0.35721800  0.50000000  0.61956100  1
  O  O59  1  0.74646200  0.64392600  0.32718200  1
  O  O60  1  0.74646200  0.35607400  0.32718200  1
  O  O61  1  0.25353800  0.64392600  0.67281800  1
  O  O62  1  0.25353800  0.35607400  0.67281800  1
  O  O63  1  0.64278200  0.50000000  0.38043900  1
  O  O64  1  0.89666200  0.80661300  0.63118400  1
  O  O65  1  0.89666200  0.19338700  0.63118400  1
  O  O66  1  0.95302400  0.61262700  0.68147500  1
  O  O67  1  0.95302400  0.38737300  0.68147500  1
  O  O68  1  0.13529200  0.68479500  0.01538800  1
  O  O69  1  0.13529200  0.31520500  0.01538800  1
  O  O70  1  0.69936400  0.62308100  0.74659100  1
  O  O71  1  0.69936400  0.37691900  0.74659100  1
