# generated using pymatgen
data_CsH24Rh(SO10)2
_symmetry_space_group_name_H-M   'P 1'
_cell_length_a   12.43859300
_cell_length_b   12.43859300
_cell_length_c   12.43859300
_cell_angle_alpha   90.00000000
_cell_angle_beta   90.00000000
_cell_angle_gamma   90.00000000
_symmetry_Int_Tables_number   1
_chemical_formula_structural   CsH24Rh(SO10)2
_chemical_formula_sum   'Cs4 H96 Rh4 S8 O80'
_cell_volume   1924.48164293
_cell_formula_units_Z   4
loop_
 _symmetry_equiv_pos_site_id
 _symmetry_equiv_pos_as_xyz
  1  'x, y, z'
loop_
 _atom_site_type_symbol
 _atom_site_label
 _atom_site_symmetry_multiplicity
 _atom_site_fract_x
 _atom_site_fract_y
 _atom_site_fract_z
 _atom_site_occupancy
  Cs  Cs0  1  0.00000000  0.00000000  0.50000000  1
  Cs  Cs1  1  0.00000000  0.50000000  0.00000000  1
  Cs  Cs2  1  0.50000000  0.00000000  0.00000000  1
  Cs  Cs3  1  0.50000000  0.50000000  0.50000000  1
  H  H4  1  0.20811000  0.62141400  0.17606000  1
  H  H5  1  0.79189000  0.12141400  0.32394000  1
  H  H6  1  0.29189000  0.37858600  0.67606000  1
  H  H7  1  0.70811000  0.87858600  0.82394000  1
  H  H8  1  0.17606000  0.20811000  0.62141400  1
  H  H9  1  0.32394000  0.79189000  0.12141400  1
  H  H10  1  0.67606000  0.29189000  0.37858600  1
  H  H11  1  0.82394000  0.70811000  0.87858600  1
  H  H12  1  0.62141400  0.17606000  0.20811000  1
  H  H13  1  0.12141400  0.32394000  0.79189000  1
  H  H14  1  0.37858600  0.67606000  0.29189000  1
  H  H15  1  0.87858600  0.82394000  0.70811000  1
  H  H16  1  0.79189000  0.37858600  0.82394000  1
  H  H17  1  0.20811000  0.87858600  0.67606000  1
  H  H18  1  0.70811000  0.62141400  0.32394000  1
  H  H19  1  0.29189000  0.12141400  0.17606000  1
  H  H20  1  0.82394000  0.79189000  0.37858600  1
  H  H21  1  0.67606000  0.20811000  0.87858600  1
  H  H22  1  0.32394000  0.70811000  0.62141400  1
  H  H23  1  0.17606000  0.29189000  0.12141400  1
  H  H24  1  0.37858600  0.82394000  0.79189000  1
  H  H25  1  0.87858600  0.67606000  0.20811000  1
  H  H26  1  0.62141400  0.32394000  0.70811000  1
  H  H27  1  0.12141400  0.17606000  0.29189000  1
  H  H28  1  0.23117400  0.50379500  0.21373900  1
  H  H29  1  0.76882600  0.00379500  0.28626100  1
  H  H30  1  0.26882600  0.49620500  0.71373900  1
  H  H31  1  0.73117400  0.99620500  0.78626100  1
  H  H32  1  0.21373900  0.23117400  0.50379500  1
  H  H33  1  0.28626100  0.76882600  0.00379500  1
  H  H34  1  0.71373900  0.26882600  0.49620500  1
  H  H35  1  0.78626100  0.73117400  0.99620500  1
  H  H36  1  0.50379500  0.21373900  0.23117400  1
  H  H37  1  0.00379500  0.28626100  0.76882600  1
  H  H38  1  0.49620500  0.71373900  0.26882600  1
  H  H39  1  0.99620500  0.78626100  0.73117400  1
  H  H40  1  0.76882600  0.49620500  0.78626100  1
  H  H41  1  0.23117400  0.99620500  0.71373900  1
  H  H42  1  0.73117400  0.50379500  0.28626100  1
  H  H43  1  0.26882600  0.00379500  0.21373900  1
  H  H44  1  0.78626100  0.76882600  0.49620500  1
  H  H45  1  0.71373900  0.23117400  0.99620500  1
  H  H46  1  0.28626100  0.73117400  0.50379500  1
  H  H47  1  0.21373900  0.26882600  0.00379500  1
  H  H48  1  0.49620500  0.78626100  0.76882600  1
  H  H49  1  0.99620500  0.71373900  0.23117400  1
  H  H50  1  0.50379500  0.28626100  0.73117400  1
  H  H51  1  0.00379500  0.21373900  0.26882600  1
  H  H52  1  0.57478600  0.69570400  0.02676000  1
  H  H53  1  0.42521400  0.19570400  0.47324000  1
  H  H54  1  0.92521400  0.30429600  0.52676000  1
  H  H55  1  0.07478600  0.80429600  0.97324000  1
  H  H56  1  0.02676000  0.57478600  0.69570400  1
  H  H57  1  0.47324000  0.42521400  0.19570400  1
  H  H58  1  0.52676000  0.92521400  0.30429600  1
  H  H59  1  0.97324000  0.07478600  0.80429600  1
  H  H60  1  0.69570400  0.02676000  0.57478600  1
  H  H61  1  0.19570400  0.47324000  0.42521400  1
  H  H62  1  0.30429600  0.52676000  0.92521400  1
  H  H63  1  0.80429600  0.97324000  0.07478600  1
  H  H64  1  0.42521400  0.30429600  0.97324000  1
  H  H65  1  0.57478600  0.80429600  0.52676000  1
  H  H66  1  0.07478600  0.69570400  0.47324000  1
  H  H67  1  0.92521400  0.19570400  0.02676000  1
  H  H68  1  0.97324000  0.42521400  0.30429600  1
  H  H69  1  0.52676000  0.57478600  0.80429600  1
  H  H70  1  0.47324000  0.07478600  0.69570400  1
  H  H71  1  0.02676000  0.92521400  0.19570400  1
  H  H72  1  0.30429600  0.97324000  0.42521400  1
  H  H73  1  0.80429600  0.52676000  0.57478600  1
  H  H74  1  0.69570400  0.47324000  0.07478600  1
  H  H75  1  0.19570400  0.02676000  0.92521400  1
  H  H76  1  0.44377900  0.70838100  0.02329300  1
  H  H77  1  0.55622100  0.20838100  0.47670700  1
  H  H78  1  0.05622100  0.29161900  0.52329300  1
  H  H79  1  0.94377900  0.79161900  0.97670700  1
  H  H80  1  0.02329300  0.44377900  0.70838100  1
  H  H81  1  0.47670700  0.55622100  0.20838100  1
  H  H82  1  0.52329300  0.05622100  0.29161900  1
  H  H83  1  0.97670700  0.94377900  0.79161900  1
  H  H84  1  0.70838100  0.02329300  0.44377900  1
  H  H85  1  0.20838100  0.47670700  0.55622100  1
  H  H86  1  0.29161900  0.52329300  0.05622100  1
  H  H87  1  0.79161900  0.97670700  0.94377900  1
  H  H88  1  0.55622100  0.29161900  0.97670700  1
  H  H89  1  0.44377900  0.79161900  0.52329300  1
  H  H90  1  0.94377900  0.70838100  0.47670700  1
  H  H91  1  0.05622100  0.20838100  0.02329300  1
  H  H92  1  0.97670700  0.55622100  0.29161900  1
  H  H93  1  0.52329300  0.44377900  0.79161900  1
  H  H94  1  0.47670700  0.94377900  0.70838100  1
  H  H95  1  0.02329300  0.05622100  0.20838100  1
  H  H96  1  0.29161900  0.97670700  0.55622100  1
  H  H97  1  0.79161900  0.52329300  0.44377900  1
  H  H98  1  0.70838100  0.47670700  0.94377900  1
  H  H99  1  0.20838100  0.02329300  0.05622100  1
  Rh  Rh100  1  0.50000000  0.50000000  0.00000000  1
  Rh  Rh101  1  0.50000000  0.00000000  0.50000000  1
  Rh  Rh102  1  0.00000000  0.50000000  0.50000000  1
  Rh  Rh103  1  0.00000000  0.00000000  0.00000000  1
  S  S104  1  0.18155900  0.81844100  0.31844100  1
  S  S105  1  0.81844100  0.31844100  0.18155900  1
  S  S106  1  0.31844100  0.18155900  0.81844100  1
  S  S107  1  0.68155900  0.68155900  0.68155900  1
  S  S108  1  0.81844100  0.18155900  0.68155900  1
  S  S109  1  0.18155900  0.68155900  0.81844100  1
  S  S110  1  0.68155900  0.81844100  0.18155900  1
  S  S111  1  0.31844100  0.31844100  0.31844100  1
  O  O112  1  0.25080800  0.74919200  0.24919200  1
  O  O113  1  0.74919200  0.24919200  0.25080800  1
  O  O114  1  0.24919200  0.25080800  0.74919200  1
  O  O115  1  0.75080800  0.75080800  0.75080800  1
  O  O116  1  0.74919200  0.25080800  0.75080800  1
  O  O117  1  0.25080800  0.75080800  0.74919200  1
  O  O118  1  0.75080800  0.74919200  0.25080800  1
  O  O119  1  0.24919200  0.24919200  0.24919200  1
  O  O120  1  0.06989700  0.82297800  0.27415600  1
  O  O121  1  0.93010300  0.32297800  0.22584400  1
  O  O122  1  0.43010300  0.17702200  0.77415600  1
  O  O123  1  0.56989700  0.67702200  0.72584400  1
  O  O124  1  0.27415600  0.06989700  0.82297800  1
  O  O125  1  0.22584400  0.93010300  0.32297800  1
  O  O126  1  0.77415600  0.43010300  0.17702200  1
  O  O127  1  0.72584400  0.56989700  0.67702200  1
  O  O128  1  0.82297800  0.27415600  0.06989700  1
  O  O129  1  0.32297800  0.22584400  0.93010300  1
  O  O130  1  0.17702200  0.77415600  0.43010300  1
  O  O131  1  0.67702200  0.72584400  0.56989700  1
  O  O132  1  0.93010300  0.17702200  0.72584400  1
  O  O133  1  0.06989700  0.67702200  0.77415600  1
  O  O134  1  0.56989700  0.82297800  0.22584400  1
  O  O135  1  0.43010300  0.32297800  0.27415600  1
  O  O136  1  0.72584400  0.93010300  0.17702200  1
  O  O137  1  0.77415600  0.06989700  0.67702200  1
  O  O138  1  0.22584400  0.56989700  0.82297800  1
  O  O139  1  0.27415600  0.43010300  0.32297800  1
  O  O140  1  0.17702200  0.72584400  0.93010300  1
  O  O141  1  0.67702200  0.77415600  0.06989700  1
  O  O142  1  0.82297800  0.22584400  0.56989700  1
  O  O143  1  0.32297800  0.27415600  0.43010300  1
  O  O144  1  0.21084800  0.54698900  0.14944800  1
  O  O145  1  0.78915200  0.04698900  0.35055200  1
  O  O146  1  0.28915200  0.45301100  0.64944800  1
  O  O147  1  0.71084800  0.95301100  0.85055200  1
  O  O148  1  0.14944800  0.21084800  0.54698900  1
  O  O149  1  0.35055200  0.78915200  0.04698900  1
  O  O150  1  0.64944800  0.28915200  0.45301100  1
  O  O151  1  0.85055200  0.71084800  0.95301100  1
  O  O152  1  0.54698900  0.14944800  0.21084800  1
  O  O153  1  0.04698900  0.35055200  0.78915200  1
  O  O154  1  0.45301100  0.64944800  0.28915200  1
  O  O155  1  0.95301100  0.85055200  0.71084800  1
  O  O156  1  0.78915200  0.45301100  0.85055200  1
  O  O157  1  0.21084800  0.95301100  0.64944800  1
  O  O158  1  0.71084800  0.54698900  0.35055200  1
  O  O159  1  0.28915200  0.04698900  0.14944800  1
  O  O160  1  0.85055200  0.78915200  0.45301100  1
  O  O161  1  0.64944800  0.21084800  0.95301100  1
  O  O162  1  0.35055200  0.71084800  0.54698900  1
  O  O163  1  0.14944800  0.28915200  0.04698900  1
  O  O164  1  0.45301100  0.85055200  0.78915200  1
  O  O165  1  0.95301100  0.64944800  0.21084800  1
  O  O166  1  0.54698900  0.35055200  0.71084800  1
  O  O167  1  0.04698900  0.14944800  0.28915200  1
  O  O168  1  0.50777600  0.66473100  0.99456000  1
  O  O169  1  0.49222400  0.16473100  0.50544000  1
  O  O170  1  0.99222400  0.33526900  0.49456000  1
  O  O171  1  0.00777600  0.83526900  0.00544000  1
  O  O172  1  0.99456000  0.50777600  0.66473100  1
  O  O173  1  0.50544000  0.49222400  0.16473100  1
  O  O174  1  0.49456000  0.99222400  0.33526900  1
  O  O175  1  0.00544000  0.00777600  0.83526900  1
  O  O176  1  0.66473100  0.99456000  0.50777600  1
  O  O177  1  0.16473100  0.50544000  0.49222400  1
  O  O178  1  0.33526900  0.49456000  0.99222400  1
  O  O179  1  0.83526900  0.00544000  0.00777600  1
  O  O180  1  0.49222400  0.33526900  0.00544000  1
  O  O181  1  0.50777600  0.83526900  0.49456000  1
  O  O182  1  0.00777600  0.66473100  0.50544000  1
  O  O183  1  0.99222400  0.16473100  0.99456000  1
  O  O184  1  0.00544000  0.49222400  0.33526900  1
  O  O185  1  0.49456000  0.50777600  0.83526900  1
  O  O186  1  0.50544000  0.00777600  0.66473100  1
  O  O187  1  0.99456000  0.99222400  0.16473100  1
  O  O188  1  0.33526900  0.00544000  0.49222400  1
  O  O189  1  0.83526900  0.49456000  0.50777600  1
  O  O190  1  0.66473100  0.50544000  0.00777600  1
  O  O191  1  0.16473100  0.99456000  0.99222400  1
