# generated using pymatgen
data_Li5FeF8
_symmetry_space_group_name_H-M   'P 1'
_cell_length_a   5.86550400
_cell_length_b   8.40684400
_cell_length_c   6.00598300
_cell_angle_alpha   90.00000000
_cell_angle_beta   90.00000000
_cell_angle_gamma   90.00000000
_symmetry_Int_Tables_number   1
_chemical_formula_structural   Li5FeF8
_chemical_formula_sum   'Li10 Fe2 F16'
_cell_volume   296.15728664
_cell_formula_units_Z   2
loop_
 _symmetry_equiv_pos_site_id
 _symmetry_equiv_pos_as_xyz
  1  'x, y, z'
loop_
 _atom_site_type_symbol
 _atom_site_label
 _atom_site_symmetry_multiplicity
 _atom_site_fract_x
 _atom_site_fract_y
 _atom_site_fract_z
 _atom_site_occupancy
  Li  Li0  1  0.25000000  0.75000000  0.77512700  1
  Li  Li1  1  0.25000000  0.75000000  0.22487300  1
  Li  Li2  1  0.50000000  0.00000000  0.00000000  1
  Li  Li3  1  0.25000000  0.25000000  0.77512700  1
  Li  Li4  1  0.25000000  0.25000000  0.22487300  1
  Li  Li5  1  0.75000000  0.25000000  0.77512700  1
  Li  Li6  1  0.75000000  0.25000000  0.22487300  1
  Li  Li7  1  0.00000000  0.50000000  0.00000000  1
  Li  Li8  1  0.75000000  0.75000000  0.77512700  1
  Li  Li9  1  0.75000000  0.75000000  0.22487300  1
  Fe  Fe10  1  0.50000000  0.00000000  0.50000000  1
  Fe  Fe11  1  0.00000000  0.50000000  0.50000000  1
  F  F12  1  0.50000000  0.76635400  0.00000000  1
  F  F13  1  0.50000000  0.76726800  0.50000000  1
  F  F14  1  0.27603600  0.00000000  0.73923900  1
  F  F15  1  0.72396400  0.00000000  0.73923900  1
  F  F16  1  0.27603600  0.00000000  0.26076100  1
  F  F17  1  0.72396400  0.00000000  0.26076100  1
  F  F18  1  0.50000000  0.23273200  0.50000000  1
  F  F19  1  0.50000000  0.23364600  0.00000000  1
  F  F20  1  0.00000000  0.26635400  0.00000000  1
  F  F21  1  0.00000000  0.26726800  0.50000000  1
  F  F22  1  0.77603600  0.50000000  0.73923900  1
  F  F23  1  0.22396400  0.50000000  0.73923900  1
  F  F24  1  0.77603600  0.50000000  0.26076100  1
  F  F25  1  0.22396400  0.50000000  0.26076100  1
  F  F26  1  0.00000000  0.73273200  0.50000000  1
  F  F27  1  0.00000000  0.73364600  0.00000000  1
