# generated using pymatgen
data_Sn2P2O7
_symmetry_space_group_name_H-M   'P 1'
_cell_length_a   21.75144000
_cell_length_b   9.79428600
_cell_length_c   9.65681602
_cell_angle_alpha   90.00000000
_cell_angle_beta   104.33588297
_cell_angle_gamma   90.00000000
_symmetry_Int_Tables_number   1
_chemical_formula_structural   Sn2P2O7
_chemical_formula_sum   'Sn24 P24 O84'
_cell_volume   1993.22424331
_cell_formula_units_Z   12
loop_
 _symmetry_equiv_pos_site_id
 _symmetry_equiv_pos_as_xyz
  1  'x, y, z'
loop_
 _atom_site_type_symbol
 _atom_site_label
 _atom_site_symmetry_multiplicity
 _atom_site_fract_x
 _atom_site_fract_y
 _atom_site_fract_z
 _atom_site_occupancy
  Sn  Sn0  1  0.00168500  0.18807500  0.00892600  1
  Sn  Sn1  1  0.16360050  0.31714450  0.16411900  1
  Sn  Sn2  1  0.17264300  0.69430700  0.17565800  1
  Sn  Sn3  1  0.32658300  0.19249800  0.32209800  1
  Sn  Sn4  1  0.33594350  0.81383250  0.33688600  1
  Sn  Sn5  1  0.49939150  0.69341250  0.49033300  1
  Sn  Sn6  1  0.00168500  0.81192500  0.50892600  1
  Sn  Sn7  1  0.16360050  0.68285550  0.66411900  1
  Sn  Sn8  1  0.17264300  0.30569300  0.67565800  1
  Sn  Sn9  1  0.32658300  0.80750200  0.82209800  1
  Sn  Sn10  1  0.33594350  0.18616750  0.83688600  1
  Sn  Sn11  1  0.49939150  0.30658750  0.99033300  1
  Sn  Sn12  1  0.50168500  0.68807500  0.00892600  1
  Sn  Sn13  1  0.66360050  0.81714450  0.16411900  1
  Sn  Sn14  1  0.67264300  0.19430700  0.17565800  1
  Sn  Sn15  1  0.82658300  0.69249800  0.32209800  1
  Sn  Sn16  1  0.83594350  0.31383250  0.33688600  1
  Sn  Sn17  1  0.99939150  0.19341250  0.49033300  1
  Sn  Sn18  1  0.50168500  0.31192500  0.50892600  1
  Sn  Sn19  1  0.66360050  0.18285550  0.66411900  1
  Sn  Sn20  1  0.67264300  0.80569300  0.67565800  1
  Sn  Sn21  1  0.82658300  0.30750200  0.82209800  1
  Sn  Sn22  1  0.83594350  0.68616750  0.83688600  1
  Sn  Sn23  1  0.99939150  0.80658750  0.99033300  1
  P  P24  1  0.23847300  0.98253200  0.02766300  1
  P  P25  1  0.43567250  0.01571950  0.14988800  1
  P  P26  1  0.40001500  0.51129100  0.18084200  1
  P  P27  1  0.10222850  0.01192850  0.32310700  1
  P  P28  1  0.06679450  0.51864150  0.35447800  1
  P  P29  1  0.26351900  0.48406900  0.47133400  1
  P  P30  1  0.23847300  0.01746800  0.52766300  1
  P  P31  1  0.43567250  0.98428050  0.64988800  1
  P  P32  1  0.40001500  0.48870900  0.68084200  1
  P  P33  1  0.10222850  0.98807150  0.82310700  1
  P  P34  1  0.06679450  0.48135850  0.85447800  1
  P  P35  1  0.26351900  0.51593100  0.97133400  1
  P  P36  1  0.73847300  0.48253200  0.02766300  1
  P  P37  1  0.93567250  0.51571950  0.14988800  1
  P  P38  1  0.90001500  0.01129100  0.18084200  1
  P  P39  1  0.60222850  0.51192850  0.32310700  1
  P  P40  1  0.56679450  0.01864150  0.35447800  1
  P  P41  1  0.76351900  0.98406900  0.47133400  1
  P  P42  1  0.73847300  0.51746800  0.52766300  1
  P  P43  1  0.93567250  0.48428050  0.64988800  1
  P  P44  1  0.90001500  0.98870900  0.68084200  1
  P  P45  1  0.60222850  0.48807150  0.82310700  1
  P  P46  1  0.56679450  0.98135850  0.85447800  1
  P  P47  1  0.76351900  0.01593100  0.97133400  1
  O  O48  1  0.41816100  0.13376800  0.04140000  1
  O  O49  1  0.44794600  0.87958400  0.08723200  1
  O  O50  1  0.45166150  0.50075950  0.09530000  1
  O  O51  1  0.33595900  0.55375400  0.05977200  1
  O  O52  1  0.22288150  0.50457150  0.08234000  1
  O  O53  1  0.24160450  0.11762550  0.11013500  1
  O  O54  1  0.25594700  0.85590600  0.12473100  1
  O  O55  1  0.00090300  0.57667900  0.25291600  1
  O  O56  1  0.38614050  0.00495650  0.24100700  1
  O  O57  1  0.38798200  0.37664300  0.24729700  1
  O  O58  1  0.41523950  0.63426050  0.28499100  1
  O  O59  1  0.08651800  0.13325200  0.21725900  1
  O  O60  1  0.11450450  0.87727850  0.25701800  1
  O  O61  1  0.11576350  0.51145350  0.26112500  1
  O  O62  1  0.24562400  0.35674500  0.37539700  1
  O  O63  1  0.26080700  0.61760000  0.38653000  1
  O  O64  1  0.27808250  0.00764150  0.41542800  1
  O  O65  1  0.41816100  0.86623200  0.54140000  1
  O  O66  1  0.16634800  0.05599900  0.44330000  1
  O  O67  1  0.05064700  0.00208300  0.40872100  1
  O  O68  1  0.44794600  0.12041600  0.58723200  1
  O  O69  1  0.05597000  0.37974100  0.41505000  1
  O  O70  1  0.45166150  0.49924050  0.59530000  1
  O  O71  1  0.33595900  0.44624600  0.55977200  1
  O  O72  1  0.08347800  0.63505500  0.46414300  1
  O  O73  1  0.22288150  0.49542850  0.58234000  1
  O  O74  1  0.24160450  0.88237450  0.61013500  1
  O  O75  1  0.25594700  0.14409400  0.62473100  1
  O  O76  1  0.00090300  0.42332100  0.75291600  1
  O  O77  1  0.38614050  0.99504350  0.74100700  1
  O  O78  1  0.38798200  0.62335700  0.74729700  1
  O  O79  1  0.41523950  0.36573950  0.78499100  1
  O  O80  1  0.08651800  0.86674800  0.71725900  1
  O  O81  1  0.11450450  0.12272150  0.75701800  1
  O  O82  1  0.11576350  0.48854650  0.76112500  1
  O  O83  1  0.24562400  0.64325500  0.87539700  1
  O  O84  1  0.26080700  0.38240000  0.88653000  1
  O  O85  1  0.27808250  0.99235850  0.91542800  1
  O  O86  1  0.16634800  0.94400100  0.94330000  1
  O  O87  1  0.05064700  0.99791700  0.90872100  1
  O  O88  1  0.05597000  0.62025900  0.91505000  1
  O  O89  1  0.08347800  0.36494500  0.96414300  1
  O  O90  1  0.91816100  0.63376800  0.04140000  1
  O  O91  1  0.94794600  0.37958400  0.08723200  1
  O  O92  1  0.95166150  0.00075950  0.09530000  1
  O  O93  1  0.83595900  0.05375400  0.05977200  1
  O  O94  1  0.72288150  0.00457150  0.08234000  1
  O  O95  1  0.74160450  0.61762550  0.11013500  1
  O  O96  1  0.75594700  0.35590600  0.12473100  1
  O  O97  1  0.50090300  0.07667900  0.25291600  1
  O  O98  1  0.88614050  0.50495650  0.24100700  1
  O  O99  1  0.88798200  0.87664300  0.24729700  1
  O  O100  1  0.91523950  0.13426050  0.28499100  1
  O  O101  1  0.58651800  0.63325200  0.21725900  1
  O  O102  1  0.61450450  0.37727850  0.25701800  1
  O  O103  1  0.61576350  0.01145350  0.26112500  1
  O  O104  1  0.74562400  0.85674500  0.37539700  1
  O  O105  1  0.76080700  0.11760000  0.38653000  1
  O  O106  1  0.77808250  0.50764150  0.41542800  1
  O  O107  1  0.91816100  0.36623200  0.54140000  1
  O  O108  1  0.66634800  0.55599900  0.44330000  1
  O  O109  1  0.55064700  0.50208300  0.40872100  1
  O  O110  1  0.94794600  0.62041600  0.58723200  1
  O  O111  1  0.55597000  0.87974100  0.41505000  1
  O  O112  1  0.95166150  0.99924050  0.59530000  1
  O  O113  1  0.83595900  0.94624600  0.55977200  1
  O  O114  1  0.58347800  0.13505500  0.46414300  1
  O  O115  1  0.72288150  0.99542850  0.58234000  1
  O  O116  1  0.74160450  0.38237450  0.61013500  1
  O  O117  1  0.75594700  0.64409400  0.62473100  1
  O  O118  1  0.50090300  0.92332100  0.75291600  1
  O  O119  1  0.88614050  0.49504350  0.74100700  1
  O  O120  1  0.88798200  0.12335700  0.74729700  1
  O  O121  1  0.91523950  0.86573950  0.78499100  1
  O  O122  1  0.58651800  0.36674800  0.71725900  1
  O  O123  1  0.61450450  0.62272150  0.75701800  1
  O  O124  1  0.61576350  0.98854650  0.76112500  1
  O  O125  1  0.74562400  0.14325500  0.87539700  1
  O  O126  1  0.76080700  0.88240000  0.88653000  1
  O  O127  1  0.77808250  0.49235850  0.91542800  1
  O  O128  1  0.66634800  0.44400100  0.94330000  1
  O  O129  1  0.55064700  0.49791700  0.90872100  1
  O  O130  1  0.55597000  0.12025900  0.91505000  1
  O  O131  1  0.58347800  0.86494500  0.96414300  1
