# generated using pymatgen
data_GdOF
_symmetry_space_group_name_H-M   'P 1'
_cell_length_a   7.55515000
_cell_length_b   8.96769200
_cell_length_c   10.97750200
_cell_angle_alpha   90.00000000
_cell_angle_beta   90.00000000
_cell_angle_gamma   90.00000000
_symmetry_Int_Tables_number   1
_chemical_formula_structural   GdOF
_chemical_formula_sum   'Gd16 O16 F16'
_cell_volume   743.75055005
_cell_formula_units_Z   16
loop_
 _symmetry_equiv_pos_site_id
 _symmetry_equiv_pos_as_xyz
  1  'x, y, z'
loop_
 _atom_site_type_symbol
 _atom_site_label
 _atom_site_symmetry_multiplicity
 _atom_site_fract_x
 _atom_site_fract_y
 _atom_site_fract_z
 _atom_site_occupancy
  Gd  Gd0  1  0.50000000  0.69922100  0.00000000  1
  Gd  Gd1  1  0.75000000  0.94922100  0.25000000  1
  Gd  Gd2  1  0.50000000  0.30077900  0.00000000  1
  Gd  Gd3  1  0.75000000  0.55077900  0.25000000  1
  Gd  Gd4  1  0.50000000  0.19922100  0.50000000  1
  Gd  Gd5  1  0.75000000  0.44922100  0.75000000  1
  Gd  Gd6  1  0.50000000  0.80077900  0.50000000  1
  Gd  Gd7  1  0.75000000  0.05077900  0.75000000  1
  Gd  Gd8  1  0.00000000  0.69922100  0.50000000  1
  Gd  Gd9  1  0.25000000  0.94922100  0.75000000  1
  Gd  Gd10  1  0.00000000  0.30077900  0.50000000  1
  Gd  Gd11  1  0.25000000  0.55077900  0.75000000  1
  Gd  Gd12  1  0.00000000  0.19922100  0.00000000  1
  Gd  Gd13  1  0.25000000  0.44922100  0.25000000  1
  Gd  Gd14  1  0.00000000  0.80077900  0.00000000  1
  Gd  Gd15  1  0.25000000  0.05077900  0.25000000  1
  O  O16  1  0.00000000  0.00000000  0.13245400  1
  O  O17  1  0.50000000  0.00000000  0.36754600  1
  O  O18  1  0.75000000  0.75000000  0.38245400  1
  O  O19  1  0.75000000  0.75000000  0.11754600  1
  O  O20  1  0.00000000  0.50000000  0.63245400  1
  O  O21  1  0.50000000  0.50000000  0.86754600  1
  O  O22  1  0.75000000  0.25000000  0.88245400  1
  O  O23  1  0.75000000  0.25000000  0.61754600  1
  O  O24  1  0.50000000  0.00000000  0.63245400  1
  O  O25  1  0.00000000  0.00000000  0.86754600  1
  O  O26  1  0.25000000  0.75000000  0.88245400  1
  O  O27  1  0.25000000  0.75000000  0.61754600  1
  O  O28  1  0.50000000  0.50000000  0.13245400  1
  O  O29  1  0.00000000  0.50000000  0.36754600  1
  O  O30  1  0.25000000  0.25000000  0.38245400  1
  O  O31  1  0.25000000  0.25000000  0.11754600  1
  F  F32  1  0.37500000  0.87500000  0.12500000  1
  F  F33  1  0.62500000  0.12500000  0.12500000  1
  F  F34  1  0.87500000  0.12500000  0.37500000  1
  F  F35  1  0.12500000  0.87500000  0.37500000  1
  F  F36  1  0.37500000  0.37500000  0.62500000  1
  F  F37  1  0.62500000  0.62500000  0.62500000  1
  F  F38  1  0.87500000  0.62500000  0.87500000  1
  F  F39  1  0.12500000  0.37500000  0.87500000  1
  F  F40  1  0.87500000  0.87500000  0.62500000  1
  F  F41  1  0.12500000  0.12500000  0.62500000  1
  F  F42  1  0.37500000  0.12500000  0.87500000  1
  F  F43  1  0.62500000  0.87500000  0.87500000  1
  F  F44  1  0.87500000  0.37500000  0.12500000  1
  F  F45  1  0.12500000  0.62500000  0.12500000  1
  F  F46  1  0.37500000  0.62500000  0.37500000  1
  F  F47  1  0.62500000  0.37500000  0.37500000  1
