# generated using pymatgen
data_Lu2TeO6
_symmetry_space_group_name_H-M   'P 1'
_cell_length_a   9.09542962
_cell_length_b   9.09542962
_cell_length_c   5.06102600
_cell_angle_alpha   90.00000000
_cell_angle_beta   90.00000000
_cell_angle_gamma   120.00000000
_symmetry_Int_Tables_number   1
_chemical_formula_structural   Lu2TeO6
_chemical_formula_sum   'Lu6 Te3 O18'
_cell_volume   362.58984396
_cell_formula_units_Z   3
loop_
 _symmetry_equiv_pos_site_id
 _symmetry_equiv_pos_as_xyz
  1  'x, y, z'
loop_
 _atom_site_type_symbol
 _atom_site_label
 _atom_site_symmetry_multiplicity
 _atom_site_fract_x
 _atom_site_fract_y
 _atom_site_fract_z
 _atom_site_occupancy
  Lu  Lu0  1  0.00000000  0.62730250  0.00000000  1
  Lu  Lu1  1  0.00000000  0.29007750  0.50000000  1
  Lu  Lu2  1  0.37269750  0.37269750  0.00000000  1
  Lu  Lu3  1  0.29007750  0.00000000  0.50000000  1
  Lu  Lu4  1  0.70992250  0.70992250  0.50000000  1
  Lu  Lu5  1  0.62730250  0.00000000  0.00000000  1
  Te  Te6  1  0.33333333  0.66666667  0.50833300  1
  Te  Te7  1  0.00000000  0.00000000  0.00000000  1
  Te  Te8  1  0.66666667  0.33333333  0.49166700  1
  O  O9  1  0.08523133  0.88120867  0.78578700  1
  O  O10  1  0.22006333  0.75924867  0.29128500  1
  O  O11  1  0.12955433  0.54244667  0.72600700  1
  O  O12  1  0.41289233  0.87044567  0.72600700  1
  O  O13  1  0.24075133  0.46081467  0.29128500  1
  O  O14  1  0.11879133  0.20402267  0.78578700  1
  O  O15  1  0.20402267  0.11879133  0.21421300  1
  O  O16  1  0.53918533  0.77993667  0.29128500  1
  O  O17  1  0.45755333  0.58710767  0.72600700  1
  O  O18  1  0.79597733  0.91476867  0.78578700  1
  O  O19  1  0.46081467  0.24075133  0.70871500  1
  O  O20  1  0.58710767  0.45755333  0.27399300  1
  O  O21  1  0.54244667  0.12955433  0.27399300  1
  O  O22  1  0.77993667  0.53918533  0.70871500  1
  O  O23  1  0.91476867  0.79597733  0.21421300  1
  O  O24  1  0.75924867  0.22006333  0.70871500  1
  O  O25  1  0.87044567  0.41289233  0.27399300  1
  O  O26  1  0.88120867  0.08523133  0.21421300  1
