# generated using pymatgen
data_SrLa2O4
_symmetry_space_group_name_H-M   'P 1'
_cell_length_a   3.58163200
_cell_length_b   11.95990200
_cell_length_c   11.56174800
_cell_angle_alpha   90.00000000
_cell_angle_beta   90.00000000
_cell_angle_gamma   90.00000000
_symmetry_Int_Tables_number   1
_chemical_formula_structural   SrLa2O4
_chemical_formula_sum   'Sr4 La8 O16'
_cell_volume   495.25866412
_cell_formula_units_Z   4
loop_
 _symmetry_equiv_pos_site_id
 _symmetry_equiv_pos_as_xyz
  1  'x, y, z'
loop_
 _atom_site_type_symbol
 _atom_site_label
 _atom_site_symmetry_multiplicity
 _atom_site_fract_x
 _atom_site_fract_y
 _atom_site_fract_z
 _atom_site_occupancy
  Sr  Sr0  1  0.00000000  0.11146800  0.75000000  1
  Sr  Sr1  1  0.50000000  0.38853200  0.25000000  1
  Sr  Sr2  1  0.50000000  0.61146800  0.75000000  1
  Sr  Sr3  1  0.00000000  0.88853200  0.25000000  1
  La  La4  1  0.00000000  0.36794300  0.92546200  1
  La  La5  1  0.00000000  0.36794300  0.57453800  1
  La  La6  1  0.50000000  0.13205700  0.07453800  1
  La  La7  1  0.50000000  0.13205700  0.42546200  1
  La  La8  1  0.50000000  0.86794300  0.92546200  1
  La  La9  1  0.50000000  0.86794300  0.57453800  1
  La  La10  1  0.00000000  0.63205700  0.07453800  1
  La  La11  1  0.00000000  0.63205700  0.42546200  1
  O  O12  1  0.00000000  0.00000000  0.50000000  1
  O  O13  1  0.00000000  0.00000000  0.00000000  1
  O  O14  1  0.00000000  0.46978700  0.75000000  1
  O  O15  1  0.00000000  0.26524400  0.11050200  1
  O  O16  1  0.00000000  0.26524400  0.38949800  1
  O  O17  1  0.50000000  0.03021300  0.25000000  1
  O  O18  1  0.50000000  0.23475600  0.88949800  1
  O  O19  1  0.50000000  0.23475600  0.61050200  1
  O  O20  1  0.50000000  0.50000000  0.50000000  1
  O  O21  1  0.50000000  0.50000000  0.00000000  1
  O  O22  1  0.50000000  0.96978700  0.75000000  1
  O  O23  1  0.50000000  0.76524400  0.11050200  1
  O  O24  1  0.50000000  0.76524400  0.38949800  1
  O  O25  1  0.00000000  0.53021300  0.25000000  1
  O  O26  1  0.00000000  0.73475600  0.88949800  1
  O  O27  1  0.00000000  0.73475600  0.61050200  1
