# generated using pymatgen
data_BaY3Cl11
_symmetry_space_group_name_H-M   'P 1'
_cell_length_a   7.43759800
_cell_length_b   9.40236900
_cell_length_c   35.11222900
_cell_angle_alpha   90.00000000
_cell_angle_beta   90.00000000
_cell_angle_gamma   90.00000000
_symmetry_Int_Tables_number   1
_chemical_formula_structural   BaY3Cl11
_chemical_formula_sum   'Ba4 Y12 Cl44'
_cell_volume   2455.43472122
_cell_formula_units_Z   4
loop_
 _symmetry_equiv_pos_site_id
 _symmetry_equiv_pos_as_xyz
  1  'x, y, z'
loop_
 _atom_site_type_symbol
 _atom_site_label
 _atom_site_symmetry_multiplicity
 _atom_site_fract_x
 _atom_site_fract_y
 _atom_site_fract_z
 _atom_site_occupancy
  Ba  Ba0  1  0.22899900  0.90225500  0.21068900  1
  Ba  Ba1  1  0.27100100  0.09774500  0.71068900  1
  Ba  Ba2  1  0.72899900  0.59774500  0.78931100  1
  Ba  Ba3  1  0.77100100  0.40225500  0.28931100  1
  Y  Y4  1  0.24334400  0.25273900  0.08868100  1
  Y  Y5  1  0.24065100  0.58810400  0.96808500  1
  Y  Y6  1  0.23290300  0.93993300  0.85021200  1
  Y  Y7  1  0.26709700  0.06006700  0.35021200  1
  Y  Y8  1  0.25934900  0.41189600  0.46808500  1
  Y  Y9  1  0.25665600  0.74726100  0.58868100  1
  Y  Y10  1  0.74334400  0.24726100  0.91131900  1
  Y  Y11  1  0.74065100  0.91189600  0.03191500  1
  Y  Y12  1  0.73290300  0.56006700  0.14978800  1
  Y  Y13  1  0.76709700  0.43993300  0.64978800  1
  Y  Y14  1  0.75934900  0.08810400  0.53191500  1
  Y  Y15  1  0.75665600  0.75273900  0.41131900  1
  Cl  Cl16  1  0.04782300  0.11264800  0.89477800  1
  Cl  Cl17  1  0.03449400  0.45044200  0.12116000  1
  Cl  Cl18  1  0.10760000  0.23752300  0.30087800  1
  Cl  Cl19  1  0.01659000  0.76996900  0.00165400  1
  Cl  Cl20  1  0.03224200  0.59456900  0.43464900  1
  Cl  Cl21  1  0.04253700  0.94793200  0.55934600  1
  Cl  Cl22  1  0.07138600  0.32736300  0.67298500  1
  Cl  Cl23  1  0.22284800  0.13045900  0.79477900  1
  Cl  Cl24  1  0.24962500  0.14037200  0.15685400  1
  Cl  Cl25  1  0.23317300  0.41361600  0.02682500  1
  Cl  Cl26  1  0.24317100  0.25434700  0.40586000  1
  Cl  Cl27  1  0.25682900  0.74565300  0.90586000  1
  Cl  Cl28  1  0.26682700  0.58638400  0.52682500  1
  Cl  Cl29  1  0.25037500  0.85962800  0.65685400  1
  Cl  Cl30  1  0.27715200  0.86954100  0.29477900  1
  Cl  Cl31  1  0.42861400  0.67263700  0.17298500  1
  Cl  Cl32  1  0.45746300  0.05206800  0.05934600  1
  Cl  Cl33  1  0.46775800  0.40543100  0.93464900  1
  Cl  Cl34  1  0.48341000  0.23003100  0.50165400  1
  Cl  Cl35  1  0.39240000  0.76247700  0.80087800  1
  Cl  Cl36  1  0.46550600  0.54955800  0.62116000  1
  Cl  Cl37  1  0.45217700  0.88735200  0.39477800  1
  Cl  Cl38  1  0.54782300  0.38735200  0.10522200  1
  Cl  Cl39  1  0.53449400  0.04955800  0.87884000  1
  Cl  Cl40  1  0.60760000  0.26247700  0.69912200  1
  Cl  Cl41  1  0.51659000  0.73003100  0.99834600  1
  Cl  Cl42  1  0.53224200  0.90543100  0.56535100  1
  Cl  Cl43  1  0.54253700  0.55206800  0.44065400  1
  Cl  Cl44  1  0.57138600  0.17263700  0.32701500  1
  Cl  Cl45  1  0.72284800  0.36954100  0.20522100  1
  Cl  Cl46  1  0.74962500  0.35962800  0.84314600  1
  Cl  Cl47  1  0.73317300  0.08638400  0.97317500  1
  Cl  Cl48  1  0.74317100  0.24565300  0.59414000  1
  Cl  Cl49  1  0.75682900  0.75434700  0.09414000  1
  Cl  Cl50  1  0.76682700  0.91361600  0.47317500  1
  Cl  Cl51  1  0.75037500  0.64037200  0.34314600  1
  Cl  Cl52  1  0.77715200  0.63045900  0.70522100  1
  Cl  Cl53  1  0.92861400  0.82736300  0.82701500  1
  Cl  Cl54  1  0.95746300  0.44793200  0.94065400  1
  Cl  Cl55  1  0.96775800  0.09456900  0.06535100  1
  Cl  Cl56  1  0.98341000  0.26996900  0.49834600  1
  Cl  Cl57  1  0.89240000  0.73752300  0.19912200  1
  Cl  Cl58  1  0.96550600  0.95044200  0.37884000  1
  Cl  Cl59  1  0.95217700  0.61264800  0.60522200  1
