# generated using pymatgen
data_LiVSiO5
_symmetry_space_group_name_H-M   'P 1'
_cell_length_a   8.94029200
_cell_length_b   8.96225800
_cell_length_c   4.62912800
_cell_angle_alpha   90.00000000
_cell_angle_beta   90.00000000
_cell_angle_gamma   90.00000000
_symmetry_Int_Tables_number   1
_chemical_formula_structural   LiVSiO5
_chemical_formula_sum   'Li4 V4 Si4 O20'
_cell_volume   370.90982302
_cell_formula_units_Z   4
loop_
 _symmetry_equiv_pos_site_id
 _symmetry_equiv_pos_as_xyz
  1  'x, y, z'
loop_
 _atom_site_type_symbol
 _atom_site_label
 _atom_site_symmetry_multiplicity
 _atom_site_fract_x
 _atom_site_fract_y
 _atom_site_fract_z
 _atom_site_occupancy
  Li  Li0  1  0.25000000  0.75000000  0.50000000  1
  Li  Li1  1  0.25000000  0.25000000  0.50000000  1
  Li  Li2  1  0.75000000  0.25000000  0.50000000  1
  Li  Li3  1  0.75000000  0.75000000  0.50000000  1
  V  V4  1  0.50000000  0.75000000  0.10440100  1
  V  V5  1  0.50000000  0.25000000  0.89559900  1
  V  V6  1  0.00000000  0.25000000  0.10440100  1
  V  V7  1  0.00000000  0.75000000  0.89559900  1
  Si  Si8  1  0.25000000  0.00000000  0.00000000  1
  Si  Si9  1  0.75000000  0.00000000  0.00000000  1
  Si  Si10  1  0.75000000  0.50000000  0.00000000  1
  Si  Si11  1  0.25000000  0.50000000  0.00000000  1
  O  O12  1  0.14791750  0.89244050  0.78990800  1
  O  O13  1  0.50000000  0.75000000  0.75168600  1
  O  O14  1  0.35208250  0.89244050  0.21009200  1
  O  O15  1  0.14791750  0.10755950  0.21009200  1
  O  O16  1  0.35208250  0.10755950  0.78990800  1
  O  O17  1  0.64791750  0.89244050  0.21009200  1
  O  O18  1  0.85208250  0.89244050  0.78990800  1
  O  O19  1  0.64791750  0.10755950  0.78990800  1
  O  O20  1  0.50000000  0.25000000  0.24831400  1
  O  O21  1  0.85208250  0.10755950  0.21009200  1
  O  O22  1  0.64791750  0.39244050  0.78990800  1
  O  O23  1  0.00000000  0.25000000  0.75168600  1
  O  O24  1  0.85208250  0.39244050  0.21009200  1
  O  O25  1  0.64791750  0.60755950  0.21009200  1
  O  O26  1  0.85208250  0.60755950  0.78990800  1
  O  O27  1  0.14791750  0.39244050  0.21009200  1
  O  O28  1  0.35208250  0.39244050  0.78990800  1
  O  O29  1  0.14791750  0.60755950  0.78990800  1
  O  O30  1  0.00000000  0.75000000  0.24831400  1
  O  O31  1  0.35208250  0.60755950  0.21009200  1
