# generated using pymatgen
data_LiCuS
_symmetry_space_group_name_H-M   'P 1'
_cell_length_a   10.16693200
_cell_length_b   10.16693200
_cell_length_c   4.76447400
_cell_angle_alpha   90.00000000
_cell_angle_beta   90.00000000
_cell_angle_gamma   90.00000000
_symmetry_Int_Tables_number   1
_chemical_formula_structural   LiCuS
_chemical_formula_sum   'Li8 Cu8 S8'
_cell_volume   492.48703170
_cell_formula_units_Z   8
loop_
 _symmetry_equiv_pos_site_id
 _symmetry_equiv_pos_as_xyz
  1  'x, y, z'
loop_
 _atom_site_type_symbol
 _atom_site_label
 _atom_site_symmetry_multiplicity
 _atom_site_fract_x
 _atom_site_fract_y
 _atom_site_fract_z
 _atom_site_occupancy
  Li  Li0  1  0.65591200  0.00000000  0.50000000  1
  Li  Li1  1  0.50000000  0.15591200  0.00000000  1
  Li  Li2  1  0.50000000  0.84408800  0.00000000  1
  Li  Li3  1  0.34408800  0.00000000  0.50000000  1
  Li  Li4  1  0.15591200  0.50000000  0.00000000  1
  Li  Li5  1  0.00000000  0.65591200  0.50000000  1
  Li  Li6  1  0.00000000  0.34408800  0.50000000  1
  Li  Li7  1  0.84408800  0.50000000  0.00000000  1
  Cu  Cu8  1  0.85483400  0.14516600  0.00000000  1
  Cu  Cu9  1  0.85483400  0.85483400  0.00000000  1
  Cu  Cu10  1  0.64516600  0.64516600  0.50000000  1
  Cu  Cu11  1  0.64516600  0.35483400  0.50000000  1
  Cu  Cu12  1  0.35483400  0.64516600  0.50000000  1
  Cu  Cu13  1  0.35483400  0.35483400  0.50000000  1
  Cu  Cu14  1  0.14516600  0.14516600  0.00000000  1
  Cu  Cu15  1  0.14516600  0.85483400  0.00000000  1
  S  S16  1  0.70205400  0.00000000  0.00000000  1
  S  S17  1  0.50000000  0.20205400  0.50000000  1
  S  S18  1  0.50000000  0.79794600  0.50000000  1
  S  S19  1  0.29794600  0.00000000  0.00000000  1
  S  S20  1  0.20205400  0.50000000  0.50000000  1
  S  S21  1  0.00000000  0.70205400  0.00000000  1
  S  S22  1  0.00000000  0.29794600  0.00000000  1
  S  S23  1  0.79794600  0.50000000  0.50000000  1
