# generated using pymatgen
data_Na3VPCO7
_symmetry_space_group_name_H-M   'P 1'
_cell_length_a   5.29329703
_cell_length_b   6.83034000
_cell_length_c   8.97978138
_cell_angle_alpha   90.00000000
_cell_angle_beta   92.01377103
_cell_angle_gamma   90.00000000
_symmetry_Int_Tables_number   1
_chemical_formula_structural   Na3VPCO7
_chemical_formula_sum   'Na6 V2 P2 C2 O14'
_cell_volume   324.46365195
_cell_formula_units_Z   2
loop_
 _symmetry_equiv_pos_site_id
 _symmetry_equiv_pos_as_xyz
  1  'x, y, z'
loop_
 _atom_site_type_symbol
 _atom_site_label
 _atom_site_symmetry_multiplicity
 _atom_site_fract_x
 _atom_site_fract_y
 _atom_site_fract_z
 _atom_site_occupancy
  Na  Na0  1  0.77648400  0.25000000  0.91614250  1
  Na  Na1  1  0.25849000  0.48921600  0.72571650  1
  Na  Na2  1  0.25849000  0.01078400  0.72571650  1
  Na  Na3  1  0.74151000  0.98921600  0.27428350  1
  Na  Na4  1  0.74151000  0.51078400  0.27428350  1
  Na  Na5  1  0.22351600  0.75000000  0.08385750  1
  V  V6  1  0.77889000  0.75000000  0.65645750  1
  V  V7  1  0.22111000  0.25000000  0.34354250  1
  P  P8  1  0.71780200  0.25000000  0.58665250  1
  P  P9  1  0.28219800  0.75000000  0.41334750  1
  C  C10  1  0.70659300  0.75000000  0.94294050  1
  C  C11  1  0.29340700  0.25000000  0.05705950  1
  O  O12  1  0.93187800  0.75000000  0.88787550  1
  O  O13  1  0.32352900  0.25000000  0.91549250  1
  O  O14  1  0.51233300  0.75000000  0.84803050  1
  O  O15  1  0.79482700  0.06793700  0.68287050  1
  O  O16  1  0.79482700  0.43206300  0.68287050  1
  O  O17  1  0.15116600  0.75000000  0.56527650  1
  O  O18  1  0.42501000  0.25000000  0.55745450  1
  O  O19  1  0.57499000  0.75000000  0.44254550  1
  O  O20  1  0.84883400  0.25000000  0.43472350  1
  O  O21  1  0.20517300  0.56793700  0.31712950  1
  O  O22  1  0.20517300  0.93206300  0.31712950  1
  O  O23  1  0.48766700  0.25000000  0.15196950  1
  O  O24  1  0.67647100  0.75000000  0.08450750  1
  O  O25  1  0.06812200  0.25000000  0.11212450  1
