# generated using pymatgen
data_CaPbI4
_symmetry_space_group_name_H-M   'P 1'
_cell_length_a   9.74522400
_cell_length_b   7.85183900
_cell_length_c   15.52750109
_cell_angle_alpha   90.00000000
_cell_angle_beta   93.02815412
_cell_angle_gamma   90.00000000
_symmetry_Int_Tables_number   1
_chemical_formula_structural   CaPbI4
_chemical_formula_sum   'Ca4 Pb4 I16'
_cell_volume   1186.47324729
_cell_formula_units_Z   4
loop_
 _symmetry_equiv_pos_site_id
 _symmetry_equiv_pos_as_xyz
  1  'x, y, z'
loop_
 _atom_site_type_symbol
 _atom_site_label
 _atom_site_symmetry_multiplicity
 _atom_site_fract_x
 _atom_site_fract_y
 _atom_site_fract_z
 _atom_site_occupancy
  Ca  Ca0  1  0.87082800  0.99489400  0.63022600  1
  Ca  Ca1  1  0.87082800  0.50510600  0.13022600  1
  Ca  Ca2  1  0.12917200  0.49489400  0.86977400  1
  Ca  Ca3  1  0.12917200  0.00510600  0.36977400  1
  Pb  Pb4  1  0.68098500  0.67944200  0.88324400  1
  Pb  Pb5  1  0.68098500  0.82055800  0.38324400  1
  Pb  Pb6  1  0.31901500  0.17944200  0.61675600  1
  Pb  Pb7  1  0.31901500  0.32055800  0.11675600  1
  I  I8  1  0.95832100  0.83109600  0.81293000  1
  I  I9  1  0.95832100  0.66890400  0.31293000  1
  I  I10  1  0.84126600  0.34780700  0.94149600  1
  I  I11  1  0.84126600  0.15219300  0.44149600  1
  I  I12  1  0.69132200  0.68582400  0.56661600  1
  I  I13  1  0.69132200  0.81417600  0.06661600  1
  I  I14  1  0.62272300  0.17156500  0.70530200  1
  I  I15  1  0.62272300  0.32843500  0.20530200  1
  I  I16  1  0.37727700  0.67156500  0.79469800  1
  I  I17  1  0.37727700  0.82843500  0.29469800  1
  I  I18  1  0.30867800  0.18582400  0.93338400  1
  I  I19  1  0.30867800  0.31417600  0.43338400  1
  I  I20  1  0.15873400  0.84780700  0.55850400  1
  I  I21  1  0.15873400  0.65219300  0.05850400  1
  I  I22  1  0.04167900  0.33109600  0.68707000  1
  I  I23  1  0.04167900  0.16890400  0.18707000  1
