# generated using pymatgen
data_W7(OF5)6
_symmetry_space_group_name_H-M   'P 1'
_cell_length_a   9.32325978
_cell_length_b   9.32325978
_cell_length_c   28.71053818
_cell_angle_alpha   90.00000000
_cell_angle_beta   90.00000000
_cell_angle_gamma   120.00000000
_symmetry_Int_Tables_number   1
_chemical_formula_structural   W7(OF5)6
_chemical_formula_sum   'W21 O18 F90'
_cell_volume   2161.26258918
_cell_formula_units_Z   3
loop_
 _symmetry_equiv_pos_site_id
 _symmetry_equiv_pos_as_xyz
  1  'x, y, z'
loop_
 _atom_site_type_symbol
 _atom_site_label
 _atom_site_symmetry_multiplicity
 _atom_site_fract_x
 _atom_site_fract_y
 _atom_site_fract_z
 _atom_site_occupancy
  W  W0  1  0.00000000  0.00000000  0.00000000  1
  W  W1  1  0.97990700  0.33227800  0.25285500  1
  W  W2  1  0.31429567  0.31324033  0.08047833  1
  W  W3  1  0.99894467  0.68570433  0.08047833  1
  W  W4  1  0.66772200  0.64762900  0.25285500  1
  W  W5  1  0.35237100  0.02009300  0.25285500  1
  W  W6  1  0.68675967  0.00105533  0.08047833  1
  W  W7  1  0.66666667  0.33333333  0.33333333  1
  W  W8  1  0.64657367  0.66561133  0.58618833  1
  W  W9  1  0.98096233  0.64657367  0.41381167  1
  W  W10  1  0.66561133  0.01903767  0.41381167  1
  W  W11  1  0.33438867  0.98096233  0.58618833  1
  W  W12  1  0.01903767  0.35342633  0.58618833  1
  W  W13  1  0.35342633  0.33438867  0.41381167  1
  W  W14  1  0.33333333  0.66666667  0.66666667  1
  W  W15  1  0.31324033  0.99894467  0.91952167  1
  W  W16  1  0.64762900  0.97990700  0.74714500  1
  W  W17  1  0.33227800  0.35237100  0.74714500  1
  W  W18  1  0.00105533  0.31429567  0.91952167  1
  W  W19  1  0.68570433  0.68675967  0.91952167  1
  W  W20  1  0.02009300  0.66772200  0.74714500  1
  O  O21  1  0.19189100  0.13019700  0.03908900  1
  O  O22  1  0.86980300  0.06169400  0.03908900  1
  O  O23  1  0.93830600  0.80810900  0.03908900  1
  O  O24  1  0.72836067  0.52522433  0.29424433  1
  O  O25  1  0.79686367  0.27163933  0.29424433  1
  O  O26  1  0.47477567  0.20313633  0.29424433  1
  O  O27  1  0.85855767  0.46353033  0.37242233  1
  O  O28  1  0.53646967  0.39502733  0.37242233  1
  O  O29  1  0.60497267  0.14144233  0.37242233  1
  O  O30  1  0.39502733  0.85855767  0.62757767  1
  O  O31  1  0.46353033  0.60497267  0.62757767  1
  O  O32  1  0.14144233  0.53646967  0.62757767  1
  O  O33  1  0.52522433  0.79686367  0.70575567  1
  O  O34  1  0.20313633  0.72836067  0.70575567  1
  O  O35  1  0.27163933  0.47477567  0.70575567  1
  O  O36  1  0.06169400  0.19189100  0.96091100  1
  O  O37  1  0.13019700  0.93830600  0.96091100  1
  O  O38  1  0.80810900  0.86980300  0.96091100  1
  F  F39  1  0.40626500  0.20300100  0.11301300  1
  F  F40  1  0.59552400  0.09532800  0.04076700  1
  F  F41  1  0.49980400  0.40447600  0.04076700  1
  F  F42  1  0.79699900  0.20326400  0.11301300  1
  F  F43  1  0.88790833  0.42343367  0.21202567  1
  F  F44  1  0.13114133  0.22124167  0.12130767  1
  F  F45  1  0.79673600  0.59373500  0.11301300  1
  F  F46  1  0.90467200  0.50019600  0.04076700  1
  F  F47  1  0.16527167  0.41225233  0.21350133  1
  F  F48  1  0.09144767  0.53485433  0.28573433  1
  F  F49  1  0.22326000  0.42478100  0.04759900  1
  F  F50  1  0.07891900  0.58031400  0.11983200  1
  F  F51  1  0.41968600  0.49860500  0.11983200  1
  F  F52  1  0.09010033  0.86885867  0.12130767  1
  F  F53  1  0.20152100  0.77674000  0.04759900  1
  F  F54  1  0.46514567  0.55659333  0.28573433  1
  F  F55  1  0.57656633  0.46447467  0.21202567  1
  F  F56  1  0.24698067  0.83472833  0.21350133  1
  F  F57  1  0.58774767  0.75301933  0.21350133  1
  F  F58  1  0.44340667  0.90855233  0.28573433  1
  F  F59  1  0.57521900  0.79847900  0.04759900  1
  F  F60  1  0.50139500  0.92108100  0.11983200  1
  F  F61  1  0.76199467  0.83313733  0.29256633  1
  F  F62  1  0.86993067  0.73959833  0.22032033  1
  F  F63  1  0.53552533  0.11209167  0.21202567  1
  F  F64  1  0.77875833  0.90989967  0.12130767  1
  F  F65  1  0.86966767  0.13006933  0.22032033  1
  F  F66  1  0.16686267  0.92885733  0.29256633  1
  F  F67  1  0.07114267  0.23800533  0.29256633  1
  F  F68  1  0.26040167  0.13033233  0.22032033  1
  F  F69  1  0.07293167  0.53633433  0.44634633  1
  F  F70  1  0.26219067  0.42866133  0.37410033  1
  F  F71  1  0.16647067  0.73780933  0.37410033  1
  F  F72  1  0.46366567  0.53659733  0.44634633  1
  F  F73  1  0.55457500  0.75676700  0.54535900  1
  F  F74  1  0.79780800  0.55457500  0.45464100  1
  F  F75  1  0.46340267  0.92706833  0.44634633  1
  F  F76  1  0.57133867  0.83352933  0.37410033  1
  F  F77  1  0.83193833  0.74558567  0.54683467  1
  F  F78  1  0.75811433  0.86818767  0.61906767  1
  F  F79  1  0.88992667  0.75811433  0.38093233  1
  F  F80  1  0.74558567  0.91364733  0.45316533  1
  F  F81  1  0.08635267  0.83193833  0.45316533  1
  F  F82  1  0.75676700  0.20219200  0.45464100  1
  F  F83  1  0.86818767  0.11007333  0.38093233  1
  F  F84  1  0.13181233  0.88992667  0.61906767  1
  F  F85  1  0.24323300  0.79780800  0.54535900  1
  F  F86  1  0.91364733  0.16806167  0.54683467  1
  F  F87  1  0.25441433  0.08635267  0.54683467  1
  F  F88  1  0.11007333  0.24188567  0.61906767  1
  F  F89  1  0.24188567  0.13181233  0.38093233  1
  F  F90  1  0.16806167  0.25441433  0.45316533  1
  F  F91  1  0.42866133  0.16647067  0.62589967  1
  F  F92  1  0.53659733  0.07293167  0.55365367  1
  F  F93  1  0.20219200  0.44542500  0.54535900  1
  F  F94  1  0.44542500  0.24323300  0.45464100  1
  F  F95  1  0.53633433  0.46340267  0.55365367  1
  F  F96  1  0.83352933  0.26219067  0.62589967  1
  F  F97  1  0.73780933  0.57133867  0.62589967  1
  F  F98  1  0.92706833  0.46366567  0.55365367  1
  F  F99  1  0.73959833  0.86966767  0.77967967  1
  F  F100  1  0.92885733  0.76199467  0.70743367  1
  F  F101  1  0.83313733  0.07114267  0.70743367  1
  F  F102  1  0.13033233  0.86993067  0.77967967  1
  F  F103  1  0.22124167  0.09010033  0.87869233  1
  F  F104  1  0.46447467  0.88790833  0.78797433  1
  F  F105  1  0.13006933  0.26040167  0.77967967  1
  F  F106  1  0.23800533  0.16686267  0.70743367  1
  F  F107  1  0.49860500  0.07891900  0.88016800  1
  F  F108  1  0.42478100  0.20152100  0.95240100  1
  F  F109  1  0.55659333  0.09144767  0.71426567  1
  F  F110  1  0.41225233  0.24698067  0.78649867  1
  F  F111  1  0.75301933  0.16527167  0.78649867  1
  F  F112  1  0.42343367  0.53552533  0.78797433  1
  F  F113  1  0.53485433  0.44340667  0.71426567  1
  F  F114  1  0.79847900  0.22326000  0.95240100  1
  F  F115  1  0.90989967  0.13114133  0.87869233  1
  F  F116  1  0.58031400  0.50139500  0.88016800  1
  F  F117  1  0.92108100  0.41968600  0.88016800  1
  F  F118  1  0.77674000  0.57521900  0.95240100  1
  F  F119  1  0.90855233  0.46514567  0.71426567  1
  F  F120  1  0.83472833  0.58774767  0.78649867  1
  F  F121  1  0.09532800  0.49980400  0.95923300  1
  F  F122  1  0.20326400  0.40626500  0.88698700  1
  F  F123  1  0.86885867  0.77875833  0.87869233  1
  F  F124  1  0.11209167  0.57656633  0.78797433  1
  F  F125  1  0.20300100  0.79673600  0.88698700  1
  F  F126  1  0.50019600  0.59552400  0.95923300  1
  F  F127  1  0.40447600  0.90467200  0.95923300  1
  F  F128  1  0.59373500  0.79699900  0.88698700  1
