# generated using pymatgen
data_LiCr2P3O13
_symmetry_space_group_name_H-M   'P 1'
_cell_length_a   10.39171800
_cell_length_b   14.04092400
_cell_length_c   8.42668022
_cell_angle_alpha   90.00000000
_cell_angle_beta   125.47369520
_cell_angle_gamma   90.00000000
_symmetry_Int_Tables_number   1
_chemical_formula_structural   LiCr2P3O13
_chemical_formula_sum   'Li4 Cr8 P12 O52'
_cell_volume   1001.30812545
_cell_formula_units_Z   4
loop_
 _symmetry_equiv_pos_site_id
 _symmetry_equiv_pos_as_xyz
  1  'x, y, z'
loop_
 _atom_site_type_symbol
 _atom_site_label
 _atom_site_symmetry_multiplicity
 _atom_site_fract_x
 _atom_site_fract_y
 _atom_site_fract_z
 _atom_site_occupancy
  Li  Li0  1  0.25000000  0.75000000  0.50000000  1
  Li  Li1  1  0.25000000  0.25000000  0.00000000  1
  Li  Li2  1  0.75000000  0.25000000  0.50000000  1
  Li  Li3  1  0.75000000  0.75000000  0.00000000  1
  Cr  Cr4  1  0.75425300  0.08319900  0.82716900  1
  Cr  Cr5  1  0.24574700  0.08319900  0.67283100  1
  Cr  Cr6  1  0.75425300  0.91680100  0.32716900  1
  Cr  Cr7  1  0.24574700  0.91680100  0.17283100  1
  Cr  Cr8  1  0.25425300  0.58319900  0.82716900  1
  Cr  Cr9  1  0.74574700  0.58319900  0.67283100  1
  Cr  Cr10  1  0.25425300  0.41680100  0.32716900  1
  Cr  Cr11  1  0.74574700  0.41680100  0.17283100  1
  P  P12  1  0.50000000  0.50944800  0.75000000  1
  P  P13  1  0.55492800  0.20372600  0.94386500  1
  P  P14  1  0.55492800  0.79627400  0.44386500  1
  P  P15  1  0.44507200  0.20372600  0.55613500  1
  P  P16  1  0.44507200  0.79627400  0.05613500  1
  P  P17  1  0.50000000  0.49055200  0.25000000  1
  P  P18  1  0.00000000  0.00944800  0.75000000  1
  P  P19  1  0.05492800  0.70372600  0.94386500  1
  P  P20  1  0.05492800  0.29627400  0.44386500  1
  P  P21  1  0.94507200  0.70372600  0.55613500  1
  P  P22  1  0.94507200  0.29627400  0.05613500  1
  P  P23  1  0.00000000  0.99055200  0.25000000  1
  O  O24  1  0.37344350  0.72890850  0.88583400  1
  O  O25  1  0.05581400  0.94537700  0.92687400  1
  O  O26  1  0.67087000  0.12803800  0.96471100  1
  O  O27  1  0.13740650  0.07563250  0.79504300  1
  O  O28  1  0.67433000  0.98084500  0.76961400  1
  O  O29  1  0.40301800  0.15734500  0.90507700  1
  O  O30  1  0.62655650  0.72890850  0.61416600  1
  O  O31  1  0.32567000  0.98084500  0.73038600  1
  O  O32  1  0.40301800  0.84265500  0.40507700  1
  O  O33  1  0.86259350  0.07563250  0.70495700  1
  O  O34  1  0.50000000  0.26328300  0.75000000  1
  O  O35  1  0.05581400  0.05462300  0.42687400  1
  O  O36  1  0.67087000  0.87196200  0.46471100  1
  O  O37  1  0.32913000  0.12803800  0.53528900  1
  O  O38  1  0.94418600  0.94537700  0.57312600  1
  O  O39  1  0.50000000  0.73671700  0.25000000  1
  O  O40  1  0.13740650  0.92436750  0.29504300  1
  O  O41  1  0.59698200  0.15734500  0.59492300  1
  O  O42  1  0.67433000  0.01915500  0.26961400  1
  O  O43  1  0.37344350  0.27109150  0.38583400  1
  O  O44  1  0.59698200  0.84265500  0.09492300  1
  O  O45  1  0.32567000  0.01915500  0.23038600  1
  O  O46  1  0.86259350  0.92436750  0.20495700  1
  O  O47  1  0.32913000  0.87196200  0.03528900  1
  O  O48  1  0.94418600  0.05462300  0.07312600  1
  O  O49  1  0.62655650  0.27109150  0.11416600  1
  O  O50  1  0.87344350  0.22890850  0.88583400  1
  O  O51  1  0.55581400  0.44537700  0.92687400  1
  O  O52  1  0.17087000  0.62803800  0.96471100  1
  O  O53  1  0.63740650  0.57563250  0.79504300  1
  O  O54  1  0.17433000  0.48084500  0.76961400  1
  O  O55  1  0.90301800  0.65734500  0.90507700  1
  O  O56  1  0.12655650  0.22890850  0.61416600  1
  O  O57  1  0.82567000  0.48084500  0.73038600  1
  O  O58  1  0.90301800  0.34265500  0.40507700  1
  O  O59  1  0.36259350  0.57563250  0.70495700  1
  O  O60  1  0.00000000  0.76328300  0.75000000  1
  O  O61  1  0.55581400  0.55462300  0.42687400  1
  O  O62  1  0.17087000  0.37196200  0.46471100  1
  O  O63  1  0.82913000  0.62803800  0.53528900  1
  O  O64  1  0.44418600  0.44537700  0.57312600  1
  O  O65  1  0.00000000  0.23671700  0.25000000  1
  O  O66  1  0.63740650  0.42436750  0.29504300  1
  O  O67  1  0.09698200  0.65734500  0.59492300  1
  O  O68  1  0.17433000  0.51915500  0.26961400  1
  O  O69  1  0.87344350  0.77109150  0.38583400  1
  O  O70  1  0.09698200  0.34265500  0.09492300  1
  O  O71  1  0.82567000  0.51915500  0.23038600  1
  O  O72  1  0.36259350  0.42436750  0.20495700  1
  O  O73  1  0.82913000  0.37196200  0.03528900  1
  O  O74  1  0.44418600  0.55462300  0.07312600  1
  O  O75  1  0.12655650  0.77109150  0.11416600  1
