# generated using pymatgen
data_TbH12S2NO12
_symmetry_space_group_name_H-M   'P 1'
_cell_length_a   6.58484500
_cell_length_b   19.18964000
_cell_length_c   8.63336047
_cell_angle_alpha   90.00000000
_cell_angle_beta   96.12467541
_cell_angle_gamma   90.00000000
_symmetry_Int_Tables_number   1
_chemical_formula_structural   TbH12S2NO12
_chemical_formula_sum   'Tb4 H48 S8 N4 O48'
_cell_volume   1084.69151176
_cell_formula_units_Z   4
loop_
 _symmetry_equiv_pos_site_id
 _symmetry_equiv_pos_as_xyz
  1  'x, y, z'
loop_
 _atom_site_type_symbol
 _atom_site_label
 _atom_site_symmetry_multiplicity
 _atom_site_fract_x
 _atom_site_fract_y
 _atom_site_fract_z
 _atom_site_occupancy
  Tb  Tb0  1  0.15375100  0.37720200  0.29063400  1
  Tb  Tb1  1  0.84624900  0.87720200  0.20936600  1
  Tb  Tb2  1  0.84624900  0.62279800  0.70936600  1
  Tb  Tb3  1  0.15375100  0.12279800  0.79063400  1
  H  H4  1  0.27680500  0.47360400  0.01188800  1
  H  H5  1  0.72319500  0.97360400  0.48811200  1
  H  H6  1  0.72319500  0.52639600  0.98811200  1
  H  H7  1  0.27680500  0.02639600  0.51188800  1
  H  H8  1  0.13627200  0.41061600  0.95607300  1
  H  H9  1  0.86372800  0.91061600  0.54392700  1
  H  H10  1  0.86372800  0.58938400  0.04392700  1
  H  H11  1  0.13627200  0.08938400  0.45607300  1
  H  H12  1  0.18587300  0.36215000  0.65172500  1
  H  H13  1  0.81412700  0.86215000  0.84827500  1
  H  H14  1  0.81412700  0.63785000  0.34827500  1
  H  H15  1  0.18587300  0.13785000  0.15172500  1
  H  H16  1  0.29132200  0.43256200  0.61638700  1
  H  H17  1  0.70867800  0.93256200  0.88361300  1
  H  H18  1  0.70867800  0.56743800  0.38361300  1
  H  H19  1  0.29132200  0.06743800  0.11638700  1
  H  H20  1  0.52852600  0.41033400  0.84219500  1
  H  H21  1  0.47147400  0.91033400  0.65780500  1
  H  H22  1  0.47147400  0.58966600  0.15780500  1
  H  H23  1  0.52852600  0.08966600  0.34219500  1
  H  H24  1  0.73503300  0.39039600  0.93973300  1
  H  H25  1  0.26496700  0.89039600  0.56026700  1
  H  H26  1  0.26496700  0.60960400  0.06026700  1
  H  H27  1  0.73503300  0.10960400  0.43973300  1
  H  H28  1  0.24525100  0.53190000  0.26781200  1
  H  H29  1  0.75474900  0.03190000  0.23218800  1
  H  H30  1  0.75474900  0.46810000  0.73218800  1
  H  H31  1  0.24525100  0.96810000  0.76781200  1
  H  H32  1  0.17698300  0.52197700  0.43599400  1
  H  H33  1  0.82301700  0.02197700  0.06400600  1
  H  H34  1  0.82301700  0.47802300  0.56400600  1
  H  H35  1  0.17698300  0.97802300  0.93599400  1
  H  H36  1  0.66314100  0.32376300  0.68902900  1
  H  H37  1  0.33685900  0.82376300  0.81097100  1
  H  H38  1  0.33685900  0.67623700  0.31097100  1
  H  H39  1  0.66314100  0.17623700  0.18902900  1
  H  H40  1  0.61604800  0.23862300  0.70414900  1
  H  H41  1  0.38395200  0.73862300  0.79585100  1
  H  H42  1  0.38395200  0.76137700  0.29585100  1
  H  H43  1  0.61604800  0.26137700  0.20414900  1
  H  H44  1  0.78804600  0.26517900  0.58637600  1
  H  H45  1  0.21195400  0.76517900  0.91362400  1
  H  H46  1  0.21195400  0.73482100  0.41362400  1
  H  H47  1  0.78804600  0.23482100  0.08637600  1
  H  H48  1  0.53543000  0.27792700  0.53500700  1
  H  H49  1  0.46457000  0.77792700  0.96499300  1
  H  H50  1  0.46457000  0.72207300  0.46499300  1
  H  H51  1  0.53543000  0.22207300  0.03500700  1
  S  S52  1  0.13441700  0.22461800  0.41961300  1
  S  S53  1  0.86558300  0.72461800  0.08038700  1
  S  S54  1  0.86558300  0.77538200  0.58038700  1
  S  S55  1  0.13441700  0.27538200  0.91961300  1
  S  S56  1  0.69533800  0.42399700  0.26404300  1
  S  S57  1  0.30466200  0.92399700  0.23595700  1
  S  S58  1  0.30466200  0.57600300  0.73595700  1
  S  S59  1  0.69533800  0.07600300  0.76404300  1
  N  N60  1  0.65135900  0.27679900  0.62776500  1
  N  N61  1  0.34864100  0.77679900  0.87223500  1
  N  N62  1  0.34864100  0.72320100  0.37223500  1
  N  N63  1  0.65135900  0.22320100  0.12776500  1
  O  O64  1  0.09564500  0.16124300  0.32240000  1
  O  O65  1  0.90435500  0.66124300  0.17760000  1
  O  O66  1  0.90435500  0.83875700  0.67760000  1
  O  O67  1  0.09564500  0.33875700  0.82240000  1
  O  O68  1  0.14209700  0.20555600  0.58645600  1
  O  O69  1  0.85790300  0.70555600  0.91354400  1
  O  O70  1  0.85790300  0.79444400  0.41354400  1
  O  O71  1  0.14209700  0.29444400  0.08645600  1
  O  O72  1  0.96742000  0.27741100  0.38317100  1
  O  O73  1  0.03258000  0.77741100  0.11682900  1
  O  O74  1  0.03258000  0.72258900  0.61682900  1
  O  O75  1  0.96742000  0.22258900  0.88317100  1
  O  O76  1  0.32771200  0.26033300  0.38719200  1
  O  O77  1  0.67228800  0.76033300  0.11280800  1
  O  O78  1  0.67228800  0.73966700  0.61280800  1
  O  O79  1  0.32771200  0.23966700  0.88719200  1
  O  O80  1  0.51023700  0.38132700  0.28084900  1
  O  O81  1  0.48976300  0.88132700  0.21915100  1
  O  O82  1  0.48976300  0.61867300  0.71915100  1
  O  O83  1  0.51023700  0.11867300  0.78084900  1
  O  O84  1  0.64155100  0.49659100  0.22164200  1
  O  O85  1  0.35844900  0.99659100  0.27835800  1
  O  O86  1  0.35844900  0.50340900  0.77835800  1
  O  O87  1  0.64155100  0.00340900  0.72164200  1
  O  O88  1  0.81289300  0.39030500  0.14308800  1
  O  O89  1  0.18710700  0.89030500  0.35691200  1
  O  O90  1  0.18710700  0.60969500  0.85691200  1
  O  O91  1  0.81289300  0.10969500  0.64308800  1
  O  O92  1  0.83983000  0.42088800  0.41059700  1
  O  O93  1  0.16017000  0.92088800  0.08940300  1
  O  O94  1  0.16017000  0.57911200  0.58940300  1
  O  O95  1  0.83983000  0.07911200  0.91059700  1
  O  O96  1  0.18637500  0.43843800  0.04877300  1
  O  O97  1  0.81362500  0.93843800  0.45122700  1
  O  O98  1  0.81362500  0.56156200  0.95122700  1
  O  O99  1  0.18637500  0.06156200  0.54877300  1
  O  O100  1  0.25325200  0.38692100  0.56941400  1
  O  O101  1  0.74674800  0.88692100  0.93058600  1
  O  O102  1  0.74674800  0.61307900  0.43058600  1
  O  O103  1  0.25325200  0.11307900  0.06941400  1
  O  O104  1  0.66973700  0.39715700  0.83140900  1
  O  O105  1  0.33026300  0.89715700  0.66859100  1
  O  O106  1  0.33026300  0.60284300  0.16859100  1
  O  O107  1  0.66973700  0.10284300  0.33140900  1
  O  O108  1  0.20314900  0.49597400  0.34102100  1
  O  O109  1  0.79685100  0.99597400  0.15897900  1
  O  O110  1  0.79685100  0.50402600  0.65897900  1
  O  O111  1  0.20314900  0.00402600  0.84102100  1
