# generated using pymatgen
data_Li2Mn3F8
_symmetry_space_group_name_H-M   'P 1'
_cell_length_a   6.49734200
_cell_length_b   12.15954600
_cell_length_c   8.79297000
_cell_angle_alpha   90.00000000
_cell_angle_beta   90.00000000
_cell_angle_gamma   90.00000000
_symmetry_Int_Tables_number   1
_chemical_formula_structural   Li2Mn3F8
_chemical_formula_sum   'Li8 Mn12 F32'
_cell_volume   694.68621131
_cell_formula_units_Z   4
loop_
 _symmetry_equiv_pos_site_id
 _symmetry_equiv_pos_as_xyz
  1  'x, y, z'
loop_
 _atom_site_type_symbol
 _atom_site_label
 _atom_site_symmetry_multiplicity
 _atom_site_fract_x
 _atom_site_fract_y
 _atom_site_fract_z
 _atom_site_occupancy
  Li  Li0  1  0.00000000  0.61597200  0.10799200  1
  Li  Li1  1  0.00000000  0.88402800  0.60799200  1
  Li  Li2  1  0.50000000  0.61597200  0.39200800  1
  Li  Li3  1  0.50000000  0.88402800  0.89200800  1
  Li  Li4  1  0.50000000  0.11597200  0.10799200  1
  Li  Li5  1  0.50000000  0.38402800  0.60799200  1
  Li  Li6  1  0.00000000  0.11597200  0.39200800  1
  Li  Li7  1  0.00000000  0.38402800  0.89200800  1
  Mn  Mn8  1  0.75000000  0.85254300  0.25000000  1
  Mn  Mn9  1  0.00000000  0.50000000  0.50000000  1
  Mn  Mn10  1  0.25000000  0.85254300  0.25000000  1
  Mn  Mn11  1  0.25000000  0.64745700  0.75000000  1
  Mn  Mn12  1  0.50000000  0.50000000  0.00000000  1
  Mn  Mn13  1  0.75000000  0.64745700  0.75000000  1
  Mn  Mn14  1  0.25000000  0.35254300  0.25000000  1
  Mn  Mn15  1  0.50000000  0.00000000  0.50000000  1
  Mn  Mn16  1  0.75000000  0.35254300  0.25000000  1
  Mn  Mn17  1  0.75000000  0.14745700  0.75000000  1
  Mn  Mn18  1  0.00000000  0.00000000  0.00000000  1
  Mn  Mn19  1  0.25000000  0.14745700  0.75000000  1
  F  F20  1  0.74863600  0.88525800  0.01360600  1
  F  F21  1  0.75136400  0.88525800  0.48639400  1
  F  F22  1  0.50000000  0.98401000  0.25352000  1
  F  F23  1  0.00000000  0.75574200  0.73239900  1
  F  F24  1  0.50000000  0.51599000  0.75352000  1
  F  F25  1  0.00000000  0.74425800  0.23239900  1
  F  F26  1  0.24863600  0.88525800  0.48639400  1
  F  F27  1  0.24863600  0.61474200  0.98639400  1
  F  F28  1  0.25136400  0.88525800  0.01360600  1
  F  F29  1  0.25136400  0.61474200  0.51360600  1
  F  F30  1  0.00000000  0.51599000  0.74648000  1
  F  F31  1  0.00000000  0.98401000  0.24648000  1
  F  F32  1  0.50000000  0.74425800  0.26760100  1
  F  F33  1  0.50000000  0.75574200  0.76760100  1
  F  F34  1  0.74863600  0.61474200  0.51360600  1
  F  F35  1  0.75136400  0.61474200  0.98639400  1
  F  F36  1  0.24863600  0.38525800  0.01360600  1
  F  F37  1  0.25136400  0.38525800  0.48639400  1
  F  F38  1  0.00000000  0.48401000  0.25352000  1
  F  F39  1  0.50000000  0.25574200  0.73239900  1
  F  F40  1  0.00000000  0.01599000  0.75352000  1
  F  F41  1  0.50000000  0.24425800  0.23239900  1
  F  F42  1  0.74863600  0.38525800  0.48639400  1
  F  F43  1  0.74863600  0.11474200  0.98639400  1
  F  F44  1  0.75136400  0.38525800  0.01360600  1
  F  F45  1  0.75136400  0.11474200  0.51360600  1
  F  F46  1  0.50000000  0.01599000  0.74648000  1
  F  F47  1  0.50000000  0.48401000  0.24648000  1
  F  F48  1  0.00000000  0.24425800  0.26760100  1
  F  F49  1  0.00000000  0.25574200  0.76760100  1
  F  F50  1  0.24863600  0.11474200  0.51360600  1
  F  F51  1  0.25136400  0.11474200  0.98639400  1
