# generated using pymatgen
data_BaTm2O4
_symmetry_space_group_name_H-M   'P 1'
_cell_length_a   3.40759200
_cell_length_b   11.21920600
_cell_length_c   11.39981000
_cell_angle_alpha   90.00000000
_cell_angle_beta   90.00000000
_cell_angle_gamma   90.00000000
_symmetry_Int_Tables_number   1
_chemical_formula_structural   BaTm2O4
_chemical_formula_sum   'Ba4 Tm8 O16'
_cell_volume   435.82016959
_cell_formula_units_Z   4
loop_
 _symmetry_equiv_pos_site_id
 _symmetry_equiv_pos_as_xyz
  1  'x, y, z'
loop_
 _atom_site_type_symbol
 _atom_site_label
 _atom_site_symmetry_multiplicity
 _atom_site_fract_x
 _atom_site_fract_y
 _atom_site_fract_z
 _atom_site_occupancy
  Ba  Ba0  1  0.00000000  0.11063800  0.75000000  1
  Ba  Ba1  1  0.50000000  0.38936200  0.25000000  1
  Ba  Ba2  1  0.50000000  0.61063800  0.75000000  1
  Ba  Ba3  1  0.00000000  0.88936200  0.25000000  1
  Tm  Tm4  1  0.00000000  0.36462700  0.92972700  1
  Tm  Tm5  1  0.00000000  0.36462700  0.57027300  1
  Tm  Tm6  1  0.50000000  0.13537300  0.07027300  1
  Tm  Tm7  1  0.50000000  0.13537300  0.42972700  1
  Tm  Tm8  1  0.50000000  0.86462700  0.92972700  1
  Tm  Tm9  1  0.50000000  0.86462700  0.57027300  1
  Tm  Tm10  1  0.00000000  0.63537300  0.07027300  1
  Tm  Tm11  1  0.00000000  0.63537300  0.42972700  1
  O  O12  1  0.00000000  0.00000000  0.50000000  1
  O  O13  1  0.00000000  0.00000000  0.00000000  1
  O  O14  1  0.00000000  0.43327700  0.75000000  1
  O  O15  1  0.00000000  0.25998500  0.10064200  1
  O  O16  1  0.00000000  0.25998500  0.39935800  1
  O  O17  1  0.50000000  0.06672300  0.25000000  1
  O  O18  1  0.50000000  0.24001500  0.89935800  1
  O  O19  1  0.50000000  0.24001500  0.60064200  1
  O  O20  1  0.50000000  0.50000000  0.50000000  1
  O  O21  1  0.50000000  0.50000000  0.00000000  1
  O  O22  1  0.50000000  0.93327700  0.75000000  1
  O  O23  1  0.50000000  0.75998500  0.10064200  1
  O  O24  1  0.50000000  0.75998500  0.39935800  1
  O  O25  1  0.00000000  0.56672300  0.25000000  1
  O  O26  1  0.00000000  0.74001500  0.89935800  1
  O  O27  1  0.00000000  0.74001500  0.60064200  1
