# generated using pymatgen
data_Fe6OF11
_symmetry_space_group_name_H-M   'P 1'
_cell_length_a   6.87131200
_cell_length_b   20.37415600
_cell_length_c   3.18353100
_cell_angle_alpha   90.00000000
_cell_angle_beta   90.00000000
_cell_angle_gamma   90.00000000
_symmetry_Int_Tables_number   1
_chemical_formula_structural   Fe6OF11
_chemical_formula_sum   'Fe12 O2 F22'
_cell_volume   445.68537076
_cell_formula_units_Z   2
loop_
 _symmetry_equiv_pos_site_id
 _symmetry_equiv_pos_as_xyz
  1  'x, y, z'
loop_
 _atom_site_type_symbol
 _atom_site_label
 _atom_site_symmetry_multiplicity
 _atom_site_fract_x
 _atom_site_fract_y
 _atom_site_fract_z
 _atom_site_occupancy
  Fe  Fe0  1  0.50000000  0.49763900  0.00000000  1
  Fe  Fe1  1  0.50000000  0.00432500  0.50000000  1
  Fe  Fe2  1  0.00000000  0.33432900  0.00000000  1
  Fe  Fe3  1  0.00000000  0.16545100  0.50000000  1
  Fe  Fe4  1  0.50000000  0.32935600  0.50000000  1
  Fe  Fe5  1  0.50000000  0.15854100  0.00000000  1
  Fe  Fe6  1  0.00000000  0.99763900  0.00000000  1
  Fe  Fe7  1  0.00000000  0.50432500  0.50000000  1
  Fe  Fe8  1  0.50000000  0.83432900  0.00000000  1
  Fe  Fe9  1  0.50000000  0.66545100  0.50000000  1
  Fe  Fe10  1  0.00000000  0.82935600  0.50000000  1
  Fe  Fe11  1  0.00000000  0.65854100  0.00000000  1
  O  O12  1  0.50000000  0.10359300  0.50000000  1
  O  O13  1  0.00000000  0.60359300  0.50000000  1
  F  F14  1  0.79900900  0.49675600  0.00000000  1
  F  F15  1  0.70031850  0.32888750  0.00000000  1
  F  F16  1  0.20099100  0.49675600  0.00000000  1
  F  F17  1  0.00000000  0.40101900  0.50000000  1
  F  F18  1  0.00000000  0.26518100  0.50000000  1
  F  F19  1  0.50000000  0.42889800  0.50000000  1
  F  F20  1  0.29968150  0.32888750  0.00000000  1
  F  F21  1  0.20815250  0.16661750  0.00000000  1
  F  F22  1  0.00000000  0.06631800  0.50000000  1
  F  F23  1  0.50000000  0.22456400  0.50000000  1
  F  F24  1  0.79184750  0.16661750  0.00000000  1
  F  F25  1  0.29900900  0.99675600  0.00000000  1
  F  F26  1  0.20031850  0.82888750  0.00000000  1
  F  F27  1  0.70099100  0.99675600  0.00000000  1
  F  F28  1  0.50000000  0.90101900  0.50000000  1
  F  F29  1  0.50000000  0.76518100  0.50000000  1
  F  F30  1  0.00000000  0.92889800  0.50000000  1
  F  F31  1  0.79968150  0.82888750  0.00000000  1
  F  F32  1  0.70815250  0.66661750  0.00000000  1
  F  F33  1  0.50000000  0.56631800  0.50000000  1
  F  F34  1  0.00000000  0.72456400  0.50000000  1
  F  F35  1  0.29184750  0.66661750  0.00000000  1
