# generated using pymatgen
data_Na3Fe2P(CO4)4
_symmetry_space_group_name_H-M   'P 1'
_cell_length_a   13.91477800
_cell_length_b   13.92459800
_cell_length_c   14.15952400
_cell_angle_alpha   90.00000000
_cell_angle_beta   90.00000000
_cell_angle_gamma   90.00000000
_symmetry_Int_Tables_number   1
_chemical_formula_structural   Na3Fe2P(CO4)4
_chemical_formula_sum   'Na24 Fe16 P8 C32 O128'
_cell_volume   2743.51666045
_cell_formula_units_Z   8
loop_
 _symmetry_equiv_pos_site_id
 _symmetry_equiv_pos_as_xyz
  1  'x, y, z'
loop_
 _atom_site_type_symbol
 _atom_site_label
 _atom_site_symmetry_multiplicity
 _atom_site_fract_x
 _atom_site_fract_y
 _atom_site_fract_z
 _atom_site_occupancy
  Na  Na0  1  0.37633250  0.46523550  0.24308800  1
  Na  Na1  1  0.37633250  0.03476450  0.25691200  1
  Na  Na2  1  0.12633250  0.21523550  0.00691200  1
  Na  Na3  1  0.12633250  0.78476450  0.99308800  1
  Na  Na4  1  0.09002900  0.75000000  0.25000000  1
  Na  Na5  1  0.84002900  0.50000000  0.00000000  1
  Na  Na6  1  0.87633250  0.46523550  0.74308800  1
  Na  Na7  1  0.87633250  0.03476450  0.75691200  1
  Na  Na8  1  0.62633250  0.21523550  0.50691200  1
  Na  Na9  1  0.62633250  0.78476450  0.49308800  1
  Na  Na10  1  0.59002900  0.75000000  0.75000000  1
  Na  Na11  1  0.34002900  0.50000000  0.50000000  1
  Na  Na12  1  0.87633250  0.96523550  0.24308800  1
  Na  Na13  1  0.87633250  0.53476450  0.25691200  1
  Na  Na14  1  0.62633250  0.71523550  0.00691200  1
  Na  Na15  1  0.62633250  0.28476450  0.99308800  1
  Na  Na16  1  0.59002900  0.25000000  0.25000000  1
  Na  Na17  1  0.34002900  0.00000000  0.00000000  1
  Na  Na18  1  0.37633250  0.96523550  0.74308800  1
  Na  Na19  1  0.37633250  0.53476450  0.75691200  1
  Na  Na20  1  0.12633250  0.71523550  0.50691200  1
  Na  Na21  1  0.12633250  0.28476450  0.49308800  1
  Na  Na22  1  0.09002900  0.25000000  0.75000000  1
  Na  Na23  1  0.84002900  0.00000000  0.50000000  1
  Fe  Fe24  1  0.25249300  0.37624100  0.87837600  1
  Fe  Fe25  1  0.50249300  0.62624100  0.37162400  1
  Fe  Fe26  1  0.25249300  0.62375900  0.12162400  1
  Fe  Fe27  1  0.50249300  0.87375900  0.12837600  1
  Fe  Fe28  1  0.75249300  0.37624100  0.37837600  1
  Fe  Fe29  1  0.00249300  0.62624100  0.87162400  1
  Fe  Fe30  1  0.75249300  0.62375900  0.62162400  1
  Fe  Fe31  1  0.00249300  0.87375900  0.62837600  1
  Fe  Fe32  1  0.75249300  0.87624100  0.87837600  1
  Fe  Fe33  1  0.00249300  0.12624100  0.37162400  1
  Fe  Fe34  1  0.75249300  0.12375900  0.12162400  1
  Fe  Fe35  1  0.00249300  0.37375900  0.12837600  1
  Fe  Fe36  1  0.25249300  0.87624100  0.37837600  1
  Fe  Fe37  1  0.50249300  0.12624100  0.87162400  1
  Fe  Fe38  1  0.25249300  0.12375900  0.62162400  1
  Fe  Fe39  1  0.50249300  0.37375900  0.62837600  1
  P  P40  1  0.37522900  0.25000000  0.25000000  1
  P  P41  1  0.12522900  0.00000000  0.00000000  1
  P  P42  1  0.87522900  0.25000000  0.75000000  1
  P  P43  1  0.62522900  0.00000000  0.50000000  1
  P  P44  1  0.87522900  0.75000000  0.25000000  1
  P  P45  1  0.62522900  0.50000000  0.00000000  1
  P  P46  1  0.37522900  0.75000000  0.75000000  1
  P  P47  1  0.12522900  0.50000000  0.50000000  1
  C  C48  1  0.46411900  0.83817800  0.33712100  1
  C  C49  1  0.46411900  0.66182200  0.16287900  1
  C  C50  1  0.28453950  0.66090850  0.33723100  1
  C  C51  1  0.28453950  0.83909150  0.16276900  1
  C  C52  1  0.21411900  0.58817800  0.91287900  1
  C  C53  1  0.21411900  0.41182200  0.08712100  1
  C  C54  1  0.03453950  0.58909150  0.08723100  1
  C  C55  1  0.03453950  0.41090850  0.91276900  1
  C  C56  1  0.96411900  0.83817800  0.83712100  1
  C  C57  1  0.96411900  0.66182200  0.66287900  1
  C  C58  1  0.78453950  0.66090850  0.83723100  1
  C  C59  1  0.78453950  0.83909150  0.66276900  1
  C  C60  1  0.71411900  0.58817800  0.41287900  1
  C  C61  1  0.71411900  0.41182200  0.58712100  1
  C  C62  1  0.53453950  0.58909150  0.58723100  1
  C  C63  1  0.53453950  0.41090850  0.41276900  1
  C  C64  1  0.96411900  0.33817800  0.33712100  1
  C  C65  1  0.96411900  0.16182200  0.16287900  1
  C  C66  1  0.78453950  0.16090850  0.33723100  1
  C  C67  1  0.78453950  0.33909150  0.16276900  1
  C  C68  1  0.71411900  0.08817800  0.91287900  1
  C  C69  1  0.71411900  0.91182200  0.08712100  1
  C  C70  1  0.53453950  0.08909150  0.08723100  1
  C  C71  1  0.53453950  0.91090850  0.91276900  1
  C  C72  1  0.46411900  0.33817800  0.83712100  1
  C  C73  1  0.46411900  0.16182200  0.66287900  1
  C  C74  1  0.28453950  0.16090850  0.83723100  1
  C  C75  1  0.28453950  0.33909150  0.66276900  1
  C  C76  1  0.21411900  0.08817800  0.41287900  1
  C  C77  1  0.21411900  0.91182200  0.58712100  1
  C  C78  1  0.03453950  0.08909150  0.58723100  1
  C  C79  1  0.03453950  0.91090850  0.41276900  1
  O  O80  1  0.73136650  0.51894700  0.35381150  1
  O  O81  1  0.51977800  0.85189800  0.26561300  1
  O  O82  1  0.51977800  0.64810200  0.23438700  1
  O  O83  1  0.51643200  0.47982300  0.35335200  1
  O  O84  1  0.48136650  0.73105300  0.10381150  1
  O  O85  1  0.43905900  0.31549400  0.18809700  1
  O  O86  1  0.43905900  0.18450600  0.31190300  1
  O  O87  1  0.39224300  0.60422300  0.14884900  1
  O  O88  1  0.39224300  0.89577700  0.35115100  1
  O  O89  1  0.35519550  0.60137950  0.35397700  1
  O  O90  1  0.35519550  0.89862050  0.14602300  1
  O  O91  1  0.31374550  0.18617350  0.18492400  1
  O  O92  1  0.31374550  0.31382650  0.31507600  1
  O  O93  1  0.26977800  0.60189800  0.98438700  1
  O  O94  1  0.26977800  0.39810200  0.01561300  1
  O  O95  1  0.26643200  0.77017700  0.10335200  1
  O  O96  1  0.23136650  0.48105300  0.14618850  1
  O  O97  1  0.23045550  0.64906450  0.26394600  1
  O  O98  1  0.23045550  0.85093550  0.23605400  1
  O  O99  1  0.18905900  0.93450600  0.93809700  1
  O  O100  1  0.18905900  0.06549400  0.06190300  1
  O  O101  1  0.14224300  0.35422300  0.10115100  1
  O  O102  1  0.14224300  0.64577700  0.89884900  1
  O  O103  1  0.10519550  0.35137950  0.89602300  1
  O  O104  1  0.10519550  0.64862050  0.10397700  1
  O  O105  1  0.06374550  0.06382650  0.93492400  1
  O  O106  1  0.06374550  0.93617350  0.06507600  1
  O  O107  1  0.01643200  0.52017700  0.14664800  1
  O  O108  1  0.98136650  0.76894700  0.89618850  1
  O  O109  1  0.98045550  0.60093550  0.01394600  1
  O  O110  1  0.98045550  0.39906450  0.98605400  1
  O  O111  1  0.76643200  0.72982300  0.89664800  1
  O  O112  1  0.23136650  0.51894700  0.85381150  1
  O  O113  1  0.01977800  0.85189800  0.76561300  1
  O  O114  1  0.01977800  0.64810200  0.73438700  1
  O  O115  1  0.01643200  0.47982300  0.85335200  1
  O  O116  1  0.98136650  0.73105300  0.60381150  1
  O  O117  1  0.93905900  0.31549400  0.68809700  1
  O  O118  1  0.93905900  0.18450600  0.81190300  1
  O  O119  1  0.89224300  0.60422300  0.64884900  1
  O  O120  1  0.89224300  0.89577700  0.85115100  1
  O  O121  1  0.85519550  0.60137950  0.85397700  1
  O  O122  1  0.85519550  0.89862050  0.64602300  1
  O  O123  1  0.81374550  0.18617350  0.68492400  1
  O  O124  1  0.81374550  0.31382650  0.81507600  1
  O  O125  1  0.76977800  0.60189800  0.48438700  1
  O  O126  1  0.76977800  0.39810200  0.51561300  1
  O  O127  1  0.76643200  0.77017700  0.60335200  1
  O  O128  1  0.73136650  0.48105300  0.64618850  1
  O  O129  1  0.73045550  0.64906450  0.76394600  1
  O  O130  1  0.73045550  0.85093550  0.73605400  1
  O  O131  1  0.68905900  0.93450600  0.43809700  1
  O  O132  1  0.68905900  0.06549400  0.56190300  1
  O  O133  1  0.64224300  0.35422300  0.60115100  1
  O  O134  1  0.64224300  0.64577700  0.39884900  1
  O  O135  1  0.60519550  0.35137950  0.39602300  1
  O  O136  1  0.60519550  0.64862050  0.60397700  1
  O  O137  1  0.56374550  0.06382650  0.43492400  1
  O  O138  1  0.56374550  0.93617350  0.56507600  1
  O  O139  1  0.51643200  0.52017700  0.64664800  1
  O  O140  1  0.48136650  0.76894700  0.39618850  1
  O  O141  1  0.48045550  0.60093550  0.51394600  1
  O  O142  1  0.48045550  0.39906450  0.48605400  1
  O  O143  1  0.26643200  0.72982300  0.39664800  1
  O  O144  1  0.23136650  0.01894700  0.35381150  1
  O  O145  1  0.01977800  0.35189800  0.26561300  1
  O  O146  1  0.01977800  0.14810200  0.23438700  1
  O  O147  1  0.01643200  0.97982300  0.35335200  1
  O  O148  1  0.98136650  0.23105300  0.10381150  1
  O  O149  1  0.93905900  0.81549400  0.18809700  1
  O  O150  1  0.93905900  0.68450600  0.31190300  1
  O  O151  1  0.89224300  0.10422300  0.14884900  1
  O  O152  1  0.89224300  0.39577700  0.35115100  1
  O  O153  1  0.85519550  0.10137950  0.35397700  1
  O  O154  1  0.85519550  0.39862050  0.14602300  1
  O  O155  1  0.81374550  0.68617350  0.18492400  1
  O  O156  1  0.81374550  0.81382650  0.31507600  1
  O  O157  1  0.76977800  0.10189800  0.98438700  1
  O  O158  1  0.76977800  0.89810200  0.01561300  1
  O  O159  1  0.76643200  0.27017700  0.10335200  1
  O  O160  1  0.73136650  0.98105300  0.14618850  1
  O  O161  1  0.73045550  0.14906450  0.26394600  1
  O  O162  1  0.73045550  0.35093550  0.23605400  1
  O  O163  1  0.68905900  0.43450600  0.93809700  1
  O  O164  1  0.68905900  0.56549400  0.06190300  1
  O  O165  1  0.64224300  0.85422300  0.10115100  1
  O  O166  1  0.64224300  0.14577700  0.89884900  1
  O  O167  1  0.60519550  0.85137950  0.89602300  1
  O  O168  1  0.60519550  0.14862050  0.10397700  1
  O  O169  1  0.56374550  0.56382650  0.93492400  1
  O  O170  1  0.56374550  0.43617350  0.06507600  1
  O  O171  1  0.51643200  0.02017700  0.14664800  1
  O  O172  1  0.48136650  0.26894700  0.89618850  1
  O  O173  1  0.48045550  0.10093550  0.01394600  1
  O  O174  1  0.48045550  0.89906450  0.98605400  1
  O  O175  1  0.26643200  0.22982300  0.89664800  1
  O  O176  1  0.73136650  0.01894700  0.85381150  1
  O  O177  1  0.51977800  0.35189800  0.76561300  1
  O  O178  1  0.51977800  0.14810200  0.73438700  1
  O  O179  1  0.51643200  0.97982300  0.85335200  1
  O  O180  1  0.48136650  0.23105300  0.60381150  1
  O  O181  1  0.43905900  0.81549400  0.68809700  1
  O  O182  1  0.43905900  0.68450600  0.81190300  1
  O  O183  1  0.39224300  0.10422300  0.64884900  1
  O  O184  1  0.39224300  0.39577700  0.85115100  1
  O  O185  1  0.35519550  0.10137950  0.85397700  1
  O  O186  1  0.35519550  0.39862050  0.64602300  1
  O  O187  1  0.31374550  0.68617350  0.68492400  1
  O  O188  1  0.31374550  0.81382650  0.81507600  1
  O  O189  1  0.26977800  0.10189800  0.48438700  1
  O  O190  1  0.26977800  0.89810200  0.51561300  1
  O  O191  1  0.26643200  0.27017700  0.60335200  1
  O  O192  1  0.23136650  0.98105300  0.64618850  1
  O  O193  1  0.23045550  0.14906450  0.76394600  1
  O  O194  1  0.23045550  0.35093550  0.73605400  1
  O  O195  1  0.18905900  0.43450600  0.43809700  1
  O  O196  1  0.18905900  0.56549400  0.56190300  1
  O  O197  1  0.14224300  0.85422300  0.60115100  1
  O  O198  1  0.14224300  0.14577700  0.39884900  1
  O  O199  1  0.10519550  0.85137950  0.39602300  1
  O  O200  1  0.10519550  0.14862050  0.60397700  1
  O  O201  1  0.06374550  0.56382650  0.43492400  1
  O  O202  1  0.06374550  0.43617350  0.56507600  1
  O  O203  1  0.01643200  0.02017700  0.64664800  1
  O  O204  1  0.98136650  0.26894700  0.39618850  1
  O  O205  1  0.98045550  0.10093550  0.51394600  1
  O  O206  1  0.98045550  0.89906450  0.48605400  1
  O  O207  1  0.76643200  0.22982300  0.39664800  1
