# generated using pymatgen
data_Ho2Ti2O7
_symmetry_space_group_name_H-M   'P 1'
_cell_length_a   7.53884800
_cell_length_b   5.34150900
_cell_length_c   13.14851034
_cell_angle_alpha   90.00000000
_cell_angle_beta   98.34879176
_cell_angle_gamma   90.00000000
_symmetry_Int_Tables_number   1
_chemical_formula_structural   Ho2Ti2O7
_chemical_formula_sum   'Ho8 Ti8 O28'
_cell_volume   523.86394259
_cell_formula_units_Z   4
loop_
 _symmetry_equiv_pos_site_id
 _symmetry_equiv_pos_as_xyz
  1  'x, y, z'
loop_
 _atom_site_type_symbol
 _atom_site_label
 _atom_site_symmetry_multiplicity
 _atom_site_fract_x
 _atom_site_fract_y
 _atom_site_fract_z
 _atom_site_occupancy
  Ho  Ho0  1  0.76695600  0.72744900  0.07877300  1
  Ho  Ho1  1  0.85752900  0.14067200  0.43632800  1
  Ho  Ho2  1  0.71466100  0.25187900  0.86681700  1
  Ho  Ho3  1  0.64557000  0.72064300  0.61352200  1
  Ho  Ho4  1  0.35443000  0.22064300  0.38647800  1
  Ho  Ho5  1  0.28533900  0.75187900  0.13318300  1
  Ho  Ho6  1  0.14247100  0.64067200  0.56367200  1
  Ho  Ho7  1  0.23304400  0.22744900  0.92122700  1
  Ti  Ti8  1  0.92967800  0.21580000  0.67895000  1
  Ti  Ti9  1  0.96914400  0.72950300  0.87922800  1
  Ti  Ti10  1  0.58971400  0.70402800  0.32767200  1
  Ti  Ti11  1  0.52917000  0.23078300  0.12400200  1
  Ti  Ti12  1  0.47083000  0.73078300  0.87599800  1
  Ti  Ti13  1  0.41028600  0.20402800  0.67232800  1
  Ti  Ti14  1  0.03085600  0.22950300  0.12077200  1
  Ti  Ti15  1  0.07032200  0.71580000  0.32105000  1
  O  O16  1  0.98810500  0.06617400  0.82104300  1
  O  O17  1  0.92556400  0.93674500  0.59155900  1
  O  O18  1  0.82734900  0.82633100  0.31321500  1
  O  O19  1  0.77894500  0.15024600  0.11638800  1
  O  O20  1  0.86278900  0.43360900  0.56828700  1
  O  O21  1  0.93893700  0.45694700  0.97521900  1
  O  O22  1  0.87023600  0.54739200  0.76768900  1
  O  O23  1  0.63359200  0.40495800  0.38502900  1
  O  O24  1  0.57525900  0.56789200  0.17774100  1
  O  O25  1  0.67287500  0.12135300  0.69386500  1
  O  O26  1  0.72856400  0.84868300  0.91270300  1
  O  O27  1  0.58901600  0.91313200  0.44703000  1
  O  O28  1  0.45217000  0.95923700  0.02599300  1
  O  O29  1  0.48480100  0.04820100  0.23476800  1
  O  O30  1  0.51519900  0.54820100  0.76523200  1
  O  O31  1  0.54783000  0.45923700  0.97400700  1
  O  O32  1  0.41098400  0.41313200  0.55297000  1
  O  O33  1  0.27143600  0.34868300  0.08729700  1
  O  O34  1  0.32712500  0.62135300  0.30613500  1
  O  O35  1  0.42474100  0.06789200  0.82225900  1
  O  O36  1  0.36640800  0.90495800  0.61497100  1
  O  O37  1  0.12976400  0.04739200  0.23231100  1
  O  O38  1  0.06106300  0.95694700  0.02478100  1
  O  O39  1  0.13721100  0.93360900  0.43171300  1
  O  O40  1  0.22105500  0.65024600  0.88361200  1
  O  O41  1  0.17265100  0.32633100  0.68678500  1
  O  O42  1  0.07443600  0.43674500  0.40844100  1
  O  O43  1  0.01189500  0.56617400  0.17895700  1
