# generated using pymatgen
data_MnP2O7
_symmetry_space_group_name_H-M   'P 1'
_cell_length_a   4.91284600
_cell_length_b   12.47101800
_cell_length_c   9.23989790
_cell_angle_alpha   90.00000000
_cell_angle_beta   121.10519092
_cell_angle_gamma   90.00000000
_symmetry_Int_Tables_number   1
_chemical_formula_structural   MnP2O7
_chemical_formula_sum   'Mn4 P8 O28'
_cell_volume   484.71643025
_cell_formula_units_Z   4
loop_
 _symmetry_equiv_pos_site_id
 _symmetry_equiv_pos_as_xyz
  1  'x, y, z'
loop_
 _atom_site_type_symbol
 _atom_site_label
 _atom_site_symmetry_multiplicity
 _atom_site_fract_x
 _atom_site_fract_y
 _atom_site_fract_z
 _atom_site_occupancy
  Mn  Mn0  1  0.62466800  0.85109900  0.34590500  1
  Mn  Mn1  1  0.37533200  0.35109900  0.15409500  1
  Mn  Mn2  1  0.62466800  0.64890100  0.84590500  1
  Mn  Mn3  1  0.37533200  0.14890100  0.65409500  1
  P  P4  1  0.10254600  0.48032100  0.80170300  1
  P  P5  1  0.22418900  0.80528200  0.94378800  1
  P  P6  1  0.77581100  0.30528200  0.55621200  1
  P  P7  1  0.89745400  0.98032100  0.69829700  1
  P  P8  1  0.10254600  0.01967900  0.30170300  1
  P  P9  1  0.22418900  0.69471800  0.44378800  1
  P  P10  1  0.77581100  0.19471800  0.05621200  1
  P  P11  1  0.89745400  0.51967900  0.19829700  1
  O  O12  1  0.91784600  0.72996800  0.43470500  1
  O  O13  1  0.29993800  0.74043500  0.82820000  1
  O  O14  1  0.04680700  0.06034800  0.63682900  1
  O  O15  1  0.67288500  0.46781400  0.24811100  1
  O  O16  1  0.51470400  0.81253000  0.12174800  1
  O  O17  1  0.26836300  0.38906500  0.92890800  1
  O  O18  1  0.16749700  0.92709500  0.87193100  1
  O  O19  1  0.83250300  0.42709500  0.62806900  1
  O  O20  1  0.73163700  0.88906500  0.57109200  1
  O  O21  1  0.48529600  0.31253000  0.37825200  1
  O  O22  1  0.95319300  0.56034800  0.86317100  1
  O  O23  1  0.32711500  0.96781400  0.25188900  1
  O  O24  1  0.70006200  0.24043500  0.67180000  1
  O  O25  1  0.08215400  0.22996800  0.06529500  1
  O  O26  1  0.91784600  0.77003200  0.93470500  1
  O  O27  1  0.29993800  0.75956500  0.32820000  1
  O  O28  1  0.67288500  0.03218600  0.74811100  1
  O  O29  1  0.04680700  0.43965200  0.13682900  1
  O  O30  1  0.51470400  0.68747000  0.62174800  1
  O  O31  1  0.26836300  0.11093500  0.42890800  1
  O  O32  1  0.16749700  0.57290500  0.37193100  1
  O  O33  1  0.83250300  0.07290500  0.12806900  1
  O  O34  1  0.73163700  0.61093500  0.07109200  1
  O  O35  1  0.48529600  0.18747000  0.87825200  1
  O  O36  1  0.32711500  0.53218600  0.75188900  1
  O  O37  1  0.95319300  0.93965200  0.36317100  1
  O  O38  1  0.70006200  0.25956500  0.17180000  1
  O  O39  1  0.08215400  0.27003200  0.56529500  1
