# generated using pymatgen
data_CuH12C3SN6O7
_symmetry_space_group_name_H-M   'P 1'
_cell_length_a   9.07202100
_cell_length_b   9.38601300
_cell_length_c   13.11044900
_cell_angle_alpha   90.00000000
_cell_angle_beta   90.00000000
_cell_angle_gamma   90.00000000
_symmetry_Int_Tables_number   1
_chemical_formula_structural   CuH12C3SN6O7
_chemical_formula_sum   'Cu4 H48 C12 S4 N24 O28'
_cell_volume   1116.35613572
_cell_formula_units_Z   4
loop_
 _symmetry_equiv_pos_site_id
 _symmetry_equiv_pos_as_xyz
  1  'x, y, z'
loop_
 _atom_site_type_symbol
 _atom_site_label
 _atom_site_symmetry_multiplicity
 _atom_site_fract_x
 _atom_site_fract_y
 _atom_site_fract_z
 _atom_site_occupancy
  Cu  Cu0  1  0.00000000  0.50000000  0.00000000  1
  Cu  Cu1  1  0.50000000  0.50000000  0.00000000  1
  Cu  Cu2  1  0.00000000  0.00000000  0.50000000  1
  Cu  Cu3  1  0.50000000  0.00000000  0.50000000  1
  H  H4  1  0.85991900  0.03767500  0.96894000  1
  H  H5  1  0.35991900  0.96232500  0.96894000  1
  H  H6  1  0.45922100  0.81152700  0.94029400  1
  H  H7  1  0.95922100  0.18847300  0.94029400  1
  H  H8  1  0.48202600  0.20997800  0.85042200  1
  H  H9  1  0.98202600  0.79002200  0.85042200  1
  H  H10  1  0.27317600  0.51845600  0.83608600  1
  H  H11  1  0.77317600  0.48154400  0.83608600  1
  H  H12  1  0.64912500  0.17361800  0.79080000  1
  H  H13  1  0.14912500  0.82638200  0.79080000  1
  H  H14  1  0.26803200  0.10093500  0.78427900  1
  H  H15  1  0.76803200  0.89906500  0.78427900  1
  H  H16  1  0.26803200  0.60093500  0.71572100  1
  H  H17  1  0.76803200  0.39906500  0.71572100  1
  H  H18  1  0.14912500  0.32638200  0.70920000  1
  H  H19  1  0.64912500  0.67361800  0.70920000  1
  H  H20  1  0.27317600  0.01845600  0.66391400  1
  H  H21  1  0.77317600  0.98154400  0.66391400  1
  H  H22  1  0.48202600  0.70997800  0.64957800  1
  H  H23  1  0.98202600  0.29002200  0.64957800  1
  H  H24  1  0.45922100  0.31152700  0.55970600  1
  H  H25  1  0.95922100  0.68847300  0.55970600  1
  H  H26  1  0.35991900  0.46232500  0.53106000  1
  H  H27  1  0.85991900  0.53767500  0.53106000  1
  H  H28  1  0.14008100  0.46232500  0.46894000  1
  H  H29  1  0.64008100  0.53767500  0.46894000  1
  H  H30  1  0.04077900  0.31152700  0.44029400  1
  H  H31  1  0.54077900  0.68847300  0.44029400  1
  H  H32  1  0.51797400  0.29002200  0.35042200  1
  H  H33  1  0.01797400  0.70997800  0.35042200  1
  H  H34  1  0.22682400  0.01845600  0.33608600  1
  H  H35  1  0.72682400  0.98154400  0.33608600  1
  H  H36  1  0.35087500  0.32638200  0.29080000  1
  H  H37  1  0.85087500  0.67361800  0.29080000  1
  H  H38  1  0.73196800  0.39906500  0.28427900  1
  H  H39  1  0.23196800  0.60093500  0.28427900  1
  H  H40  1  0.23196800  0.10093500  0.21572100  1
  H  H41  1  0.73196800  0.89906500  0.21572100  1
  H  H42  1  0.85087500  0.17361800  0.20920000  1
  H  H43  1  0.35087500  0.82638200  0.20920000  1
  H  H44  1  0.72682400  0.48154400  0.16391400  1
  H  H45  1  0.22682400  0.51845600  0.16391400  1
  H  H46  1  0.01797400  0.20997800  0.14957800  1
  H  H47  1  0.51797400  0.79002200  0.14957800  1
  H  H48  1  0.54077900  0.18847300  0.05970600  1
  H  H49  1  0.04077900  0.81152700  0.05970600  1
  H  H50  1  0.64008100  0.03767500  0.03106000  1
  H  H51  1  0.14008100  0.96232500  0.03106000  1
  C  C52  1  0.75000000  0.22216900  0.00000000  1
  C  C53  1  0.25000000  0.77783100  0.00000000  1
  C  C54  1  0.97145600  0.40780700  0.78431000  1
  C  C55  1  0.47145600  0.59219300  0.78431000  1
  C  C56  1  0.47145600  0.09219300  0.71569000  1
  C  C57  1  0.97145600  0.90780700  0.71569000  1
  C  C58  1  0.75000000  0.72216900  0.50000000  1
  C  C59  1  0.25000000  0.27783100  0.50000000  1
  C  C60  1  0.02854400  0.09219300  0.28431000  1
  C  C61  1  0.52854400  0.90780700  0.28431000  1
  C  C62  1  0.52854400  0.40780700  0.21569000  1
  C  C63  1  0.02854400  0.59219300  0.21569000  1
  S  S64  1  0.25000000  0.25083400  0.00000000  1
  S  S65  1  0.75000000  0.74916600  0.00000000  1
  S  S66  1  0.75000000  0.24916600  0.50000000  1
  S  S67  1  0.25000000  0.75083400  0.50000000  1
  N  N68  1  0.85908400  0.14429700  0.95539300  1
  N  N69  1  0.35908400  0.85570300  0.95539300  1
  N  N70  1  0.53854900  0.16071900  0.79312400  1
  N  N71  1  0.03854900  0.83928100  0.79312400  1
  N  N72  1  0.32575000  0.57124500  0.77905200  1
  N  N73  1  0.82575000  0.42875500  0.77905200  1
  N  N74  1  0.32575000  0.07124500  0.72094800  1
  N  N75  1  0.82575000  0.92875500  0.72094800  1
  N  N76  1  0.03854900  0.33928100  0.70687600  1
  N  N77  1  0.53854900  0.66071900  0.70687600  1
  N  N78  1  0.35908400  0.35570300  0.54460700  1
  N  N79  1  0.85908400  0.64429700  0.54460700  1
  N  N80  1  0.14091600  0.35570300  0.45539300  1
  N  N81  1  0.64091600  0.64429700  0.45539300  1
  N  N82  1  0.46145100  0.33928100  0.29312400  1
  N  N83  1  0.96145100  0.66071900  0.29312400  1
  N  N84  1  0.17425000  0.07124500  0.27905200  1
  N  N85  1  0.67425000  0.92875500  0.27905200  1
  N  N86  1  0.67425000  0.42875500  0.22094800  1
  N  N87  1  0.17425000  0.57124500  0.22094800  1
  N  N88  1  0.96145100  0.16071900  0.20687600  1
  N  N89  1  0.46145100  0.83928100  0.20687600  1
  N  N90  1  0.64091600  0.14429700  0.04460700  1
  N  N91  1  0.14091600  0.85570300  0.04460700  1
  O  O92  1  0.25000000  0.64318800  0.00000000  1
  O  O93  1  0.75000000  0.35681200  0.00000000  1
  O  O94  1  0.36637200  0.34242800  0.94928900  1
  O  O95  1  0.86637200  0.65757200  0.94928900  1
  O  O96  1  0.18337200  0.16133500  0.91951600  1
  O  O97  1  0.68337200  0.83866500  0.91951600  1
  O  O98  1  0.55050700  0.54853400  0.85939600  1
  O  O99  1  0.05050700  0.45146600  0.85939600  1
  O  O100  1  0.55050700  0.04853400  0.64060400  1
  O  O101  1  0.05050700  0.95146600  0.64060400  1
  O  O102  1  0.68337200  0.33866500  0.58048400  1
  O  O103  1  0.18337200  0.66133500  0.58048400  1
  O  O104  1  0.86637200  0.15757200  0.55071100  1
  O  O105  1  0.36637200  0.84242800  0.55071100  1
  O  O106  1  0.75000000  0.85681200  0.50000000  1
  O  O107  1  0.25000000  0.14318800  0.50000000  1
  O  O108  1  0.63362800  0.15757200  0.44928900  1
  O  O109  1  0.13362800  0.84242800  0.44928900  1
  O  O110  1  0.81662800  0.33866500  0.41951600  1
  O  O111  1  0.31662800  0.66133500  0.41951600  1
  O  O112  1  0.94949300  0.04853400  0.35939600  1
  O  O113  1  0.44949300  0.95146600  0.35939600  1
  O  O114  1  0.44949300  0.45146600  0.14060400  1
  O  O115  1  0.94949300  0.54853400  0.14060400  1
  O  O116  1  0.31662800  0.16133500  0.08048400  1
  O  O117  1  0.81662800  0.83866500  0.08048400  1
  O  O118  1  0.13362800  0.34242800  0.05071100  1
  O  O119  1  0.63362800  0.65757200  0.05071100  1
