# generated using pymatgen
data_LiVPO4
_symmetry_space_group_name_H-M   'P 1'
_cell_length_a   5.65741200
_cell_length_b   9.41937200
_cell_length_c   11.53524800
_cell_angle_alpha   90.00000000
_cell_angle_beta   90.00000000
_cell_angle_gamma   90.00000000
_symmetry_Int_Tables_number   1
_chemical_formula_structural   LiVPO4
_chemical_formula_sum   'Li8 V8 P8 O32'
_cell_volume   614.70492426
_cell_formula_units_Z   8
loop_
 _symmetry_equiv_pos_site_id
 _symmetry_equiv_pos_as_xyz
  1  'x, y, z'
loop_
 _atom_site_type_symbol
 _atom_site_label
 _atom_site_symmetry_multiplicity
 _atom_site_fract_x
 _atom_site_fract_y
 _atom_site_fract_z
 _atom_site_occupancy
  Li  Li0  1  0.50000000  0.44026800  0.00000000  1
  Li  Li1  1  0.25000000  0.19026800  0.25000000  1
  Li  Li2  1  0.50000000  0.94026800  0.50000000  1
  Li  Li3  1  0.25000000  0.69026800  0.75000000  1
  Li  Li4  1  0.00000000  0.94026800  0.00000000  1
  Li  Li5  1  0.75000000  0.69026800  0.25000000  1
  Li  Li6  1  0.00000000  0.44026800  0.50000000  1
  Li  Li7  1  0.75000000  0.19026800  0.75000000  1
  V  V8  1  0.75000000  0.06602450  0.25000000  1
  V  V9  1  0.00000000  0.31602450  0.00000000  1
  V  V10  1  0.75000000  0.56602450  0.75000000  1
  V  V11  1  0.00000000  0.81602450  0.50000000  1
  V  V12  1  0.25000000  0.56602450  0.25000000  1
  V  V13  1  0.50000000  0.81602450  0.00000000  1
  V  V14  1  0.25000000  0.06602450  0.75000000  1
  V  V15  1  0.50000000  0.31602450  0.50000000  1
  P  P16  1  0.50000000  0.12767900  0.00000000  1
  P  P17  1  0.75000000  0.37767900  0.25000000  1
  P  P18  1  0.50000000  0.62767900  0.50000000  1
  P  P19  1  0.75000000  0.87767900  0.75000000  1
  P  P20  1  0.00000000  0.62767900  0.00000000  1
  P  P21  1  0.25000000  0.87767900  0.25000000  1
  P  P22  1  0.00000000  0.12767900  0.50000000  1
  P  P23  1  0.25000000  0.37767900  0.75000000  1
  O  O24  1  0.66637250  0.22309750  0.92758100  1
  O  O25  1  0.58362750  0.47309750  0.17758100  1
  O  O26  1  0.33362750  0.22309750  0.07241900  1
  O  O27  1  0.41637250  0.97309750  0.32241900  1
  O  O28  1  0.84895800  0.52242150  0.92493750  1
  O  O29  1  0.90104200  0.27242150  0.17493750  1
  O  O30  1  0.65104200  0.02242150  0.07506250  1
  O  O31  1  0.59895800  0.27242150  0.32506250  1
  O  O32  1  0.66637250  0.72309750  0.42758100  1
  O  O33  1  0.58362750  0.97309750  0.67758100  1
  O  O34  1  0.33362750  0.72309750  0.57241900  1
  O  O35  1  0.41637250  0.47309750  0.82241900  1
  O  O36  1  0.84895800  0.02242150  0.42493750  1
  O  O37  1  0.90104200  0.77242150  0.67493750  1
  O  O38  1  0.65104200  0.52242150  0.57506250  1
  O  O39  1  0.59895800  0.77242150  0.82506250  1
  O  O40  1  0.16637250  0.72309750  0.92758100  1
  O  O41  1  0.08362750  0.97309750  0.17758100  1
  O  O42  1  0.83362750  0.72309750  0.07241900  1
  O  O43  1  0.91637250  0.47309750  0.32241900  1
  O  O44  1  0.34895800  0.02242150  0.92493750  1
  O  O45  1  0.40104200  0.77242150  0.17493750  1
  O  O46  1  0.15104200  0.52242150  0.07506250  1
  O  O47  1  0.09895800  0.77242150  0.32506250  1
  O  O48  1  0.16637250  0.22309750  0.42758100  1
  O  O49  1  0.08362750  0.47309750  0.67758100  1
  O  O50  1  0.83362750  0.22309750  0.57241900  1
  O  O51  1  0.91637250  0.97309750  0.82241900  1
  O  O52  1  0.34895800  0.52242150  0.42493750  1
  O  O53  1  0.40104200  0.27242150  0.67493750  1
  O  O54  1  0.15104200  0.02242150  0.57506250  1
  O  O55  1  0.09895800  0.27242150  0.82506250  1
