# generated using pymatgen
data_Li2Ti7O15
_symmetry_space_group_name_H-M   'P 1'
_cell_length_a   18.24428400
_cell_length_b   2.98956000
_cell_length_c   9.55414298
_cell_angle_alpha   90.00000000
_cell_angle_beta   98.73963320
_cell_angle_gamma   90.00000000
_symmetry_Int_Tables_number   1
_chemical_formula_structural   Li2Ti7O15
_chemical_formula_sum   'Li4 Ti14 O30'
_cell_volume   515.05516406
_cell_formula_units_Z   2
loop_
 _symmetry_equiv_pos_site_id
 _symmetry_equiv_pos_as_xyz
  1  'x, y, z'
loop_
 _atom_site_type_symbol
 _atom_site_label
 _atom_site_symmetry_multiplicity
 _atom_site_fract_x
 _atom_site_fract_y
 _atom_site_fract_z
 _atom_site_occupancy
  Li  Li0  1  0.84109700  0.00000000  0.27645600  1
  Li  Li1  1  0.65890300  0.50000000  0.72354400  1
  Li  Li2  1  0.34109700  0.50000000  0.27645600  1
  Li  Li3  1  0.15890300  0.00000000  0.72354400  1
  Ti  Ti4  1  0.81061700  0.00000000  0.60102300  1
  Ti  Ti5  1  0.68222300  0.00000000  0.05114000  1
  Ti  Ti6  1  0.99615200  0.50000000  0.33940400  1
  Ti  Ti7  1  0.50384800  0.00000000  0.66059600  1
  Ti  Ti8  1  0.00000000  0.00000000  0.00000000  1
  Ti  Ti9  1  0.81777700  0.50000000  0.94886000  1
  Ti  Ti10  1  0.68938300  0.50000000  0.39897700  1
  Ti  Ti11  1  0.31061700  0.50000000  0.60102300  1
  Ti  Ti12  1  0.18222300  0.50000000  0.05114000  1
  Ti  Ti13  1  0.49615200  0.00000000  0.33940400  1
  Ti  Ti14  1  0.00384800  0.50000000  0.66059600  1
  Ti  Ti15  1  0.50000000  0.50000000  0.00000000  1
  Ti  Ti16  1  0.31777700  0.00000000  0.94886000  1
  Ti  Ti17  1  0.18938300  0.00000000  0.39897700  1
  O  O18  1  0.98741100  0.00000000  0.78900200  1
  O  O19  1  0.79940500  0.00000000  0.07526300  1
  O  O20  1  0.81255100  0.00000000  0.81578900  1
  O  O21  1  0.76940600  0.00000000  0.40287000  1
  O  O22  1  0.62533000  0.00000000  0.39248100  1
  O  O23  1  0.57320100  0.00000000  0.00826100  1
  O  O24  1  0.59788300  0.00000000  0.69753600  1
  O  O25  1  0.00000000  0.00000000  0.50000000  1
  O  O26  1  0.90211700  0.50000000  0.30246400  1
  O  O27  1  0.92679900  0.50000000  0.99173900  1
  O  O28  1  0.87467000  0.50000000  0.60751900  1
  O  O29  1  0.73059400  0.50000000  0.59713000  1
  O  O30  1  0.68744900  0.50000000  0.18421100  1
  O  O31  1  0.70059500  0.50000000  0.92473700  1
  O  O32  1  0.51258900  0.50000000  0.21099800  1
  O  O33  1  0.48741100  0.50000000  0.78900200  1
  O  O34  1  0.29940500  0.50000000  0.07526300  1
  O  O35  1  0.31255100  0.50000000  0.81578900  1
  O  O36  1  0.26940600  0.50000000  0.40287000  1
  O  O37  1  0.12533000  0.50000000  0.39248100  1
  O  O38  1  0.07320100  0.50000000  0.00826100  1
  O  O39  1  0.09788300  0.50000000  0.69753600  1
  O  O40  1  0.50000000  0.50000000  0.50000000  1
  O  O41  1  0.40211700  0.00000000  0.30246400  1
  O  O42  1  0.42679900  0.00000000  0.99173900  1
  O  O43  1  0.37467000  0.00000000  0.60751900  1
  O  O44  1  0.23059400  0.00000000  0.59713000  1
  O  O45  1  0.18744900  0.00000000  0.18421100  1
  O  O46  1  0.20059500  0.00000000  0.92473700  1
  O  O47  1  0.01258900  0.00000000  0.21099800  1
