# generated using pymatgen
data_BaTl2O4
_symmetry_space_group_name_H-M   'P 1'
_cell_length_a   3.59191000
_cell_length_b   11.56155200
_cell_length_c   11.05594200
_cell_angle_alpha   90.00000000
_cell_angle_beta   90.00000000
_cell_angle_gamma   90.00000000
_symmetry_Int_Tables_number   1
_chemical_formula_structural   BaTl2O4
_chemical_formula_sum   'Ba4 Tl8 O16'
_cell_volume   459.13175910
_cell_formula_units_Z   4
loop_
 _symmetry_equiv_pos_site_id
 _symmetry_equiv_pos_as_xyz
  1  'x, y, z'
loop_
 _atom_site_type_symbol
 _atom_site_label
 _atom_site_symmetry_multiplicity
 _atom_site_fract_x
 _atom_site_fract_y
 _atom_site_fract_z
 _atom_site_occupancy
  Ba  Ba0  1  0.00000000  0.10805200  0.75000000  1
  Ba  Ba1  1  0.50000000  0.39194800  0.25000000  1
  Ba  Ba2  1  0.50000000  0.60805200  0.75000000  1
  Ba  Ba3  1  0.00000000  0.89194800  0.25000000  1
  Tl  Tl4  1  0.00000000  0.36375100  0.93203200  1
  Tl  Tl5  1  0.00000000  0.36375100  0.56796800  1
  Tl  Tl6  1  0.50000000  0.13624900  0.06796800  1
  Tl  Tl7  1  0.50000000  0.13624900  0.43203200  1
  Tl  Tl8  1  0.50000000  0.86375100  0.93203200  1
  Tl  Tl9  1  0.50000000  0.86375100  0.56796800  1
  Tl  Tl10  1  0.00000000  0.63624900  0.06796800  1
  Tl  Tl11  1  0.00000000  0.63624900  0.43203200  1
  O  O12  1  0.00000000  0.00000000  0.50000000  1
  O  O13  1  0.00000000  0.00000000  0.00000000  1
  O  O14  1  0.00000000  0.43952800  0.75000000  1
  O  O15  1  0.00000000  0.27046400  0.10683500  1
  O  O16  1  0.00000000  0.27046400  0.39316500  1
  O  O17  1  0.50000000  0.06047200  0.25000000  1
  O  O18  1  0.50000000  0.22953600  0.89316500  1
  O  O19  1  0.50000000  0.22953600  0.60683500  1
  O  O20  1  0.50000000  0.50000000  0.50000000  1
  O  O21  1  0.50000000  0.50000000  0.00000000  1
  O  O22  1  0.50000000  0.93952800  0.75000000  1
  O  O23  1  0.50000000  0.77046400  0.10683500  1
  O  O24  1  0.50000000  0.77046400  0.39316500  1
  O  O25  1  0.00000000  0.56047200  0.25000000  1
  O  O26  1  0.00000000  0.72953600  0.89316500  1
  O  O27  1  0.00000000  0.72953600  0.60683500  1
