# generated using pymatgen
data_NaCaB5(H5O7)2
_symmetry_space_group_name_H-M   'P 1'
_cell_length_a   6.63860700
_cell_length_b   12.67095300
_cell_length_c   13.60216762
_cell_angle_alpha   90.00000000
_cell_angle_beta   99.95714656
_cell_angle_gamma   90.00000000
_symmetry_Int_Tables_number   1
_chemical_formula_structural   NaCaB5(H5O7)2
_chemical_formula_sum   'Na4 Ca4 B20 H40 O56'
_cell_volume   1126.94564840
_cell_formula_units_Z   4
loop_
 _symmetry_equiv_pos_site_id
 _symmetry_equiv_pos_as_xyz
  1  'x, y, z'
loop_
 _atom_site_type_symbol
 _atom_site_label
 _atom_site_symmetry_multiplicity
 _atom_site_fract_x
 _atom_site_fract_y
 _atom_site_fract_z
 _atom_site_occupancy
  Na  Na0  1  0.88092700  0.00454600  0.17617900  1
  Na  Na1  1  0.11907300  0.50454600  0.32382100  1
  Na  Na2  1  0.11907300  0.99545400  0.82382100  1
  Na  Na3  1  0.88092700  0.49545400  0.67617900  1
  Ca  Ca4  1  0.64972500  0.91280100  0.40639900  1
  Ca  Ca5  1  0.35027500  0.41280100  0.09360100  1
  Ca  Ca6  1  0.35027500  0.08719900  0.59360100  1
  Ca  Ca7  1  0.64972500  0.58719900  0.90639900  1
  B  B8  1  0.66392800  0.25723200  0.55068700  1
  B  B9  1  0.33607200  0.75723200  0.94931300  1
  B  B10  1  0.33607200  0.74276800  0.44931300  1
  B  B11  1  0.66392800  0.24276800  0.05068700  1
  B  B12  1  0.50040700  0.14268500  0.39760900  1
  B  B13  1  0.49959300  0.64268500  0.10239100  1
  B  B14  1  0.49959300  0.85731500  0.60239100  1
  B  B15  1  0.50040700  0.35731500  0.89760900  1
  B  B16  1  0.88011400  0.15050100  0.45497200  1
  B  B17  1  0.11988600  0.65050100  0.04502800  1
  B  B18  1  0.11988600  0.84949900  0.54502800  1
  B  B19  1  0.88011400  0.34949900  0.95497200  1
  B  B20  1  0.14752600  0.06066700  0.36703100  1
  B  B21  1  0.85247400  0.56066700  0.13296900  1
  B  B22  1  0.85247400  0.93933300  0.63296900  1
  B  B23  1  0.14752600  0.43933300  0.86703100  1
  B  B24  1  0.24921400  0.19094600  0.24695800  1
  B  B25  1  0.75078600  0.69094600  0.25304200  1
  B  B26  1  0.75078600  0.80905400  0.75304200  1
  B  B27  1  0.24921400  0.30905400  0.74695800  1
  H  H28  1  0.65313800  0.24782400  0.70289300  1
  H  H29  1  0.34686200  0.74782400  0.79710700  1
  H  H30  1  0.34686200  0.75217600  0.29710700  1
  H  H31  1  0.65313800  0.25217600  0.20289300  1
  H  H32  1  0.52021700  0.39789100  0.56704400  1
  H  H33  1  0.47978300  0.89789100  0.93295600  1
  H  H34  1  0.47978300  0.60210900  0.43295600  1
  H  H35  1  0.52021700  0.10210900  0.06704400  1
  H  H36  1  0.07180600  0.24532100  0.11924800  1
  H  H37  1  0.92819400  0.74532100  0.38075200  1
  H  H38  1  0.92819400  0.75467900  0.88075200  1
  H  H39  1  0.07180600  0.25467900  0.61924800  1
  H  H40  1  0.12753400  0.90152100  0.34008800  1
  H  H41  1  0.87246600  0.40152100  0.15991200  1
  H  H42  1  0.87246600  0.09847900  0.65991200  1
  H  H43  1  0.12753400  0.59847900  0.84008800  1
  H  H44  1  0.54793800  0.85197200  0.20587800  1
  H  H45  1  0.45206200  0.35197200  0.29412200  1
  H  H46  1  0.45206200  0.14802800  0.79412200  1
  H  H47  1  0.54793800  0.64802800  0.70587800  1
  H  H48  1  0.44498200  0.96447000  0.19103100  1
  H  H49  1  0.55501800  0.46447000  0.30896900  1
  H  H50  1  0.55501800  0.03553000  0.80896900  1
  H  H51  1  0.44498200  0.53553000  0.69103100  1
  H  H52  1  0.19856700  0.05761100  0.04837900  1
  H  H53  1  0.80143300  0.55761100  0.45162100  1
  H  H54  1  0.80143300  0.94238900  0.95162100  1
  H  H55  1  0.19856700  0.44238900  0.54837900  1
  H  H56  1  0.24968300  0.93977100  0.04418500  1
  H  H57  1  0.75031700  0.43977100  0.45581500  1
  H  H58  1  0.75031700  0.06022900  0.95581500  1
  H  H59  1  0.24968300  0.56022900  0.54418500  1
  H  H60  1  0.95148800  0.82419200  0.05057600  1
  H  H61  1  0.04851200  0.32419200  0.44942400  1
  H  H62  1  0.04851200  0.17580800  0.94942400  1
  H  H63  1  0.95148800  0.67580800  0.55057600  1
  H  H64  1  0.71688300  0.80445000  0.05263500  1
  H  H65  1  0.28311700  0.30445000  0.44736500  1
  H  H66  1  0.28311700  0.19555000  0.94736500  1
  H  H67  1  0.71688300  0.69555000  0.55263500  1
  O  O68  1  0.67004300  0.20059700  0.64776900  1
  O  O69  1  0.32995700  0.70059700  0.85223100  1
  O  O70  1  0.32995700  0.79940300  0.35223100  1
  O  O71  1  0.67004300  0.29940300  0.14776900  1
  O  O72  1  0.65727400  0.37349500  0.56270100  1
  O  O73  1  0.34272600  0.87349500  0.93729900  1
  O  O74  1  0.34272600  0.62650500  0.43729900  1
  O  O75  1  0.65727400  0.12650500  0.06270100  1
  O  O76  1  0.85991100  0.23741700  0.51485300  1
  O  O77  1  0.14008900  0.73741700  0.98514700  1
  O  O78  1  0.14008900  0.76258300  0.48514700  1
  O  O79  1  0.85991100  0.26258300  0.01485300  1
  O  O80  1  0.48758900  0.21438300  0.48195400  1
  O  O81  1  0.51241100  0.71438300  0.01804600  1
  O  O82  1  0.51241100  0.78561700  0.51804600  1
  O  O83  1  0.48758900  0.28561700  0.98195400  1
  O  O84  1  0.71108900  0.10070200  0.40268500  1
  O  O85  1  0.28891100  0.60070200  0.09731500  1
  O  O86  1  0.28891100  0.89929800  0.59731500  1
  O  O87  1  0.71108900  0.39929800  0.90268500  1
  O  O88  1  0.36984900  0.04830200  0.40025800  1
  O  O89  1  0.63015100  0.54830200  0.09974200  1
  O  O90  1  0.63015100  0.95169800  0.59974200  1
  O  O91  1  0.36984900  0.45169800  0.90025800  1
  O  O92  1  0.44262000  0.20267100  0.30172400  1
  O  O93  1  0.55738000  0.70267100  0.19827600  1
  O  O94  1  0.55738000  0.79732900  0.69827600  1
  O  O95  1  0.44262000  0.29732900  0.80172400  1
  O  O96  1  0.07435600  0.11918500  0.44983300  1
  O  O97  1  0.92564400  0.61918500  0.05016700  1
  O  O98  1  0.92564400  0.88081500  0.55016700  1
  O  O99  1  0.07435600  0.38081500  0.94983300  1
  O  O100  1  0.10353400  0.12692000  0.27389700  1
  O  O101  1  0.89646600  0.62692000  0.22610300  1
  O  O102  1  0.89646600  0.87308000  0.72610300  1
  O  O103  1  0.10353400  0.37308000  0.77389700  1
  O  O104  1  0.21033800  0.25110200  0.15943600  1
  O  O105  1  0.78966200  0.75110200  0.34056400  1
  O  O106  1  0.78966200  0.74889800  0.84056400  1
  O  O107  1  0.21033800  0.24889800  0.65943600  1
  O  O108  1  0.03515700  0.96106800  0.34728300  1
  O  O109  1  0.96484300  0.46106800  0.15271700  1
  O  O110  1  0.96484300  0.03893200  0.65271700  1
  O  O111  1  0.03515700  0.53893200  0.84728300  1
  O  O112  1  0.57025100  0.92772000  0.22359100  1
  O  O113  1  0.42974900  0.42772000  0.27640900  1
  O  O114  1  0.42974900  0.07228000  0.77640900  1
  O  O115  1  0.57025100  0.57228000  0.72359100  1
  O  O116  1  0.21860000  0.99413100  0.09213300  1
  O  O117  1  0.78140000  0.49413100  0.40786700  1
  O  O118  1  0.78140000  0.00586900  0.90786700  1
  O  O119  1  0.21860000  0.50586900  0.59213300  1
  O  O120  1  0.82610100  0.85987500  0.06202300  1
  O  O121  1  0.17389900  0.35987500  0.43797700  1
  O  O122  1  0.17389900  0.14012500  0.93797700  1
  O  O123  1  0.82610100  0.64012500  0.56202300  1
