# generated using pymatgen
data_FeH6SO6
_symmetry_space_group_name_H-M   'P 1'
_cell_length_a   7.42264800
_cell_length_b   8.03466600
_cell_length_c   9.32049006
_cell_angle_alpha   90.00000000
_cell_angle_beta   104.25574429
_cell_angle_gamma   90.00000000
_symmetry_Int_Tables_number   1
_chemical_formula_structural   FeH6SO6
_chemical_formula_sum   'Fe4 H24 S4 O24'
_cell_volume   538.74299562
_cell_formula_units_Z   4
loop_
 _symmetry_equiv_pos_site_id
 _symmetry_equiv_pos_as_xyz
  1  'x, y, z'
loop_
 _atom_site_type_symbol
 _atom_site_label
 _atom_site_symmetry_multiplicity
 _atom_site_fract_x
 _atom_site_fract_y
 _atom_site_fract_z
 _atom_site_occupancy
  Fe  Fe0  1  0.15685000  0.35771800  0.47801200  1
  Fe  Fe1  1  0.84315000  0.85771800  0.02198800  1
  Fe  Fe2  1  0.84315000  0.64228200  0.52198800  1
  Fe  Fe3  1  0.15685000  0.14228200  0.97801200  1
  H  H4  1  0.51677400  0.26894600  0.48004600  1
  H  H5  1  0.48322600  0.76894600  0.01995400  1
  H  H6  1  0.48322600  0.73105400  0.51995400  1
  H  H7  1  0.51677400  0.23105400  0.98004600  1
  H  H8  1  0.48048200  0.42263400  0.36883000  1
  H  H9  1  0.51951800  0.92263400  0.13117000  1
  H  H10  1  0.51951800  0.57736600  0.63117000  1
  H  H11  1  0.48048200  0.07736600  0.86883000  1
  H  H12  1  0.68168900  0.48475300  0.24685100  1
  H  H13  1  0.31831100  0.98475300  0.25314900  1
  H  H14  1  0.31831100  0.51524700  0.75314900  1
  H  H15  1  0.68168900  0.01524700  0.74685100  1
  H  H16  1  0.61876000  0.67163500  0.24799800  1
  H  H17  1  0.38124000  0.17163500  0.25200200  1
  H  H18  1  0.38124000  0.32836500  0.75200200  1
  H  H19  1  0.61876000  0.82836500  0.74799800  1
  H  H20  1  0.15000800  0.42238200  0.12281800  1
  H  H21  1  0.84999200  0.92238200  0.37718200  1
  H  H22  1  0.84999200  0.57761800  0.87718200  1
  H  H23  1  0.15000800  0.07761800  0.62281800  1
  H  H24  1  0.23565400  0.49498700  0.99174100  1
  H  H25  1  0.76434600  0.99498700  0.50825900  1
  H  H26  1  0.76434600  0.50501300  0.00825900  1
  H  H27  1  0.23565400  0.00501300  0.49174100  1
  S  S28  1  0.15231700  0.70885400  0.31187700  1
  S  S29  1  0.84768300  0.20885400  0.18812300  1
  S  S30  1  0.84768300  0.29114600  0.68812300  1
  S  S31  1  0.15231700  0.79114600  0.81187700  1
  O  O32  1  0.09874000  0.61965100  0.44550400  1
  O  O33  1  0.90126000  0.11965100  0.05449600  1
  O  O34  1  0.90126000  0.38034900  0.55449600  1
  O  O35  1  0.09874000  0.88034900  0.94550400  1
  O  O36  1  0.01975700  0.31450100  0.25743500  1
  O  O37  1  0.98024300  0.81450100  0.24256500  1
  O  O38  1  0.98024300  0.68549900  0.74256500  1
  O  O39  1  0.01975700  0.18549900  0.75743500  1
  O  O40  1  0.69820600  0.33724100  0.11320300  1
  O  O41  1  0.30179400  0.83724100  0.38679700  1
  O  O42  1  0.30179400  0.66275900  0.88679700  1
  O  O43  1  0.69820600  0.16275900  0.61320300  1
  O  O44  1  0.41961200  0.32435600  0.40077200  1
  O  O45  1  0.58038800  0.82435600  0.09922800  1
  O  O46  1  0.58038800  0.67564400  0.59922800  1
  O  O47  1  0.41961200  0.17564400  0.90077200  1
  O  O48  1  0.64853200  0.57222700  0.31291500  1
  O  O49  1  0.35146800  0.07222700  0.18708500  1
  O  O50  1  0.35146800  0.42777300  0.68708500  1
  O  O51  1  0.64853200  0.92777300  0.81291500  1
  O  O52  1  0.21549900  0.39311700  0.04632200  1
  O  O53  1  0.78450100  0.89311700  0.45367800  1
  O  O54  1  0.78450100  0.60688300  0.95367800  1
  O  O55  1  0.21549900  0.10688300  0.54632200  1
