# generated using pymatgen
data_MnF4
_symmetry_space_group_name_H-M   'P 1'
_cell_length_a   9.94387739
_cell_length_b   9.94387739
_cell_length_c   13.16275454
_cell_angle_alpha   90.00000000
_cell_angle_beta   90.00000000
_cell_angle_gamma   120.00000000
_symmetry_Int_Tables_number   1
_chemical_formula_structural   MnF4
_chemical_formula_sum   'Mn18 F72'
_cell_volume   1127.16873991
_cell_formula_units_Z   18
loop_
 _symmetry_equiv_pos_site_id
 _symmetry_equiv_pos_as_xyz
  1  'x, y, z'
loop_
 _atom_site_type_symbol
 _atom_site_label
 _atom_site_symmetry_multiplicity
 _atom_site_fract_x
 _atom_site_fract_y
 _atom_site_fract_z
 _atom_site_occupancy
  Mn  Mn0  1  0.16666667  0.83333333  0.83333333  1
  Mn  Mn1  1  0.83333333  0.66666667  0.16666667  1
  Mn  Mn2  1  0.33333333  0.16666667  0.16666667  1
  Mn  Mn3  1  0.00000000  0.50000000  0.00000000  1
  Mn  Mn4  1  0.50000000  0.00000000  0.00000000  1
  Mn  Mn5  1  0.16666667  0.83333333  0.33333333  1
  Mn  Mn6  1  0.83333333  0.16666667  0.16666667  1
  Mn  Mn7  1  0.50000000  0.00000000  0.50000000  1
  Mn  Mn8  1  0.00000000  0.50000000  0.50000000  1
  Mn  Mn9  1  0.66666667  0.83333333  0.33333333  1
  Mn  Mn10  1  0.16666667  0.33333333  0.33333333  1
  Mn  Mn11  1  0.83333333  0.16666667  0.66666667  1
  Mn  Mn12  1  0.50000000  0.50000000  0.50000000  1
  Mn  Mn13  1  0.16666667  0.33333333  0.83333333  1
  Mn  Mn14  1  0.66666667  0.83333333  0.83333333  1
  Mn  Mn15  1  0.33333333  0.16666667  0.66666667  1
  Mn  Mn16  1  0.83333333  0.66666667  0.66666667  1
  Mn  Mn17  1  0.50000000  0.50000000  1.00000000  1
  F  F18  1  0.81369433  0.30070267  0.24334267  1
  F  F19  1  0.17965833  0.14702767  0.08999067  1
  F  F20  1  0.30070267  0.81369433  0.25665733  1
  F  F21  1  0.52000733  0.66666667  0.91666667  1
  F  F22  1  0.31244100  0.31244100  0.25000000  1
  F  F23  1  0.66666667  0.64577433  0.08333333  1
  F  F24  1  0.48036100  0.84632500  0.07667600  1
  F  F25  1  0.69929733  0.51299167  0.24334267  1
  F  F26  1  0.51299167  0.69929733  0.25665733  1
  F  F27  1  0.33333333  0.47999267  0.41666667  1
  F  F28  1  0.14665933  0.47999267  0.91666667  1
  F  F29  1  0.68755900  0.00000000  0.25000000  1
  F  F30  1  0.97910767  0.33333333  0.08333333  1
  F  F31  1  0.52000733  0.85334067  0.41666667  1
  F  F32  1  0.33333333  0.85334067  0.91666667  1
  F  F33  1  0.15367500  0.63403600  0.07667600  1
  F  F34  1  0.96736933  0.82034167  0.08999067  1
  F  F35  1  0.18630567  0.48700833  0.25665733  1
  F  F36  1  0.00000000  0.68755900  0.25000000  1
  F  F37  1  0.35422567  0.02089233  0.08333333  1
  F  F38  1  0.14665933  0.66666667  0.41666667  1
  F  F39  1  0.36596400  0.51963900  0.07667600  1
  F  F40  1  0.48700833  0.18630567  0.24334267  1
  F  F41  1  0.85297233  0.03263067  0.08999067  1
  F  F42  1  0.48036100  0.63403600  0.57667600  1
  F  F43  1  0.84632500  0.48036100  0.42332400  1
  F  F44  1  0.96736933  0.14702767  0.58999067  1
  F  F45  1  0.18667400  0.00000000  0.25000000  1
  F  F46  1  0.97910767  0.64577433  0.58333333  1
  F  F47  1  0.33333333  0.97910767  0.41666667  1
  F  F48  1  0.14702767  0.17965833  0.41000933  1
  F  F49  1  0.36596400  0.84632500  0.57667600  1
  F  F50  1  0.17965833  0.03263067  0.58999067  1
  F  F51  1  0.00000000  0.81332600  0.75000000  1
  F  F52  1  0.81332600  0.81332600  0.25000000  1
  F  F53  1  0.35422567  0.33333333  0.58333333  1
  F  F54  1  0.64577433  0.66666667  0.41666667  1
  F  F55  1  0.18667400  0.18667400  0.75000000  1
  F  F56  1  0.00000000  0.18667400  0.25000000  1
  F  F57  1  0.82034167  0.96736933  0.41000933  1
  F  F58  1  0.63403600  0.15367500  0.42332400  1
  F  F59  1  0.85297233  0.82034167  0.58999067  1
  F  F60  1  0.66666667  0.02089233  0.58333333  1
  F  F61  1  0.02089233  0.35422567  0.41666667  1
  F  F62  1  0.81332600  0.00000000  0.75000000  1
  F  F63  1  0.03263067  0.85297233  0.41000933  1
  F  F64  1  0.15367500  0.51963900  0.57667600  1
  F  F65  1  0.51963900  0.36596400  0.42332400  1
  F  F66  1  0.14702767  0.96736933  0.91000933  1
  F  F67  1  0.51299167  0.81369433  0.75665733  1
  F  F68  1  0.63403600  0.48036100  0.92332400  1
  F  F69  1  0.85334067  0.33333333  0.58333333  1
  F  F70  1  0.64577433  0.97910767  0.91666667  1
  F  F71  1  0.00000000  0.31244100  0.75000000  1
  F  F72  1  0.81369433  0.51299167  0.74334267  1
  F  F73  1  0.03263067  0.17965833  0.91000933  1
  F  F74  1  0.84632500  0.36596400  0.92332400  1
  F  F75  1  0.66666667  0.14665933  0.08333333  1
  F  F76  1  0.47999267  0.14665933  0.58333333  1
  F  F77  1  0.02089233  0.66666667  0.91666667  1
  F  F78  1  0.31244100  0.00000000  0.75000000  1
  F  F79  1  0.85334067  0.52000733  0.08333333  1
  F  F80  1  0.66666667  0.52000733  0.58333333  1
  F  F81  1  0.48700833  0.30070267  0.74334267  1
  F  F82  1  0.30070267  0.48700833  0.75665733  1
  F  F83  1  0.51963900  0.15367500  0.92332400  1
  F  F84  1  0.33333333  0.35422567  0.91666667  1
  F  F85  1  0.68755900  0.68755900  0.75000000  1
  F  F86  1  0.47999267  0.33333333  0.08333333  1
  F  F87  1  0.69929733  0.18630567  0.74334267  1
  F  F88  1  0.82034167  0.85297233  0.91000933  1
  F  F89  1  0.18630567  0.69929733  0.75665733  1
