# generated using pymatgen
data_Y2TeO6
_symmetry_space_group_name_H-M   'P 1'
_cell_length_a   7.71912900
_cell_length_b   5.45305400
_cell_length_c   11.54148521
_cell_angle_alpha   90.00000000
_cell_angle_beta   103.91610791
_cell_angle_gamma   90.00000000
_symmetry_Int_Tables_number   1
_chemical_formula_structural   Y2TeO6
_chemical_formula_sum   'Y8 Te4 O24'
_cell_volume   471.55457884
_cell_formula_units_Z   4
loop_
 _symmetry_equiv_pos_site_id
 _symmetry_equiv_pos_as_xyz
  1  'x, y, z'
loop_
 _atom_site_type_symbol
 _atom_site_label
 _atom_site_symmetry_multiplicity
 _atom_site_fract_x
 _atom_site_fract_y
 _atom_site_fract_z
 _atom_site_occupancy
  Y  Y0  1  0.00000000  0.25949600  0.75000000  1
  Y  Y1  1  0.00000000  0.74050400  0.25000000  1
  Y  Y2  1  0.78862100  0.80614500  0.92280300  1
  Y  Y3  1  0.78862100  0.19385500  0.42280300  1
  Y  Y4  1  0.50000000  0.31328500  0.75000000  1
  Y  Y5  1  0.50000000  0.68671500  0.25000000  1
  Y  Y6  1  0.21137900  0.80614500  0.57719700  1
  Y  Y7  1  0.21137900  0.19385500  0.07719700  1
  Te  Te8  1  0.72594800  0.74593500  0.61458500  1
  Te  Te9  1  0.72594800  0.25406500  0.11458500  1
  Te  Te10  1  0.27405200  0.74593500  0.88541500  1
  Te  Te11  1  0.27405200  0.25406500  0.38541500  1
  O  O12  1  0.94135300  0.94923000  0.60626500  1
  O  O13  1  0.84995600  0.46782600  0.56794900  1
  O  O14  1  0.94135300  0.05077000  0.10626500  1
  O  O15  1  0.79257500  0.54984800  0.76934400  1
  O  O16  1  0.84995600  0.53217400  0.06794900  1
  O  O17  1  0.70644600  0.02064200  0.72543200  1
  O  O18  1  0.79257500  0.45015200  0.26934400  1
  O  O19  1  0.64015200  0.14367100  0.95126900  1
  O  O20  1  0.49238600  0.62651000  0.61386500  1
  O  O21  1  0.70644600  0.97935800  0.22543200  1
  O  O22  1  0.50761400  0.62651000  0.88613500  1
  O  O23  1  0.35984800  0.14367100  0.54873100  1
  O  O24  1  0.64015200  0.85632900  0.45126900  1
  O  O25  1  0.49238600  0.37349000  0.11386500  1
  O  O26  1  0.29355400  0.02064200  0.77456800  1
  O  O27  1  0.50761400  0.37349000  0.38613500  1
  O  O28  1  0.35984800  0.85632900  0.04873100  1
  O  O29  1  0.20742500  0.54984800  0.73065600  1
  O  O30  1  0.29355400  0.97935800  0.27456800  1
  O  O31  1  0.15004400  0.46782600  0.93205100  1
  O  O32  1  0.20742500  0.45015200  0.23065600  1
  O  O33  1  0.05864700  0.94923000  0.89373500  1
  O  O34  1  0.15004400  0.53217400  0.43205100  1
  O  O35  1  0.05864700  0.05077000  0.39373500  1
