# generated using pymatgen
data_Li3Mn2Fe(BO3)3
_symmetry_space_group_name_H-M   'P 1'
_cell_length_a   8.26180900
_cell_length_b   3.17449400
_cell_length_c   14.29065134
_cell_angle_alpha   90.00000000
_cell_angle_beta   90.04467585
_cell_angle_gamma   90.00000000
_symmetry_Int_Tables_number   1
_chemical_formula_structural   Li3Mn2Fe(BO3)3
_chemical_formula_sum   'Li6 Mn4 Fe2 B6 O18'
_cell_volume   374.80170060
_cell_formula_units_Z   2
loop_
 _symmetry_equiv_pos_site_id
 _symmetry_equiv_pos_as_xyz
  1  'x, y, z'
loop_
 _atom_site_type_symbol
 _atom_site_label
 _atom_site_symmetry_multiplicity
 _atom_site_fract_x
 _atom_site_fract_y
 _atom_site_fract_z
 _atom_site_occupancy
  Li  Li0  1  0.29273900  0.50000000  0.99042700  1
  Li  Li1  1  0.34108600  0.50000000  0.35789500  1
  Li  Li2  1  0.36667400  0.50000000  0.65109900  1
  Li  Li3  1  0.79275300  0.50000000  0.49166800  1
  Li  Li4  1  0.84015500  0.50000000  0.85779200  1
  Li  Li5  1  0.86569600  0.50000000  0.15005900  1
  Mn  Mn6  1  0.13517400  0.00000000  0.50620700  1
  Mn  Mn7  1  0.19270300  0.00000000  0.18009700  1
  Mn  Mn8  1  0.67334200  0.00000000  0.31435100  1
  Mn  Mn9  1  0.69144300  0.00000000  0.67971800  1
  Fe  Fe10  1  0.17571500  0.00000000  0.81658600  1
  Fe  Fe11  1  0.63656700  0.00000000  0.00379800  1
  B  B12  1  0.00166900  0.50000000  0.66804400  1
  B  B13  1  0.99821600  0.00000000  0.99981100  1
  B  B14  1  0.99987600  0.50000000  0.33332200  1
  B  B15  1  0.50078700  0.50000000  0.16493300  1
  B  B16  1  0.50001000  0.00000000  0.50001500  1
  B  B17  1  0.49899000  0.50000000  0.83435300  1
  O  O18  1  0.00998200  0.50000000  0.43022100  1
  O  O19  1  0.01762500  0.50000000  0.76495800  1
  O  O20  1  0.13913000  0.50000000  0.61160700  1
  O  O21  1  0.14030600  0.50000000  0.27986500  1
  O  O22  1  0.15103500  0.00000000  0.95804800  1
  O  O23  1  0.34715400  0.50000000  0.12426700  1
  O  O24  1  0.34720100  0.50000000  0.79193600  1
  O  O25  1  0.36436900  0.00000000  0.44191100  1
  O  O26  1  0.48092900  0.00000000  0.59694600  1
  O  O27  1  0.51171100  0.50000000  0.93142200  1
  O  O28  1  0.51457100  0.50000000  0.26223000  1
  O  O29  1  0.63789300  0.50000000  0.10871900  1
  O  O30  1  0.63799800  0.50000000  0.77989200  1
  O  O31  1  0.65482500  0.00000000  0.46118000  1
  O  O32  1  0.84883200  0.50000000  0.62648800  1
  O  O33  1  0.84966800  0.50000000  0.28969300  1
  O  O34  1  0.85975300  0.00000000  0.94387200  1
  O  O35  1  0.98342500  0.00000000  0.09657400  1
