# generated using pymatgen
data_Li4V2(PO4)3
_symmetry_space_group_name_H-M   'P 1'
_cell_length_a   9.08722400
_cell_length_b   9.08722400
_cell_length_c   19.79354927
_cell_angle_alpha   90.00000000
_cell_angle_beta   90.00000000
_cell_angle_gamma   120.00000000
_symmetry_Int_Tables_number   1
_chemical_formula_structural   Li4V2(PO4)3
_chemical_formula_sum   'Li24 V12 P18 O72'
_cell_volume   1415.52249520
_cell_formula_units_Z   6
loop_
 _symmetry_equiv_pos_site_id
 _symmetry_equiv_pos_as_xyz
  1  'x, y, z'
loop_
 _atom_site_type_symbol
 _atom_site_label
 _atom_site_symmetry_multiplicity
 _atom_site_fract_x
 _atom_site_fract_y
 _atom_site_fract_z
 _atom_site_occupancy
  Li  Li0  1  0.26049967  0.92716633  0.08333333  1
  Li  Li1  1  0.59383300  0.00000000  0.25000000  1
  Li  Li2  1  0.33333333  0.66666667  0.16666667  1
  Li  Li3  1  0.66666667  0.73950033  0.08333333  1
  Li  Li4  1  0.00000000  0.59383300  0.25000000  1
  Li  Li5  1  0.07283367  0.33333333  0.08333333  1
  Li  Li6  1  0.00000000  0.00000000  0.00000000  1
  Li  Li7  1  0.40616700  0.40616700  0.25000000  1
  Li  Li8  1  0.92716633  0.26049967  0.41666667  1
  Li  Li9  1  0.26049967  0.33333333  0.58333333  1
  Li  Li10  1  1.00000000  0.00000000  0.50000000  1
  Li  Li11  1  0.33333333  0.07283367  0.41666667  1
  Li  Li12  1  0.66666667  0.92716633  0.58333333  1
  Li  Li13  1  0.73950033  0.66666667  0.41666667  1
  Li  Li14  1  0.66666667  0.33333333  0.33333333  1
  Li  Li15  1  0.07283367  0.73950033  0.58333333  1
  Li  Li16  1  0.59383300  0.59383300  0.75000000  1
  Li  Li17  1  0.92716633  0.66666667  0.91666667  1
  Li  Li18  1  0.66666667  0.33333333  0.83333333  1
  Li  Li19  1  0.00000000  0.40616700  0.75000000  1
  Li  Li20  1  0.33333333  0.26049967  0.91666667  1
  Li  Li21  1  0.40616700  0.00000000  0.75000000  1
  Li  Li22  1  0.33333333  0.66666667  0.66666667  1
  Li  Li23  1  0.73950033  0.07283367  0.91666667  1
  V  V24  1  0.33333333  0.66666667  0.81066267  1
  V  V25  1  0.33333333  0.66666667  0.31066267  1
  V  V26  1  0.33333333  0.66666667  0.02267067  1
  V  V27  1  0.33333333  0.66666667  0.52267067  1
  V  V28  1  0.00000000  0.00000000  0.14399600  1
  V  V29  1  0.00000000  0.00000000  0.64399600  1
  V  V30  1  1.00000000  0.00000000  0.35600400  1
  V  V31  1  0.00000000  0.00000000  0.85600400  1
  V  V32  1  0.66666667  0.33333333  0.47732933  1
  V  V33  1  0.66666667  0.33333333  0.97732933  1
  V  V34  1  0.66666667  0.33333333  0.68933733  1
  V  V35  1  0.66666667  0.33333333  0.18933733  1
  P  P36  1  0.97007767  0.63674433  0.08333333  1
  P  P37  1  0.66666667  0.02992233  0.08333333  1
  P  P38  1  0.30341100  1.00000000  0.25000000  1
  P  P39  1  0.36325567  0.33333333  0.08333333  1
  P  P40  1  0.00000000  0.30341100  0.25000000  1
  P  P41  1  0.69658900  0.69658900  0.25000000  1
  P  P42  1  0.63674433  0.97007767  0.41666667  1
  P  P43  1  0.33333333  0.36325567  0.41666667  1
  P  P44  1  0.97007767  0.33333333  0.58333333  1
  P  P45  1  0.02992233  0.66666667  0.41666667  1
  P  P46  1  0.66666667  0.63674433  0.58333333  1
  P  P47  1  0.36325567  0.02992233  0.58333333  1
  P  P48  1  0.30341100  0.30341100  0.75000000  1
  P  P49  1  0.00000000  0.69658900  0.75000000  1
  P  P50  1  0.63674433  0.66666667  0.91666667  1
  P  P51  1  0.69658900  0.00000000  0.75000000  1
  P  P52  1  0.33333333  0.97007767  0.91666667  1
  P  P53  1  0.02992233  0.36325567  0.91666667  1
  O  O54  1  0.66403767  0.12250633  0.14754033  1
  O  O55  1  0.33070433  0.87486467  0.98087367  1
  O  O56  1  0.15255300  0.66200200  0.08980500  1
  O  O57  1  0.99533533  0.81921967  0.07686167  1
  O  O58  1  0.87749367  0.54153133  0.14754033  1
  O  O59  1  0.54153133  0.87749367  0.35245967  1
  O  O60  1  0.82388433  0.00466467  0.07686167  1
  O  O61  1  0.48588633  0.15721767  0.25647167  1
  O  O62  1  0.32866867  0.84278233  0.24352833  1
  O  O63  1  0.54416033  0.66929567  0.98087367  1
  O  O64  1  0.20819800  0.99737100  0.18579300  1
  O  O65  1  0.50944900  0.84744700  0.08980500  1
  O  O66  1  0.15721767  0.48588633  0.24352833  1
  O  O67  1  0.45846867  0.33596233  0.14754033  1
  O  O68  1  0.12250633  0.66403767  0.35245967  1
  O  O69  1  0.33799800  0.49055100  0.08980500  1
  O  O70  1  0.18078033  0.17611567  0.07686167  1
  O  O71  1  0.84278233  0.32866867  0.25647167  1
  O  O72  1  0.12513533  0.45583967  0.98087367  1
  O  O73  1  0.78917300  0.79180200  0.18579300  1
  O  O74  1  0.67133133  0.51411367  0.25647167  1
  O  O75  1  0.51411367  0.67133133  0.24352833  1
  O  O76  1  0.33596233  0.45846867  0.35245967  1
  O  O77  1  0.00262900  0.21082700  0.18579300  1
  O  O78  1  0.33070433  0.45583967  0.48087367  1
  O  O79  1  0.99737100  0.20819800  0.31420700  1
  O  O80  1  0.81921967  0.99533533  0.42313833  1
  O  O81  1  0.66200200  0.15255300  0.41019500  1
  O  O82  1  0.54416033  0.87486467  0.48087367  1
  O  O83  1  0.20819800  0.21082700  0.68579300  1
  O  O84  1  0.49055100  0.33799800  0.41019500  1
  O  O85  1  0.15255300  0.49055100  0.58980500  1
  O  O86  1  0.99533533  0.17611567  0.57686167  1
  O  O87  1  0.21082700  0.00262900  0.31420700  1
  O  O88  1  0.87486467  0.33070433  0.51912633  1
  O  O89  1  0.17611567  0.18078033  0.42313833  1
  O  O90  1  0.82388433  0.81921967  0.57686167  1
  O  O91  1  0.12513533  0.66929567  0.48087367  1
  O  O92  1  0.78917300  0.99737100  0.68579300  1
  O  O93  1  0.00466467  0.82388433  0.42313833  1
  O  O94  1  0.84744700  0.50944900  0.41019500  1
  O  O95  1  0.50944900  0.66200200  0.58980500  1
  O  O96  1  0.79180200  0.78917300  0.31420700  1
  O  O97  1  0.45583967  0.12513533  0.51912633  1
  O  O98  1  0.33799800  0.84744700  0.58980500  1
  O  O99  1  0.18078033  0.00466467  0.57686167  1
  O  O100  1  0.00262900  0.79180200  0.68579300  1
  O  O101  1  0.66929567  0.54416033  0.51912633  1
  O  O102  1  0.99737100  0.78917300  0.81420700  1
  O  O103  1  0.66403767  0.54153133  0.64754033  1
  O  O104  1  0.48588633  0.32866867  0.75647167  1
  O  O105  1  0.32866867  0.48588633  0.74352833  1
  O  O106  1  0.21082700  0.20819800  0.81420700  1
  O  O107  1  0.87486467  0.54416033  0.01912633  1
  O  O108  1  0.15721767  0.67133133  0.74352833  1
  O  O109  1  0.81921967  0.82388433  0.92313833  1
  O  O110  1  0.66200200  0.50944900  0.91019500  1
  O  O111  1  0.87749367  0.33596233  0.64754033  1
  O  O112  1  0.54153133  0.66403767  0.85245967  1
  O  O113  1  0.84278233  0.51411367  0.75647167  1
  O  O114  1  0.49055100  0.15255300  0.91019500  1
  O  O115  1  0.79180200  0.00262900  0.81420700  1
  O  O116  1  0.45583967  0.33070433  0.01912633  1
  O  O117  1  0.67133133  0.15721767  0.75647167  1
  O  O118  1  0.51411367  0.84278233  0.74352833  1
  O  O119  1  0.17611567  0.99533533  0.92313833  1
  O  O120  1  0.45846867  0.12250633  0.64754033  1
  O  O121  1  0.12250633  0.45846867  0.85245967  1
  O  O122  1  0.00466467  0.18078033  0.92313833  1
  O  O123  1  0.84744700  0.33799800  0.91019500  1
  O  O124  1  0.66929567  0.12513533  0.01912633  1
  O  O125  1  0.33596233  0.87749367  0.85245967  1
