# generated using pymatgen
data_LiSi6Bi9O26
_symmetry_space_group_name_H-M   'P 1'
_cell_length_a   9.70809708
_cell_length_b   9.70809708
_cell_length_c   7.08245100
_cell_angle_alpha   90.00000000
_cell_angle_beta   90.00000000
_cell_angle_gamma   120.00000000
_symmetry_Int_Tables_number   1
_chemical_formula_structural   LiSi6Bi9O26
_chemical_formula_sum   'Li1 Si6 Bi9 O26'
_cell_volume   578.07266148
_cell_formula_units_Z   1
loop_
 _symmetry_equiv_pos_site_id
 _symmetry_equiv_pos_as_xyz
  1  'x, y, z'
loop_
 _atom_site_type_symbol
 _atom_site_label
 _atom_site_symmetry_multiplicity
 _atom_site_fract_x
 _atom_site_fract_y
 _atom_site_fract_z
 _atom_site_occupancy
  Li  Li0  1  0.33333333  0.66666667  0.51887900  1
  Si  Si1  1  0.03029933  0.62252267  0.25238600  1
  Si  Si2  1  0.59222333  0.96970067  0.25238600  1
  Si  Si3  1  0.37747733  0.40777667  0.25238600  1
  Si  Si4  1  0.62376333  0.60191167  0.74832300  1
  Si  Si5  1  0.39808833  0.02185167  0.74832300  1
  Si  Si6  1  0.97814833  0.37623667  0.74832300  1
  Bi  Bi7  1  0.98824333  0.76026167  0.73330600  1
  Bi  Bi8  1  0.33333333  0.66666667  0.97738100  1
  Bi  Bi9  1  0.23973833  0.22798167  0.73330600  1
  Bi  Bi10  1  0.22450233  0.98147567  0.23666300  1
  Bi  Bi11  1  0.77201833  0.01175667  0.73330600  1
  Bi  Bi12  1  0.75697333  0.77549767  0.23666300  1
  Bi  Bi13  1  0.66666667  0.33333333  0.00169000  1
  Bi  Bi14  1  0.66666667  0.33333333  0.48900700  1
  Bi  Bi15  1  0.01852433  0.24302667  0.23666300  1
  O  O16  1  0.06589933  0.75436967  0.42179800  1
  O  O17  1  0.09828733  0.74409767  0.06681500  1
  O  O18  1  0.12775733  0.52698567  0.26521900  1
  O  O19  1  0.32400833  0.83059267  0.74172600  1
  O  O20  1  0.16940733  0.49341567  0.74172600  1
  O  O21  1  0.39922833  0.87224267  0.26521900  1
  O  O22  1  0.00000000  0.00000000  0.18785800  1
  O  O23  1  0.00000000  0.00000000  0.69182300  1
  O  O24  1  0.25590233  0.35418967  0.06681500  1
  O  O25  1  0.24563033  0.31152967  0.42179800  1
  O  O26  1  0.50658433  0.67599167  0.74172600  1
  O  O27  1  0.47301433  0.60077167  0.26521900  1
  O  O28  1  0.64581033  0.90171267  0.06681500  1
  O  O29  1  0.68847033  0.93410067  0.42179800  1
  O  O30  1  0.32908133  0.08148367  0.92665800  1
  O  O31  1  0.35345633  0.10044967  0.56606900  1
  O  O32  1  0.52785133  0.40466367  0.75950900  1
  O  O33  1  0.50293033  0.33899467  0.24437000  1
  O  O34  1  0.75240233  0.67091867  0.92665800  1
  O  O35  1  0.74699333  0.64654367  0.56606900  1
  O  O36  1  0.59533633  0.12318767  0.75950900  1
  O  O37  1  0.83606433  0.49706967  0.24437000  1
  O  O38  1  0.66100533  0.16393567  0.24437000  1
  O  O39  1  0.87681233  0.47214867  0.75950900  1
  O  O40  1  0.89955033  0.25300667  0.56606900  1
  O  O41  1  0.91851633  0.24759767  0.92665800  1
