# generated using pymatgen
data_K3GdH6(C2O5)3
_symmetry_space_group_name_H-M   'P 1'
_cell_length_a   8.64478400
_cell_length_b   9.46818984
_cell_length_c   9.80886831
_cell_angle_alpha   97.95087457
_cell_angle_beta   91.84519304
_cell_angle_gamma   96.70882466
_symmetry_Int_Tables_number   1
_chemical_formula_structural   K3GdH6(C2O5)3
_chemical_formula_sum   'K6 Gd2 H12 C12 O30'
_cell_volume   788.74287633
_cell_formula_units_Z   2
loop_
 _symmetry_equiv_pos_site_id
 _symmetry_equiv_pos_as_xyz
  1  'x, y, z'
loop_
 _atom_site_type_symbol
 _atom_site_label
 _atom_site_symmetry_multiplicity
 _atom_site_fract_x
 _atom_site_fract_y
 _atom_site_fract_z
 _atom_site_occupancy
  K  K0  1  0.71197200  0.85687400  0.88706600  1
  K  K1  1  0.28802800  0.14312600  0.11293400  1
  K  K2  1  0.94982800  0.68080300  0.61204600  1
  K  K3  1  0.05017200  0.31919700  0.38795400  1
  K  K4  1  0.65094400  0.21140000  0.69954900  1
  K  K5  1  0.34905600  0.78860000  0.30045100  1
  Gd  Gd6  1  0.77398000  0.63886400  0.21685100  1
  Gd  Gd7  1  0.22602000  0.36113600  0.78314900  1
  H  H8  1  0.74064400  0.88269800  0.46691100  1
  H  H9  1  0.25935600  0.11730200  0.53308900  1
  H  H10  1  0.63541100  0.74551900  0.49386400  1
  H  H11  1  0.36458900  0.25448100  0.50613600  1
  H  H12  1  0.61264700  0.00066400  0.21240200  1
  H  H13  1  0.38735300  0.99933600  0.78759800  1
  H  H14  1  0.57526300  0.12367500  0.32480300  1
  H  H15  1  0.42473700  0.87632500  0.67519700  1
  H  H16  1  0.85659100  0.14075500  0.04235500  1
  H  H17  1  0.14340900  0.85924500  0.95764500  1
  H  H18  1  0.72539700  0.23404900  0.01703200  1
  H  H19  1  0.27460300  0.76595100  0.98296800  1
  C  C20  1  0.52625200  0.42384700  0.99842500  1
  C  C21  1  0.47374800  0.57615300  0.00157500  1
  C  C22  1  0.03320400  0.46014200  0.05630200  1
  C  C23  1  0.96679600  0.53985800  0.94369800  1
  C  C24  1  0.93204400  0.96927000  0.21217400  1
  C  C25  1  0.06795600  0.03073000  0.78782600  1
  C  C26  1  0.03588000  0.91484500  0.32263500  1
  C  C27  1  0.96412000  0.08515500  0.67736500  1
  C  C28  1  0.67803100  0.38624300  0.39592900  1
  C  C29  1  0.32196900  0.61375700  0.60407100  1
  C  C30  1  0.51412100  0.42284100  0.34923500  1
  C  C31  1  0.48587900  0.57715900  0.65076500  1
  O  O32  1  0.64911100  0.41390400  0.06795600  1
  O  O33  1  0.35088900  0.58609600  0.93204400  1
  O  O34  1  0.55822300  0.68073100  0.07331300  1
  O  O35  1  0.44177700  0.31926900  0.92668700  1
  O  O36  1  0.98379400  0.48792800  0.17673800  1
  O  O37  1  0.01620600  0.51207200  0.82326200  1
  O  O38  1  0.86941100  0.62558800  0.97953100  1
  O  O39  1  0.13058900  0.37441200  0.02046900  1
  O  O40  1  0.81184200  0.88286900  0.16412800  1
  O  O41  1  0.18815800  0.11713100  0.83587200  1
  O  O42  1  0.00207000  0.78271000  0.33815500  1
  O  O43  1  0.99793000  0.21729000  0.66184500  1
  O  O44  1  0.79122300  0.48664000  0.39458300  1
  O  O45  1  0.20877700  0.51336000  0.60541700  1
  O  O46  1  0.51563200  0.54059800  0.30115700  1
  O  O47  1  0.48436800  0.45940200  0.69884300  1
  O  O48  1  0.97263800  0.09098600  0.17818200  1
  O  O49  1  0.02736200  0.90901400  0.82181800  1
  O  O50  1  0.14549800  0.00185800  0.38333800  1
  O  O51  1  0.85450200  0.99814200  0.61666200  1
  O  O52  1  0.69124700  0.26525100  0.43058000  1
  O  O53  1  0.30875300  0.73474900  0.56942000  1
  O  O54  1  0.39455700  0.33587500  0.36206800  1
  O  O55  1  0.60544300  0.66412500  0.63793200  1
  O  O56  1  0.67777400  0.79645400  0.41765800  1
  O  O57  1  0.32222600  0.20354600  0.58234200  1
  O  O58  1  0.52535600  0.04440200  0.25429800  1
  O  O59  1  0.47464400  0.95559800  0.74570200  1
  O  O60  1  0.77721700  0.15452500  0.97116200  1
  O  O61  1  0.22278300  0.84547500  0.02883800  1
