# generated using pymatgen
data_LiMn5O3F5
_symmetry_space_group_name_H-M   'P 1'
_cell_length_a   11.12457800
_cell_length_b   6.37537000
_cell_length_c   6.41137187
_cell_angle_alpha   90.00000000
_cell_angle_beta   125.01838654
_cell_angle_gamma   90.00000000
_symmetry_Int_Tables_number   1
_chemical_formula_structural   LiMn5O3F5
_chemical_formula_sum   'Li2 Mn10 O6 F10'
_cell_volume   372.39754313
_cell_formula_units_Z   2
loop_
 _symmetry_equiv_pos_site_id
 _symmetry_equiv_pos_as_xyz
  1  'x, y, z'
loop_
 _atom_site_type_symbol
 _atom_site_label
 _atom_site_symmetry_multiplicity
 _atom_site_fract_x
 _atom_site_fract_y
 _atom_site_fract_z
 _atom_site_occupancy
  Li  Li0  1  0.10669400  0.50000000  0.35082100  1
  Li  Li1  1  0.60669400  0.00000000  0.35082100  1
  Mn  Mn2  1  0.47750900  0.50000000  0.00891600  1
  Mn  Mn3  1  0.28407300  0.00000000  0.77476800  1
  Mn  Mn4  1  0.37434000  0.76177900  0.36052200  1
  Mn  Mn5  1  0.37434000  0.23822100  0.36052200  1
  Mn  Mn6  1  0.12379200  0.50000000  0.86948200  1
  Mn  Mn7  1  0.97750900  0.00000000  0.00891600  1
  Mn  Mn8  1  0.78407300  0.50000000  0.77476800  1
  Mn  Mn9  1  0.87434000  0.26177900  0.36052200  1
  Mn  Mn10  1  0.87434000  0.73822100  0.36052200  1
  Mn  Mn11  1  0.62379200  0.00000000  0.86948200  1
  O  O12  1  0.39815000  0.00000000  0.61507000  1
  O  O13  1  0.38905600  0.00000000  0.15221000  1
  O  O14  1  0.34974300  0.50000000  0.13772300  1
  O  O15  1  0.89815000  0.50000000  0.61507000  1
  O  O16  1  0.88905600  0.50000000  0.15221000  1
  O  O17  1  0.84974300  0.00000000  0.13772300  1
  F  F18  1  0.13096400  0.74032000  0.61839400  1
  F  F19  1  0.13096400  0.25968000  0.61839400  1
  F  F20  1  0.12134450  0.25954650  0.13536400  1
  F  F21  1  0.12134450  0.74045350  0.13536400  1
  F  F22  1  0.36768700  0.50000000  0.61244900  1
  F  F23  1  0.63096400  0.24032000  0.61839400  1
  F  F24  1  0.63096400  0.75968000  0.61839400  1
  F  F25  1  0.62134450  0.75954650  0.13536400  1
  F  F26  1  0.62134450  0.24045350  0.13536400  1
  F  F27  1  0.86768700  0.00000000  0.61244900  1
