# generated using pymatgen
data_Bi5O7F
_symmetry_space_group_name_H-M   'P 1'
_cell_length_a   6.92169300
_cell_length_b   12.52540500
_cell_length_c   13.49488082
_cell_angle_alpha   90.00000000
_cell_angle_beta   118.12349903
_cell_angle_gamma   90.00000000
_symmetry_Int_Tables_number   1
_chemical_formula_structural   Bi5O7F
_chemical_formula_sum   'Bi20 O28 F4'
_cell_volume   1031.83215806
_cell_formula_units_Z   4
loop_
 _symmetry_equiv_pos_site_id
 _symmetry_equiv_pos_as_xyz
  1  'x, y, z'
loop_
 _atom_site_type_symbol
 _atom_site_label
 _atom_site_symmetry_multiplicity
 _atom_site_fract_x
 _atom_site_fract_y
 _atom_site_fract_z
 _atom_site_occupancy
  Bi  Bi0  1  0.99111400  0.75065000  0.57015300  1
  Bi  Bi1  1  0.64937200  0.72256700  0.23340600  1
  Bi  Bi2  1  0.32758200  0.76516000  0.91936900  1
  Bi  Bi3  1  0.31462700  0.47805000  0.08314600  1
  Bi  Bi4  1  0.62414700  0.50963900  0.39151300  1
  Bi  Bi5  1  0.37585300  0.00963900  0.10848700  1
  Bi  Bi6  1  0.68537300  0.97805000  0.41685400  1
  Bi  Bi7  1  0.67241800  0.26516000  0.58063100  1
  Bi  Bi8  1  0.35062800  0.22256700  0.26659400  1
  Bi  Bi9  1  0.00888600  0.25065000  0.92984700  1
  Bi  Bi10  1  0.99111400  0.74935000  0.07015300  1
  Bi  Bi11  1  0.64937200  0.77743300  0.73340600  1
  Bi  Bi12  1  0.32758200  0.73484000  0.41936900  1
  Bi  Bi13  1  0.31462700  0.02195000  0.58314600  1
  Bi  Bi14  1  0.62414700  0.99036100  0.89151300  1
  Bi  Bi15  1  0.37585300  0.49036100  0.60848700  1
  Bi  Bi16  1  0.68537300  0.52195000  0.91685400  1
  Bi  Bi17  1  0.67241800  0.23484000  0.08063100  1
  Bi  Bi18  1  0.35062800  0.27743300  0.76659400  1
  Bi  Bi19  1  0.00888600  0.24935000  0.42984700  1
  O  O20  1  0.00001900  0.89509000  0.49282900  1
  O  O21  1  0.47853900  0.10186400  0.99835800  1
  O  O22  1  0.88404000  0.65612000  0.42381200  1
  O  O23  1  0.38572700  0.33350800  0.00672800  1
  O  O24  1  0.57891800  0.14249300  0.22164000  1
  O  O25  1  0.61787900  0.89640000  0.26350200  1
  O  O26  1  0.67752700  0.25824600  0.41812400  1
  O  O27  1  0.32247300  0.75824600  0.08187600  1
  O  O28  1  0.38212100  0.39640000  0.23649800  1
  O  O29  1  0.42108200  0.64249300  0.27836000  1
  O  O30  1  0.61427300  0.83350800  0.49327200  1
  O  O31  1  0.11596000  0.15612000  0.07618800  1
  O  O32  1  0.52146100  0.60186400  0.50164200  1
  O  O33  1  0.99998100  0.39509000  0.00717100  1
  O  O34  1  0.00001900  0.60491000  0.99282900  1
  O  O35  1  0.47853900  0.39813600  0.49835800  1
  O  O36  1  0.88404000  0.84388000  0.92381200  1
  O  O37  1  0.38572700  0.16649200  0.50672800  1
  O  O38  1  0.57891800  0.35750700  0.72164000  1
  O  O39  1  0.61787900  0.60360000  0.76350200  1
  O  O40  1  0.67752700  0.24175400  0.91812400  1
  O  O41  1  0.32247300  0.74175400  0.58187600  1
  O  O42  1  0.38212100  0.10360000  0.73649800  1
  O  O43  1  0.42108200  0.85750700  0.77836000  1
  O  O44  1  0.61427300  0.66649200  0.99327200  1
  O  O45  1  0.11596000  0.34388000  0.57618800  1
  O  O46  1  0.52146100  0.89813600  0.00164200  1
  O  O47  1  0.99998100  0.10491000  0.50717100  1
  F  F48  1  0.28667200  0.47801500  0.77305400  1
  F  F49  1  0.71332800  0.97801500  0.72694600  1
  F  F50  1  0.28667200  0.02198500  0.27305400  1
  F  F51  1  0.71332800  0.52198500  0.22694600  1
