# generated using pymatgen
data_Bi24Br10O31
_symmetry_space_group_name_H-M   'P 1'
_cell_length_a   8.06187400
_cell_length_b   10.57780485
_cell_length_c   15.50291922
_cell_angle_alpha   90.28126295
_cell_angle_beta   97.59866468
_cell_angle_gamma   90.27949246
_symmetry_Int_Tables_number   1
_chemical_formula_structural   Bi24Br10O31
_chemical_formula_sum   'Bi24 Br10 O31'
_cell_volume   1310.39584893
_cell_formula_units_Z   1
loop_
 _symmetry_equiv_pos_site_id
 _symmetry_equiv_pos_as_xyz
  1  'x, y, z'
loop_
 _atom_site_type_symbol
 _atom_site_label
 _atom_site_symmetry_multiplicity
 _atom_site_fract_x
 _atom_site_fract_y
 _atom_site_fract_z
 _atom_site_occupancy
  Bi  Bi0  1  0.67849100  0.08269100  0.69592300  1
  Bi  Bi1  1  0.14693100  0.05856700  0.69141900  1
  Bi  Bi2  1  0.46355600  0.06754000  0.09500700  1
  Bi  Bi3  1  0.98369100  0.07427200  0.08793400  1
  Bi  Bi4  1  0.72482600  0.25026500  0.93134300  1
  Bi  Bi5  1  0.22443700  0.20718400  0.93012800  1
  Bi  Bi6  1  0.61023300  0.25147700  0.35220200  1
  Bi  Bi7  1  0.11167200  0.25427500  0.35277300  1
  Bi  Bi8  1  0.80136700  0.38684400  0.17178900  1
  Bi  Bi9  1  0.29972500  0.39008300  0.17273800  1
  Bi  Bi10  1  0.15053000  0.43530700  0.59164000  1
  Bi  Bi11  1  0.65219200  0.44896800  0.59391900  1
  Bi  Bi12  1  0.85695000  0.54936700  0.40768200  1
  Bi  Bi13  1  0.35688100  0.54996800  0.40879800  1
  Bi  Bi14  1  0.71001600  0.61161000  0.82452100  1
  Bi  Bi15  1  0.21336500  0.60214800  0.83039000  1
  Bi  Bi16  1  0.94573100  0.74776000  0.65248700  1
  Bi  Bi17  1  0.41445700  0.75097800  0.65412300  1
  Bi  Bi18  1  0.76493000  0.79109100  0.06461000  1
  Bi  Bi19  1  0.27688400  0.75227800  0.06660300  1
  Bi  Bi20  1  0.99915800  0.89825400  0.89834900  1
  Bi  Bi21  1  0.51716400  0.94302500  0.88524400  1
  Bi  Bi22  1  0.81265600  0.91085900  0.31208500  1
  Bi  Bi23  1  0.31971300  0.91072100  0.30598700  1
  Br  Br24  1  0.88123000  0.20613500  0.53050100  1
  Br  Br25  1  0.38036100  0.19917800  0.53101800  1
  Br  Br26  1  0.43886600  0.35715300  0.75617900  1
  Br  Br27  1  0.93986800  0.34323600  0.75789700  1
  Br  Br28  1  0.00302500  0.49964500  0.00263300  1
  Br  Br29  1  0.50611200  0.50915200  0.99833600  1
  Br  Br30  1  0.06890600  0.65199200  0.24531300  1
  Br  Br31  1  0.57024900  0.65734700  0.24584100  1
  Br  Br32  1  0.59864500  0.83673500  0.46720700  1
  Br  Br33  1  0.09999300  0.84472900  0.45469800  1
  O  O34  1  0.76671000  0.97718400  0.00747400  1
  O  O35  1  0.23340000  0.02898500  0.00120200  1
  O  O36  1  0.68901800  0.08926500  0.83373200  1
  O  O37  1  0.23125700  0.05284500  0.82619900  1
  O  O38  1  0.96437900  0.15420500  0.95224600  1
  O  O39  1  0.50338600  0.14094100  0.96022200  1
  O  O40  1  0.80654100  0.10646600  0.31947400  1
  O  O41  1  0.31822000  0.10664300  0.31061900  1
  O  O42  1  0.77834800  0.23040700  0.08143300  1
  O  O43  1  0.27785900  0.23519300  0.08572600  1
  O  O44  1  0.56003300  0.30565700  0.21392200  1
  O  O45  1  0.05786300  0.30279400  0.21345200  1
  O  O46  1  0.83609300  0.37277700  0.32918400  1
  O  O47  1  0.33318200  0.37431100  0.32880800  1
  O  O48  1  0.61517200  0.46447100  0.44329700  1
  O  O49  1  0.11424900  0.45857700  0.44138400  1
  O  O50  1  0.38906700  0.52807400  0.55345100  1
  O  O51  1  0.89489800  0.53399400  0.55333300  1
  O  O52  1  0.68032900  0.62958400  0.67687700  1
  O  O53  1  0.16386100  0.61190900  0.67534000  1
  O  O54  1  0.96151900  0.70610300  0.79181700  1
  O  O55  1  0.44560900  0.68882400  0.79090400  1
  O  O56  1  0.22258800  0.76566800  0.91753300  1
  O  O57  1  0.73990600  0.78287700  0.90274500  1
  O  O58  1  0.53887600  0.91951100  0.71751900  1
  O  O59  1  0.18779800  0.86129600  0.68064700  1
  O  O60  1  0.03151200  0.84205300  0.03976300  1
  O  O61  1  0.49408900  0.86144000  0.03733800  1
  O  O62  1  0.83238200  0.92540000  0.17923000  1
  O  O63  1  0.30629800  0.91571200  0.16974100  1
  O  O64  1  0.90583200  0.97449800  0.70643800  1
