# generated using pymatgen
data_Ga2HgO4
_symmetry_space_group_name_H-M   'P 1'
_cell_length_a   2.95547600
_cell_length_b   9.80408700
_cell_length_c   12.61596900
_cell_angle_alpha   90.00000000
_cell_angle_beta   90.00000000
_cell_angle_gamma   90.00000000
_symmetry_Int_Tables_number   1
_chemical_formula_structural   Ga2HgO4
_chemical_formula_sum   'Ga8 Hg4 O16'
_cell_volume   365.55708592
_cell_formula_units_Z   4
loop_
 _symmetry_equiv_pos_site_id
 _symmetry_equiv_pos_as_xyz
  1  'x, y, z'
loop_
 _atom_site_type_symbol
 _atom_site_label
 _atom_site_symmetry_multiplicity
 _atom_site_fract_x
 _atom_site_fract_y
 _atom_site_fract_z
 _atom_site_occupancy
  Ga  Ga0  1  0.75000000  0.62217100  0.78626200  1
  Ga  Ga1  1  0.75000000  0.60859600  0.37090000  1
  Ga  Ga2  1  0.25000000  0.89140400  0.87090000  1
  Ga  Ga3  1  0.25000000  0.87782900  0.28626200  1
  Ga  Ga4  1  0.75000000  0.12217100  0.71373800  1
  Ga  Ga5  1  0.75000000  0.10859600  0.12910000  1
  Ga  Ga6  1  0.25000000  0.39140400  0.62910000  1
  Ga  Ga7  1  0.25000000  0.37782900  0.21373800  1
  Hg  Hg8  1  0.75000000  0.65437500  0.06156800  1
  Hg  Hg9  1  0.25000000  0.84562500  0.56156800  1
  Hg  Hg10  1  0.75000000  0.15437500  0.43843200  1
  Hg  Hg11  1  0.25000000  0.34562500  0.93843200  1
  O  O12  1  0.75000000  0.50969100  0.66591700  1
  O  O13  1  0.75000000  0.46147500  0.12962200  1
  O  O14  1  0.25000000  0.75144300  0.76036400  1
  O  O15  1  0.75000000  0.81458100  0.95598200  1
  O  O16  1  0.25000000  0.68541900  0.45598200  1
  O  O17  1  0.75000000  0.74855700  0.26036400  1
  O  O18  1  0.25000000  0.03852500  0.62962200  1
  O  O19  1  0.25000000  0.99030900  0.16591700  1
  O  O20  1  0.75000000  0.00969100  0.83408300  1
  O  O21  1  0.75000000  0.96147500  0.37037800  1
  O  O22  1  0.25000000  0.25144300  0.73963600  1
  O  O23  1  0.75000000  0.31458100  0.54401800  1
  O  O24  1  0.25000000  0.18541900  0.04401800  1
  O  O25  1  0.75000000  0.24855700  0.23963600  1
  O  O26  1  0.25000000  0.53852500  0.87037800  1
  O  O27  1  0.25000000  0.49030900  0.33408300  1
