# generated using pymatgen
data_NaAgF4
_symmetry_space_group_name_H-M   'P 1'
_cell_length_a   5.66784000
_cell_length_b   5.66784000
_cell_length_c   10.71018800
_cell_angle_alpha   90.00000000
_cell_angle_beta   90.00000000
_cell_angle_gamma   90.00000000
_symmetry_Int_Tables_number   1
_chemical_formula_structural   NaAgF4
_chemical_formula_sum   'Na4 Ag4 F16'
_cell_volume   344.05847333
_cell_formula_units_Z   4
loop_
 _symmetry_equiv_pos_site_id
 _symmetry_equiv_pos_as_xyz
  1  'x, y, z'
loop_
 _atom_site_type_symbol
 _atom_site_label
 _atom_site_symmetry_multiplicity
 _atom_site_fract_x
 _atom_site_fract_y
 _atom_site_fract_z
 _atom_site_occupancy
  Na  Na0  1  0.00000000  0.00000000  0.25000000  1
  Na  Na1  1  0.50000000  0.50000000  0.25000000  1
  Na  Na2  1  0.50000000  0.50000000  0.75000000  1
  Na  Na3  1  0.00000000  0.00000000  0.75000000  1
  Ag  Ag4  1  0.00000000  0.50000000  0.00000000  1
  Ag  Ag5  1  0.50000000  0.00000000  0.00000000  1
  Ag  Ag6  1  0.50000000  0.00000000  0.50000000  1
  Ag  Ag7  1  0.00000000  0.50000000  0.50000000  1
  F  F8  1  0.82263850  0.32263850  0.12704850  1
  F  F9  1  0.32263850  0.82263850  0.37295150  1
  F  F10  1  0.67736150  0.17736150  0.37295150  1
  F  F11  1  0.82263850  0.67736150  0.37295150  1
  F  F12  1  0.17736150  0.67736150  0.12704850  1
  F  F13  1  0.32263850  0.17736150  0.12704850  1
  F  F14  1  0.67736150  0.82263850  0.12704850  1
  F  F15  1  0.17736150  0.32263850  0.37295150  1
  F  F16  1  0.32263850  0.82263850  0.62704850  1
  F  F17  1  0.82263850  0.32263850  0.87295150  1
  F  F18  1  0.17736150  0.67736150  0.87295150  1
  F  F19  1  0.32263850  0.17736150  0.87295150  1
  F  F20  1  0.67736150  0.17736150  0.62704850  1
  F  F21  1  0.82263850  0.67736150  0.62704850  1
  F  F22  1  0.17736150  0.32263850  0.62704850  1
  F  F23  1  0.67736150  0.82263850  0.87295150  1
