# generated using pymatgen
data_LiMn3P3(HO6)2
_symmetry_space_group_name_H-M   'P 1'
_cell_length_a   12.08155600
_cell_length_b   12.60829200
_cell_length_c   6.68574599
_cell_angle_alpha   90.00000000
_cell_angle_beta   115.01428519
_cell_angle_gamma   90.00000000
_symmetry_Int_Tables_number   1
_chemical_formula_structural   LiMn3P3(HO6)2
_chemical_formula_sum   'Li4 Mn12 P12 H8 O48'
_cell_volume   922.89906421
_cell_formula_units_Z   4
loop_
 _symmetry_equiv_pos_site_id
 _symmetry_equiv_pos_as_xyz
  1  'x, y, z'
loop_
 _atom_site_type_symbol
 _atom_site_label
 _atom_site_symmetry_multiplicity
 _atom_site_fract_x
 _atom_site_fract_y
 _atom_site_fract_z
 _atom_site_occupancy
  Li  Li0  1  0.50000000  0.50468700  0.75000000  1
  Li  Li1  1  0.50000000  0.49531300  0.25000000  1
  Li  Li2  1  0.00000000  0.00468700  0.75000000  1
  Li  Li3  1  0.00000000  0.99531300  0.25000000  1
  Mn  Mn4  1  0.20586150  0.83918050  0.62024300  1
  Mn  Mn5  1  0.20586150  0.16081950  0.12024300  1
  Mn  Mn6  1  0.50000000  0.21019500  0.75000000  1
  Mn  Mn7  1  0.50000000  0.78980500  0.25000000  1
  Mn  Mn8  1  0.79413850  0.83918050  0.87975700  1
  Mn  Mn9  1  0.79413850  0.16081950  0.37975700  1
  Mn  Mn10  1  0.70586150  0.33918050  0.62024300  1
  Mn  Mn11  1  0.70586150  0.66081950  0.12024300  1
  Mn  Mn12  1  0.00000000  0.71019500  0.75000000  1
  Mn  Mn13  1  0.00000000  0.28980500  0.25000000  1
  Mn  Mn14  1  0.29413850  0.33918050  0.87975700  1
  Mn  Mn15  1  0.29413850  0.66081950  0.37975700  1
  P  P16  1  0.20670550  0.10894450  0.60364800  1
  P  P17  1  0.20670550  0.89105550  0.10364800  1
  P  P18  1  0.50000000  0.82355100  0.75000000  1
  P  P19  1  0.50000000  0.17644900  0.25000000  1
  P  P20  1  0.79329450  0.10894450  0.89635200  1
  P  P21  1  0.79329450  0.89105550  0.39635200  1
  P  P22  1  0.70670550  0.60894450  0.60364800  1
  P  P23  1  0.70670550  0.39105550  0.10364800  1
  P  P24  1  0.00000000  0.32355100  0.75000000  1
  P  P25  1  0.00000000  0.67644900  0.25000000  1
  P  P26  1  0.29329450  0.60894450  0.89635200  1
  P  P27  1  0.29329450  0.39105550  0.39635200  1
  H  H28  1  0.37294250  0.00045550  0.68728600  1
  H  H29  1  0.37294250  0.99954450  0.18728600  1
  H  H30  1  0.62705750  0.00045550  0.81271400  1
  H  H31  1  0.62705750  0.99954450  0.31271400  1
  H  H32  1  0.87294250  0.50045550  0.68728600  1
  H  H33  1  0.87294250  0.49954450  0.18728600  1
  H  H34  1  0.12705750  0.50045550  0.81271400  1
  H  H35  1  0.12705750  0.49954450  0.31271400  1
  O  O36  1  0.13478800  0.00363000  0.57438300  1
  O  O37  1  0.20943000  0.17459900  0.79852300  1
  O  O38  1  0.13478800  0.99637000  0.07438300  1
  O  O39  1  0.20943000  0.82540100  0.29852300  1
  O  O40  1  0.35081550  0.32767450  0.61481200  1
  O  O41  1  0.34518700  0.08339300  0.64686600  1
  O  O42  1  0.39237600  0.89574500  0.73677100  1
  O  O43  1  0.53699850  0.75384250  0.96043700  1
  O  O44  1  0.35081550  0.67232550  0.11481200  1
  O  O45  1  0.34518700  0.91660700  0.14686600  1
  O  O46  1  0.39237600  0.10425500  0.23677100  1
  O  O47  1  0.46300150  0.75384250  0.53956300  1
  O  O48  1  0.53699850  0.24615750  0.46043700  1
  O  O49  1  0.60762400  0.89574500  0.76322900  1
  O  O50  1  0.65481300  0.08339300  0.85313400  1
  O  O51  1  0.64918450  0.32767450  0.88518800  1
  O  O52  1  0.46300150  0.24615750  0.03956300  1
  O  O53  1  0.60762400  0.10425500  0.26322900  1
  O  O54  1  0.65481300  0.91660700  0.35313400  1
  O  O55  1  0.64918450  0.67232550  0.38518800  1
  O  O56  1  0.79057000  0.17459900  0.70147700  1
  O  O57  1  0.86521200  0.00363000  0.92561700  1
  O  O58  1  0.79057000  0.82540100  0.20147700  1
  O  O59  1  0.86521200  0.99637000  0.42561700  1
  O  O60  1  0.63478800  0.50363000  0.57438300  1
  O  O61  1  0.70943000  0.67459900  0.79852300  1
  O  O62  1  0.63478800  0.49637000  0.07438300  1
  O  O63  1  0.70943000  0.32540100  0.29852300  1
  O  O64  1  0.85081550  0.82767450  0.61481200  1
  O  O65  1  0.84518700  0.58339300  0.64686600  1
  O  O66  1  0.89237600  0.39574500  0.73677100  1
  O  O67  1  0.03699850  0.25384250  0.96043700  1
  O  O68  1  0.85081550  0.17232550  0.11481200  1
  O  O69  1  0.84518700  0.41660700  0.14686600  1
  O  O70  1  0.89237600  0.60425500  0.23677100  1
  O  O71  1  0.96300150  0.25384250  0.53956300  1
  O  O72  1  0.03699850  0.74615750  0.46043700  1
  O  O73  1  0.10762400  0.39574500  0.76322900  1
  O  O74  1  0.15481300  0.58339300  0.85313400  1
  O  O75  1  0.14918450  0.82767450  0.88518800  1
  O  O76  1  0.96300150  0.74615750  0.03956300  1
  O  O77  1  0.10762400  0.60425500  0.26322900  1
  O  O78  1  0.15481300  0.41660700  0.35313400  1
  O  O79  1  0.14918450  0.17232550  0.38518800  1
  O  O80  1  0.29057000  0.67459900  0.70147700  1
  O  O81  1  0.36521200  0.50363000  0.92561700  1
  O  O82  1  0.29057000  0.32540100  0.20147700  1
  O  O83  1  0.36521200  0.49637000  0.42561700  1
