# generated using pymatgen
data_LuGaO3
_symmetry_space_group_name_H-M   'P 1'
_cell_length_a   3.45791172
_cell_length_b   3.45791172
_cell_length_c   11.70532300
_cell_angle_alpha   90.00000000
_cell_angle_beta   90.00000000
_cell_angle_gamma   120.00000000
_symmetry_Int_Tables_number   1
_chemical_formula_structural   LuGaO3
_chemical_formula_sum   'Lu2 Ga2 O6'
_cell_volume   121.21094532
_cell_formula_units_Z   2
loop_
 _symmetry_equiv_pos_site_id
 _symmetry_equiv_pos_as_xyz
  1  'x, y, z'
loop_
 _atom_site_type_symbol
 _atom_site_label
 _atom_site_symmetry_multiplicity
 _atom_site_fract_x
 _atom_site_fract_y
 _atom_site_fract_z
 _atom_site_occupancy
  Lu  Lu0  1  0.00000000  0.00000000  0.50000000  1
  Lu  Lu1  1  0.00000000  0.00000000  0.00000000  1
  Ga  Ga2  1  0.66666667  0.33333333  0.75000000  1
  Ga  Ga3  1  0.33333333  0.66666667  0.25000000  1
  O  O4  1  0.66666667  0.33333333  0.58559700  1
  O  O5  1  0.00000000  0.00000000  0.75000000  1
  O  O6  1  0.66666667  0.33333333  0.91440300  1
  O  O7  1  0.00000000  0.00000000  0.25000000  1
  O  O8  1  0.33333333  0.66666667  0.41440300  1
  O  O9  1  0.33333333  0.66666667  0.08559700  1
