# generated using pymatgen
data_Li5Fe7O3F13
_symmetry_space_group_name_H-M   'P 1'
_cell_length_a   10.66368000
_cell_length_b   6.26299000
_cell_length_c   10.78780747
_cell_angle_alpha   90.00000000
_cell_angle_beta   109.36543951
_cell_angle_gamma   90.00000000
_symmetry_Int_Tables_number   1
_chemical_formula_structural   Li5Fe7O3F13
_chemical_formula_sum   'Li10 Fe14 O6 F26'
_cell_volume   679.71741523
_cell_formula_units_Z   2
loop_
 _symmetry_equiv_pos_site_id
 _symmetry_equiv_pos_as_xyz
  1  'x, y, z'
loop_
 _atom_site_type_symbol
 _atom_site_label
 _atom_site_symmetry_multiplicity
 _atom_site_fract_x
 _atom_site_fract_y
 _atom_site_fract_z
 _atom_site_occupancy
  Li  Li0  1  0.86686000  0.50000000  0.11104000  1
  Li  Li1  1  0.50351800  0.50000000  0.01819800  1
  Li  Li2  1  0.37717900  0.50000000  0.61133100  1
  Li  Li3  1  0.99747600  0.50000000  0.51186300  1
  Li  Li4  1  0.93061300  0.50000000  0.80864200  1
  Li  Li5  1  0.36686000  0.00000000  0.11104000  1
  Li  Li6  1  0.00351800  0.00000000  0.01819800  1
  Li  Li7  1  0.87717900  0.00000000  0.61133100  1
  Li  Li8  1  0.49747600  0.00000000  0.51186300  1
  Li  Li9  1  0.43061300  0.00000000  0.80864200  1
  Fe  Fe10  1  0.18377350  0.75172550  0.31341600  1
  Fe  Fe11  1  0.17991400  0.50000000  0.05867200  1
  Fe  Fe12  1  0.43528800  0.50000000  0.31227100  1
  Fe  Fe13  1  0.18377350  0.24827450  0.31341600  1
  Fe  Fe14  1  0.17748800  0.24028400  0.80462800  1
  Fe  Fe15  1  0.68026700  0.50000000  0.57174200  1
  Fe  Fe16  1  0.17748800  0.75971600  0.80462800  1
  Fe  Fe17  1  0.68377350  0.25172550  0.31341600  1
  Fe  Fe18  1  0.67991400  0.00000000  0.05867200  1
  Fe  Fe19  1  0.93528800  0.00000000  0.31227100  1
  Fe  Fe20  1  0.68377350  0.74827450  0.31341600  1
  Fe  Fe21  1  0.67748800  0.74028400  0.80462800  1
  Fe  Fe22  1  0.18026700  0.00000000  0.57174200  1
  Fe  Fe23  1  0.67748800  0.25971600  0.80462800  1
  O  O24  1  0.29734100  0.50000000  0.40050600  1
  O  O25  1  0.57213100  0.50000000  0.22064300  1
  O  O26  1  0.57536000  0.50000000  0.69424400  1
  O  O27  1  0.79734100  0.00000000  0.40050600  1
  O  O28  1  0.07213100  0.00000000  0.22064300  1
  O  O29  1  0.07536000  0.00000000  0.69424400  1
  F  F30  1  0.05681900  0.50000000  0.17666300  1
  F  F31  1  0.80309700  0.24613000  0.17242200  1
  F  F32  1  0.80309700  0.75387000  0.17242200  1
  F  F33  1  0.06056900  0.25441500  0.44348400  1
  F  F34  1  0.80333600  0.50000000  0.45426100  1
  F  F35  1  0.06056900  0.74558500  0.44348400  1
  F  F36  1  0.81275250  0.73961750  0.69265500  1
  F  F37  1  0.81275250  0.26038250  0.69265500  1
  F  F38  1  0.81166400  0.50000000  0.92290400  1
  F  F39  1  0.06157000  0.50000000  0.70515900  1
  F  F40  1  0.06408650  0.73372550  0.94060900  1
  F  F41  1  0.29549600  0.50000000  0.92703000  1
  F  F42  1  0.06408650  0.26627450  0.94060900  1
  F  F43  1  0.55681900  0.00000000  0.17666300  1
  F  F44  1  0.30309700  0.74613000  0.17242200  1
  F  F45  1  0.30309700  0.25387000  0.17242200  1
  F  F46  1  0.56056900  0.75441500  0.44348400  1
  F  F47  1  0.30333600  0.00000000  0.45426100  1
  F  F48  1  0.56056900  0.24558500  0.44348400  1
  F  F49  1  0.31275250  0.23961750  0.69265500  1
  F  F50  1  0.31275250  0.76038250  0.69265500  1
  F  F51  1  0.31166400  0.00000000  0.92290400  1
  F  F52  1  0.56157000  0.00000000  0.70515900  1
  F  F53  1  0.56408650  0.23372550  0.94060900  1
  F  F54  1  0.79549600  0.00000000  0.92703000  1
  F  F55  1  0.56408650  0.76627450  0.94060900  1
