# generated using pymatgen
data_Hg2W2O7
_symmetry_space_group_name_H-M   'P 1'
_cell_length_a   12.57064200
_cell_length_b   7.64106000
_cell_length_c   14.94653890
_cell_angle_alpha   90.00000000
_cell_angle_beta   105.67400719
_cell_angle_gamma   90.00000000
_symmetry_Int_Tables_number   1
_chemical_formula_structural   Hg2W2O7
_chemical_formula_sum   'Hg16 W16 O56'
_cell_volume   1382.27446565
_cell_formula_units_Z   8
loop_
 _symmetry_equiv_pos_site_id
 _symmetry_equiv_pos_as_xyz
  1  'x, y, z'
loop_
 _atom_site_type_symbol
 _atom_site_label
 _atom_site_symmetry_multiplicity
 _atom_site_fract_x
 _atom_site_fract_y
 _atom_site_fract_z
 _atom_site_occupancy
  Hg  Hg0  1  0.91650350  0.15541950  0.43644900  1
  Hg  Hg1  1  0.93382100  0.67555700  0.43949300  1
  Hg  Hg2  1  0.93382100  0.32444300  0.93949300  1
  Hg  Hg3  1  0.08349650  0.15541950  0.06355100  1
  Hg  Hg4  1  0.91650350  0.84458050  0.93644900  1
  Hg  Hg5  1  0.06617900  0.67555700  0.06050700  1
  Hg  Hg6  1  0.06617900  0.32444300  0.56050700  1
  Hg  Hg7  1  0.08349650  0.84458050  0.56355100  1
  Hg  Hg8  1  0.41650350  0.65541950  0.43644900  1
  Hg  Hg9  1  0.43382100  0.17555700  0.43949300  1
  Hg  Hg10  1  0.43382100  0.82444300  0.93949300  1
  Hg  Hg11  1  0.58349650  0.65541950  0.06355100  1
  Hg  Hg12  1  0.41650350  0.34458050  0.93644900  1
  Hg  Hg13  1  0.56617900  0.17555700  0.06050700  1
  Hg  Hg14  1  0.56617900  0.82444300  0.56050700  1
  Hg  Hg15  1  0.58349650  0.34458050  0.56355100  1
  W  W16  1  0.65611850  0.49635750  0.31198800  1
  W  W17  1  0.65611850  0.50364250  0.81198800  1
  W  W18  1  0.84675800  0.48936900  0.19041800  1
  W  W19  1  0.84675800  0.51063100  0.69041800  1
  W  W20  1  0.15324200  0.48936900  0.30958200  1
  W  W21  1  0.15324200  0.51063100  0.80958200  1
  W  W22  1  0.34388150  0.49635750  0.18801200  1
  W  W23  1  0.34388150  0.50364250  0.68801200  1
  W  W24  1  0.15611850  0.99635750  0.31198800  1
  W  W25  1  0.15611850  0.00364250  0.81198800  1
  W  W26  1  0.34675800  0.98936900  0.19041800  1
  W  W27  1  0.34675800  0.01063100  0.69041800  1
  W  W28  1  0.65324200  0.98936900  0.30958200  1
  W  W29  1  0.65324200  0.01063100  0.80958200  1
  W  W30  1  0.84388150  0.99635750  0.18801200  1
  W  W31  1  0.84388150  0.00364250  0.68801200  1
  O  O32  1  0.64839300  0.53932100  0.42623800  1
  O  O33  1  0.68365200  0.47758200  0.16929800  1
  O  O34  1  0.64839300  0.46067900  0.92623800  1
  O  O35  1  0.86536350  0.25105050  0.22534700  1
  O  O36  1  0.81656250  0.53435150  0.32959000  1
  O  O37  1  0.68365200  0.52241800  0.66929800  1
  O  O38  1  0.85374250  0.46520550  0.07453400  1
  O  O39  1  0.82569350  0.24920450  0.67815400  1
  O  O40  1  0.81656250  0.46564850  0.82959000  1
  O  O41  1  0.82569350  0.75079550  0.17815400  1
  O  O42  1  0.00000000  0.02890300  0.75000000  1
  O  O43  1  0.13463650  0.25105050  0.27465300  1
  O  O44  1  0.00000000  0.54389200  0.25000000  1
  O  O45  1  0.14625750  0.46520550  0.42546600  1
  O  O46  1  0.85374250  0.53479450  0.57453400  1
  O  O47  1  0.00000000  0.45610800  0.75000000  1
  O  O48  1  0.86536350  0.74894950  0.72534700  1
  O  O49  1  0.00000000  0.97109700  0.25000000  1
  O  O50  1  0.17430650  0.24920450  0.82184600  1
  O  O51  1  0.18343750  0.53435150  0.17041000  1
  O  O52  1  0.17430650  0.75079550  0.32184600  1
  O  O53  1  0.14625750  0.53479450  0.92546600  1
  O  O54  1  0.31634800  0.47758200  0.33070200  1
  O  O55  1  0.18343750  0.46564850  0.67041000  1
  O  O56  1  0.13463650  0.74894950  0.77465300  1
  O  O57  1  0.35160700  0.53932100  0.07376200  1
  O  O58  1  0.31634800  0.52241800  0.83070200  1
  O  O59  1  0.35160700  0.46067900  0.57376200  1
  O  O60  1  0.14839300  0.03932100  0.42623800  1
  O  O61  1  0.18365200  0.97758200  0.16929800  1
  O  O62  1  0.14839300  0.96067900  0.92623800  1
  O  O63  1  0.36536350  0.75105050  0.22534700  1
  O  O64  1  0.31656250  0.03435150  0.32959000  1
  O  O65  1  0.18365200  0.02241800  0.66929800  1
  O  O66  1  0.35374250  0.96520550  0.07453400  1
  O  O67  1  0.32569350  0.74920450  0.67815400  1
  O  O68  1  0.31656250  0.96564850  0.82959000  1
  O  O69  1  0.32569350  0.25079550  0.17815400  1
  O  O70  1  0.50000000  0.52890300  0.75000000  1
  O  O71  1  0.63463650  0.75105050  0.27465300  1
  O  O72  1  0.50000000  0.04389200  0.25000000  1
  O  O73  1  0.64625750  0.96520550  0.42546600  1
  O  O74  1  0.35374250  0.03479450  0.57453400  1
  O  O75  1  0.50000000  0.95610800  0.75000000  1
  O  O76  1  0.36536350  0.24894950  0.72534700  1
  O  O77  1  0.50000000  0.47109700  0.25000000  1
  O  O78  1  0.67430650  0.74920450  0.82184600  1
  O  O79  1  0.68343750  0.03435150  0.17041000  1
  O  O80  1  0.67430650  0.25079550  0.32184600  1
  O  O81  1  0.64625750  0.03479450  0.92546600  1
  O  O82  1  0.81634800  0.97758200  0.33070200  1
  O  O83  1  0.68343750  0.96564850  0.67041000  1
  O  O84  1  0.63463650  0.24894950  0.77465300  1
  O  O85  1  0.85160700  0.03932100  0.07376200  1
  O  O86  1  0.81634800  0.02241800  0.83070200  1
  O  O87  1  0.85160700  0.96067900  0.57376200  1
