# generated using pymatgen
data_Dy3TaO7
_symmetry_space_group_name_H-M   'P 1'
_cell_length_a   7.51902200
_cell_length_b   10.57380000
_cell_length_c   7.51062500
_cell_angle_alpha   90.00000000
_cell_angle_beta   90.00000000
_cell_angle_gamma   90.00000000
_symmetry_Int_Tables_number   1
_chemical_formula_structural   Dy3TaO7
_chemical_formula_sum   'Dy12 Ta4 O28'
_cell_volume   597.12949792
_cell_formula_units_Z   4
loop_
 _symmetry_equiv_pos_site_id
 _symmetry_equiv_pos_as_xyz
  1  'x, y, z'
loop_
 _atom_site_type_symbol
 _atom_site_label
 _atom_site_symmetry_multiplicity
 _atom_site_fract_x
 _atom_site_fract_y
 _atom_site_fract_z
 _atom_site_occupancy
  Dy  Dy0  1  0.26753100  0.26719700  0.24619800  1
  Dy  Dy1  1  0.73246900  0.26719700  0.25380200  1
  Dy  Dy2  1  0.47543100  0.00000000  0.00000000  1
  Dy  Dy3  1  0.52456900  0.00000000  0.50000000  1
  Dy  Dy4  1  0.73246900  0.73280300  0.74619800  1
  Dy  Dy5  1  0.26753100  0.73280300  0.75380200  1
  Dy  Dy6  1  0.76753100  0.76719700  0.24619800  1
  Dy  Dy7  1  0.23246900  0.76719700  0.25380200  1
  Dy  Dy8  1  0.97543100  0.50000000  0.00000000  1
  Dy  Dy9  1  0.02456900  0.50000000  0.50000000  1
  Dy  Dy10  1  0.23246900  0.23280300  0.74619800  1
  Dy  Dy11  1  0.76753100  0.23280300  0.75380200  1
  Ta  Ta12  1  0.00243400  0.00000000  0.50000000  1
  Ta  Ta13  1  0.99756600  0.00000000  0.00000000  1
  Ta  Ta14  1  0.50243400  0.50000000  0.50000000  1
  Ta  Ta15  1  0.49756600  0.50000000  0.00000000  1
  O  O16  1  0.50000000  0.56755700  0.75000000  1
  O  O17  1  0.50000000  0.86176400  0.75000000  1
  O  O18  1  0.18767850  0.87272050  0.53773100  1
  O  O19  1  0.81232150  0.87272050  0.96226900  1
  O  O20  1  0.50000000  0.87076200  0.25000000  1
  O  O21  1  0.79688300  0.87699500  0.52854900  1
  O  O22  1  0.20311700  0.87699500  0.97145100  1
  O  O23  1  0.20311700  0.12300500  0.02854900  1
  O  O24  1  0.79688300  0.12300500  0.47145100  1
  O  O25  1  0.50000000  0.12923800  0.75000000  1
  O  O26  1  0.81232150  0.12727950  0.03773100  1
  O  O27  1  0.18767850  0.12727950  0.46226900  1
  O  O28  1  0.50000000  0.13823600  0.25000000  1
  O  O29  1  0.50000000  0.43244300  0.25000000  1
  O  O30  1  0.00000000  0.06755700  0.75000000  1
  O  O31  1  0.00000000  0.36176400  0.75000000  1
  O  O32  1  0.68767850  0.37272050  0.53773100  1
  O  O33  1  0.31232150  0.37272050  0.96226900  1
  O  O34  1  0.00000000  0.37076200  0.25000000  1
  O  O35  1  0.29688300  0.37699500  0.52854900  1
  O  O36  1  0.70311700  0.37699500  0.97145100  1
  O  O37  1  0.70311700  0.62300500  0.02854900  1
  O  O38  1  0.29688300  0.62300500  0.47145100  1
  O  O39  1  0.00000000  0.62923800  0.75000000  1
  O  O40  1  0.31232150  0.62727950  0.03773100  1
  O  O41  1  0.68767850  0.62727950  0.46226900  1
  O  O42  1  0.00000000  0.63823600  0.25000000  1
  O  O43  1  0.00000000  0.93244300  0.25000000  1
