# generated using pymatgen
data_Ba2LaCl7
_symmetry_space_group_name_H-M   'P 1'
_cell_length_a   16.52459800
_cell_length_b   8.16703200
_cell_length_c   10.16389983
_cell_angle_alpha   90.00000000
_cell_angle_beta   123.68927328
_cell_angle_gamma   90.00000000
_symmetry_Int_Tables_number   1
_chemical_formula_structural   Ba2LaCl7
_chemical_formula_sum   'Ba8 La4 Cl28'
_cell_volume   1141.32446995
_cell_formula_units_Z   4
loop_
 _symmetry_equiv_pos_site_id
 _symmetry_equiv_pos_as_xyz
  1  'x, y, z'
loop_
 _atom_site_type_symbol
 _atom_site_label
 _atom_site_symmetry_multiplicity
 _atom_site_fract_x
 _atom_site_fract_y
 _atom_site_fract_z
 _atom_site_occupancy
  Ba  Ba0  1  0.18944450  0.50329350  0.78646300  1
  Ba  Ba1  1  0.31055550  0.00329350  0.71353700  1
  Ba  Ba2  1  0.68944450  0.99670650  0.28646300  1
  Ba  Ba3  1  0.81055550  0.49670650  0.21353700  1
  Ba  Ba4  1  0.68944450  0.00329350  0.78646300  1
  Ba  Ba5  1  0.81055550  0.50329350  0.71353700  1
  Ba  Ba6  1  0.18944450  0.49670650  0.28646300  1
  Ba  Ba7  1  0.31055550  0.99670650  0.21353700  1
  La  La8  1  0.00000000  0.01154700  0.75000000  1
  La  La9  1  0.00000000  0.98845300  0.25000000  1
  La  La10  1  0.50000000  0.51154700  0.75000000  1
  La  La11  1  0.50000000  0.48845300  0.25000000  1
  Cl  Cl12  1  0.19533800  0.11829200  0.85869200  1
  Cl  Cl13  1  0.86799750  0.24890250  0.03053200  1
  Cl  Cl14  1  0.13200250  0.24890250  0.46946800  1
  Cl  Cl15  1  0.69533800  0.38170800  0.35869200  1
  Cl  Cl16  1  0.08717150  0.84488250  0.58108700  1
  Cl  Cl17  1  0.00000000  0.62367100  0.25000000  1
  Cl  Cl18  1  0.58717150  0.65511750  0.08108700  1
  Cl  Cl19  1  0.41282850  0.34488250  0.91891300  1
  Cl  Cl20  1  0.00000000  0.37632900  0.75000000  1
  Cl  Cl21  1  0.91282850  0.15511750  0.41891300  1
  Cl  Cl22  1  0.30466200  0.61829200  0.64130800  1
  Cl  Cl23  1  0.86799750  0.75109750  0.53053200  1
  Cl  Cl24  1  0.13200250  0.75109750  0.96946800  1
  Cl  Cl25  1  0.80466200  0.88170800  0.14130800  1
  Cl  Cl26  1  0.69533800  0.61829200  0.85869200  1
  Cl  Cl27  1  0.36799750  0.74890250  0.03053200  1
  Cl  Cl28  1  0.63200250  0.74890250  0.46946800  1
  Cl  Cl29  1  0.19533800  0.88170800  0.35869200  1
  Cl  Cl30  1  0.58717150  0.34488250  0.58108700  1
  Cl  Cl31  1  0.50000000  0.12367100  0.25000000  1
  Cl  Cl32  1  0.08717150  0.15511750  0.08108700  1
  Cl  Cl33  1  0.91282850  0.84488250  0.91891300  1
  Cl  Cl34  1  0.50000000  0.87632900  0.75000000  1
  Cl  Cl35  1  0.41282850  0.65511750  0.41891300  1
  Cl  Cl36  1  0.80466200  0.11829200  0.64130800  1
  Cl  Cl37  1  0.36799750  0.25109750  0.53053200  1
  Cl  Cl38  1  0.63200250  0.25109750  0.96946800  1
  Cl  Cl39  1  0.30466200  0.38170800  0.14130800  1
