# generated using pymatgen
data_LiSi3BiO8
_symmetry_space_group_name_H-M   'P 1'
_cell_length_a   8.54745400
_cell_length_b   12.92984000
_cell_length_c   12.95761985
_cell_angle_alpha   90.00000000
_cell_angle_beta   101.63501595
_cell_angle_gamma   90.00000000
_symmetry_Int_Tables_number   1
_chemical_formula_structural   LiSi3BiO8
_chemical_formula_sum   'Li8 Si24 Bi8 O64'
_cell_volume   1402.61472631
_cell_formula_units_Z   8
loop_
 _symmetry_equiv_pos_site_id
 _symmetry_equiv_pos_as_xyz
  1  'x, y, z'
loop_
 _atom_site_type_symbol
 _atom_site_label
 _atom_site_symmetry_multiplicity
 _atom_site_fract_x
 _atom_site_fract_y
 _atom_site_fract_z
 _atom_site_occupancy
  Li  Li0  1  0.27500200  0.13805200  0.82344500  1
  Li  Li1  1  0.27500200  0.86194800  0.32344500  1
  Li  Li2  1  0.86837700  0.93361600  0.62339500  1
  Li  Li3  1  0.86837700  0.06638400  0.12339500  1
  Li  Li4  1  0.77500200  0.63805200  0.82344500  1
  Li  Li5  1  0.77500200  0.36194800  0.32344500  1
  Li  Li6  1  0.36837700  0.43361600  0.62339500  1
  Li  Li7  1  0.36837700  0.56638400  0.12339500  1
  Si  Si8  1  0.75859950  0.86849550  0.83801700  1
  Si  Si9  1  0.12010250  0.94427050  0.87700000  1
  Si  Si10  1  0.63769850  0.08618850  0.89606100  1
  Si  Si11  1  0.75859950  0.13150450  0.33801700  1
  Si  Si12  1  0.36202550  0.08553250  0.59849000  1
  Si  Si13  1  0.12010250  0.05572950  0.37700000  1
  Si  Si14  1  0.63769850  0.91381150  0.39606100  1
  Si  Si15  1  0.73055500  0.14242400  0.67136200  1
  Si  Si16  1  0.23386900  0.88193700  0.66489100  1
  Si  Si17  1  0.36202550  0.91446750  0.09849000  1
  Si  Si18  1  0.23386900  0.11806300  0.16489100  1
  Si  Si19  1  0.73055500  0.85757600  0.17136200  1
  Si  Si20  1  0.25859950  0.36849550  0.83801700  1
  Si  Si21  1  0.62010250  0.44427050  0.87700000  1
  Si  Si22  1  0.13769850  0.58618850  0.89606100  1
  Si  Si23  1  0.25859950  0.63150450  0.33801700  1
  Si  Si24  1  0.86202550  0.58553250  0.59849000  1
  Si  Si25  1  0.62010250  0.55572950  0.37700000  1
  Si  Si26  1  0.13769850  0.41381150  0.39606100  1
  Si  Si27  1  0.23055500  0.64242400  0.67136200  1
  Si  Si28  1  0.73386900  0.38193700  0.66489100  1
  Si  Si29  1  0.86202550  0.41446750  0.09849000  1
  Si  Si30  1  0.73386900  0.61806300  0.16489100  1
  Si  Si31  1  0.23055500  0.35757600  0.17136200  1
  Bi  Bi32  1  0.58695800  0.76972000  0.58402200  1
  Bi  Bi33  1  0.49126150  0.70189650  0.93380900  1
  Bi  Bi34  1  0.58695800  0.23028000  0.08402200  1
  Bi  Bi35  1  0.49126150  0.29810350  0.43380900  1
  Bi  Bi36  1  0.08695800  0.26972000  0.58402200  1
  Bi  Bi37  1  0.99126150  0.20189650  0.93380900  1
  Bi  Bi38  1  0.08695800  0.73028000  0.08402200  1
  Bi  Bi39  1  0.99126150  0.79810350  0.43380900  1
  O  O40  1  0.45603200  0.37807200  0.87038800  1
  O  O41  1  0.46403550  0.11412450  0.91387200  1
  O  O42  1  0.27308000  0.15757900  0.67189500  1
  O  O43  1  0.70493400  0.87125600  0.70879300  1
  O  O44  1  0.71047350  0.76207650  0.88965200  1
  O  O45  1  0.67486800  0.96311700  0.89052700  1
  O  O46  1  0.09062050  0.06746350  0.87239100  1
  O  O47  1  0.46403550  0.88587550  0.41387200  1
  O  O48  1  0.45603200  0.62192800  0.37038800  1
  O  O49  1  0.70493400  0.12874400  0.20879300  1
  O  O50  1  0.27308000  0.84242100  0.17189500  1
  O  O51  1  0.86086450  0.07237250  0.63677400  1
  O  O52  1  0.36714900  0.96208000  0.63285700  1
  O  O53  1  0.71047350  0.23792350  0.38965200  1
  O  O54  1  0.24912300  0.09967500  0.47998800  1
  O  O55  1  0.75474150  0.85633950  0.49992300  1
  O  O56  1  0.30820550  0.76407050  0.66764900  1
  O  O57  1  0.09062050  0.93253650  0.37239100  1
  O  O58  1  0.67486800  0.03688300  0.39052700  1
  O  O59  1  0.20753250  0.91392250  0.78046200  1
  O  O60  1  0.70521150  0.13824450  0.79524200  1
  O  O61  1  0.54375650  0.13121950  0.59658500  1
  O  O62  1  0.56492400  0.37899700  0.58251100  1
  O  O63  1  0.86086450  0.92762750  0.13677400  1
  O  O64  1  0.36714900  0.03792000  0.13285700  1
  O  O65  1  0.75474150  0.14366050  0.99992300  1
  O  O66  1  0.24912300  0.90032500  0.97998800  1
  O  O67  1  0.30820550  0.23592950  0.16764900  1
  O  O68  1  0.70521150  0.86175550  0.29524200  1
  O  O69  1  0.20753250  0.08607750  0.28046200  1
  O  O70  1  0.56492400  0.62100300  0.08251100  1
  O  O71  1  0.54375650  0.86878050  0.09658500  1
  O  O72  1  0.95603200  0.87807200  0.87038800  1
  O  O73  1  0.96403550  0.61412450  0.91387200  1
  O  O74  1  0.77308000  0.65757900  0.67189500  1
  O  O75  1  0.20493400  0.37125600  0.70879300  1
  O  O76  1  0.21047350  0.26207650  0.88965200  1
  O  O77  1  0.17486800  0.46311700  0.89052700  1
  O  O78  1  0.59062050  0.56746350  0.87239100  1
  O  O79  1  0.96403550  0.38587550  0.41387200  1
  O  O80  1  0.95603200  0.12192800  0.37038800  1
  O  O81  1  0.20493400  0.62874400  0.20879300  1
  O  O82  1  0.77308000  0.34242100  0.17189500  1
  O  O83  1  0.36086450  0.57237250  0.63677400  1
  O  O84  1  0.86714900  0.46208000  0.63285700  1
  O  O85  1  0.21047350  0.73792350  0.38965200  1
  O  O86  1  0.74912300  0.59967500  0.47998800  1
  O  O87  1  0.25474150  0.35633950  0.49992300  1
  O  O88  1  0.80820550  0.26407050  0.66764900  1
  O  O89  1  0.59062050  0.43253650  0.37239100  1
  O  O90  1  0.17486800  0.53688300  0.39052700  1
  O  O91  1  0.70753250  0.41392250  0.78046200  1
  O  O92  1  0.20521150  0.63824450  0.79524200  1
  O  O93  1  0.04375650  0.63121950  0.59658500  1
  O  O94  1  0.06492400  0.87899700  0.58251100  1
  O  O95  1  0.36086450  0.42762750  0.13677400  1
  O  O96  1  0.86714900  0.53792000  0.13285700  1
  O  O97  1  0.25474150  0.64366050  0.99992300  1
  O  O98  1  0.74912300  0.40032500  0.97998800  1
  O  O99  1  0.80820550  0.73592950  0.16764900  1
  O  O100  1  0.20521150  0.36175550  0.29524200  1
  O  O101  1  0.70753250  0.58607750  0.28046200  1
  O  O102  1  0.06492400  0.12100300  0.08251100  1
  O  O103  1  0.04375650  0.36878050  0.09658500  1
