# generated using pymatgen
data_Li2TiFe3O8
_symmetry_space_group_name_H-M   'P 1'
_cell_length_a   8.41236500
_cell_length_b   8.44696484
_cell_length_c   8.43053200
_cell_angle_alpha   90.00000000
_cell_angle_beta   90.06239614
_cell_angle_gamma   90.00000000
_symmetry_Int_Tables_number   1
_chemical_formula_structural   Li2TiFe3O8
_chemical_formula_sum   'Li8 Ti4 Fe12 O32'
_cell_volume   599.06440821
_cell_formula_units_Z   4
loop_
 _symmetry_equiv_pos_site_id
 _symmetry_equiv_pos_as_xyz
  1  'x, y, z'
loop_
 _atom_site_type_symbol
 _atom_site_label
 _atom_site_symmetry_multiplicity
 _atom_site_fract_x
 _atom_site_fract_y
 _atom_site_fract_z
 _atom_site_occupancy
  Li  Li0  1  0.25386950  0.00251700  0.50212200  1
  Li  Li1  1  0.99479750  0.75032500  0.75166400  1
  Li  Li2  1  0.49653750  0.24953800  0.74948500  1
  Li  Li3  1  0.75290750  0.99840900  0.99867600  1
  Li  Li4  1  0.24709250  0.49840900  0.00132400  1
  Li  Li5  1  0.50346250  0.74953800  0.25051500  1
  Li  Li6  1  0.00520250  0.25032500  0.24833600  1
  Li  Li7  1  0.74613050  0.50251700  0.49787800  1
  Ti  Ti8  1  0.87240950  0.13055900  0.62202100  1
  Ti  Ti9  1  0.37554350  0.87247000  0.87670400  1
  Ti  Ti10  1  0.62445650  0.37247000  0.12329600  1
  Ti  Ti11  1  0.12759050  0.63055900  0.37797900  1
  Fe  Fe12  1  0.62640750  0.87683500  0.62690200  1
  Fe  Fe13  1  0.38190550  0.62395700  0.62220800  1
  Fe  Fe14  1  0.13054950  0.37325300  0.62600500  1
  Fe  Fe15  1  0.62983250  0.62788200  0.87578300  1
  Fe  Fe16  1  0.88020950  0.37391000  0.87931200  1
  Fe  Fe17  1  0.12481550  0.12244400  0.87211200  1
  Fe  Fe18  1  0.87518450  0.62244400  0.12788800  1
  Fe  Fe19  1  0.11979050  0.87391000  0.12068800  1
  Fe  Fe20  1  0.37016750  0.12788200  0.12421700  1
  Fe  Fe21  1  0.86945050  0.87325300  0.37399500  1
  Fe  Fe22  1  0.61809450  0.12395700  0.37779200  1
  Fe  Fe23  1  0.37359250  0.37683500  0.37309800  1
  O  O24  1  0.85336850  0.88669500  0.61736800  1
  O  O25  1  0.63960650  0.10825900  0.62106700  1
  O  O26  1  0.36923450  0.38608900  0.60415500  1
  O  O27  1  0.39923050  0.86834200  0.63432900  1
  O  O28  1  0.13230350  0.61436200  0.60702800  1
  O  O29  1  0.62007750  0.64706000  0.63623300  1
  O  O30  1  0.88312550  0.35772100  0.63513100  1
  O  O31  1  0.11022350  0.12873100  0.64366500  1
  O  O32  1  0.61084550  0.87019100  0.85838900  1
  O  O33  1  0.38350750  0.64299400  0.86455000  1
  O  O34  1  0.11856950  0.35265100  0.86407300  1
  O  O35  1  0.63299450  0.38391200  0.89346700  1
  O  O36  1  0.89398850  0.13188300  0.86184300  1
  O  O37  1  0.86917850  0.61429900  0.89904600  1
  O  O38  1  0.14024450  0.89096500  0.87712500  1
  O  O39  1  0.35512750  0.11267800  0.88232200  1
  O  O40  1  0.64487250  0.61267800  0.11767800  1
  O  O41  1  0.85975550  0.39096500  0.12287500  1
  O  O42  1  0.13082150  0.11429900  0.10095400  1
  O  O43  1  0.10601150  0.63188300  0.13815700  1
  O  O44  1  0.36700550  0.88391200  0.10653300  1
  O  O45  1  0.88143050  0.85265100  0.13592700  1
  O  O46  1  0.61649250  0.14299400  0.13545000  1
  O  O47  1  0.38915450  0.37019100  0.14161100  1
  O  O48  1  0.88977650  0.62873100  0.35633500  1
  O  O49  1  0.11687450  0.85772100  0.36486900  1
  O  O50  1  0.37992250  0.14706000  0.36376700  1
  O  O51  1  0.86769650  0.11436200  0.39297200  1
  O  O52  1  0.60076950  0.36834200  0.36567100  1
  O  O53  1  0.63076550  0.88608900  0.39584500  1
  O  O54  1  0.36039350  0.60825900  0.37893300  1
  O  O55  1  0.14663150  0.38669500  0.38263200  1
