# generated using pymatgen
data_ScBiO3
_symmetry_space_group_name_H-M   'P 1'
_cell_length_a   5.78311018
_cell_length_b   5.78311018
_cell_length_c   14.66007666
_cell_angle_alpha   90.00000000
_cell_angle_beta   90.00000000
_cell_angle_gamma   120.00000000
_symmetry_Int_Tables_number   1
_chemical_formula_structural   ScBiO3
_chemical_formula_sum   'Sc6 Bi6 O18'
_cell_volume   424.60959727
_cell_formula_units_Z   6
loop_
 _symmetry_equiv_pos_site_id
 _symmetry_equiv_pos_as_xyz
  1  'x, y, z'
loop_
 _atom_site_type_symbol
 _atom_site_label
 _atom_site_symmetry_multiplicity
 _atom_site_fract_x
 _atom_site_fract_y
 _atom_site_fract_z
 _atom_site_occupancy
  Sc  Sc0  1  0.00000000  0.00000000  0.22052000  1
  Sc  Sc1  1  0.66666667  0.33333333  0.05385333  1
  Sc  Sc2  1  0.66666667  0.33333333  0.55385333  1
  Sc  Sc3  1  0.33333333  0.66666667  0.38718667  1
  Sc  Sc4  1  0.33333333  0.66666667  0.88718667  1
  Sc  Sc5  1  0.00000000  0.00000000  0.72052000  1
  Bi  Bi6  1  0.00000000  0.00000000  0.00576900  1
  Bi  Bi7  1  0.33333333  0.66666667  0.17243567  1
  Bi  Bi8  1  0.66666667  0.33333333  0.33910233  1
  Bi  Bi9  1  0.00000000  0.00000000  0.50576900  1
  Bi  Bi10  1  0.33333333  0.66666667  0.67243567  1
  Bi  Bi11  1  0.66666667  0.33333333  0.83910233  1
  O  O12  1  0.31002933  0.07140467  0.11737867  1
  O  O13  1  0.09470867  0.73807133  0.28404533  1
  O  O14  1  0.64336267  0.90529133  0.28404533  1
  O  O15  1  0.76137533  0.68997067  0.11737867  1
  O  O16  1  0.92859533  0.23862467  0.11737867  1
  O  O17  1  0.26192867  0.35663733  0.28404533  1
  O  O18  1  0.97669600  0.40473800  0.45071200  1
  O  O19  1  0.76137533  0.07140467  0.61737867  1
  O  O20  1  0.31002933  0.23862467  0.61737867  1
  O  O21  1  0.42804200  0.02330400  0.45071200  1
  O  O22  1  0.59526200  0.57195800  0.45071200  1
  O  O23  1  0.92859533  0.68997067  0.61737867  1
  O  O24  1  0.64336267  0.73807133  0.78404533  1
  O  O25  1  0.42804200  0.40473800  0.95071200  1
  O  O26  1  0.97669600  0.57195800  0.95071200  1
  O  O27  1  0.09470867  0.35663733  0.78404533  1
  O  O28  1  0.26192867  0.90529133  0.78404533  1
  O  O29  1  0.59526200  0.02330400  0.95071200  1
