# generated using pymatgen
data_Tm2TiO5
_symmetry_space_group_name_H-M   'P 1'
_cell_length_a   11.52956000
_cell_length_b   5.26004400
_cell_length_c   7.50121761
_cell_angle_alpha   90.00000000
_cell_angle_beta   113.54052238
_cell_angle_gamma   90.00000000
_symmetry_Int_Tables_number   1
_chemical_formula_structural   Tm2TiO5
_chemical_formula_sum   'Tm8 Ti4 O20'
_cell_volume   417.05946088
_cell_formula_units_Z   4
loop_
 _symmetry_equiv_pos_site_id
 _symmetry_equiv_pos_as_xyz
  1  'x, y, z'
loop_
 _atom_site_type_symbol
 _atom_site_label
 _atom_site_symmetry_multiplicity
 _atom_site_fract_x
 _atom_site_fract_y
 _atom_site_fract_z
 _atom_site_occupancy
  Tm  Tm0  1  0.13763300  0.49289100  0.74851500  1
  Tm  Tm1  1  0.13763300  0.50710900  0.24851500  1
  Tm  Tm2  1  0.36236700  0.99289100  0.75148500  1
  Tm  Tm3  1  0.36236700  0.00710900  0.25148500  1
  Tm  Tm4  1  0.63763300  0.99289100  0.74851500  1
  Tm  Tm5  1  0.63763300  0.00710900  0.24851500  1
  Tm  Tm6  1  0.86236700  0.49289100  0.75148500  1
  Tm  Tm7  1  0.86236700  0.50710900  0.25148500  1
  Ti  Ti8  1  0.00000000  0.00000000  0.50000000  1
  Ti  Ti9  1  0.00000000  0.00000000  0.00000000  1
  Ti  Ti10  1  0.50000000  0.50000000  0.50000000  1
  Ti  Ti11  1  0.50000000  0.50000000  0.00000000  1
  O  O12  1  0.07228400  0.68015800  0.95508000  1
  O  O13  1  0.07228400  0.31984200  0.45508000  1
  O  O14  1  0.17052150  0.85625950  0.64105200  1
  O  O15  1  0.32947850  0.35625950  0.85894800  1
  O  O16  1  0.17052150  0.14374050  0.14105200  1
  O  O17  1  0.32947850  0.64374050  0.35894800  1
  O  O18  1  0.42771600  0.18015800  0.54492000  1
  O  O19  1  0.00000000  0.17150800  0.75000000  1
  O  O20  1  0.42771600  0.81984200  0.04492000  1
  O  O21  1  0.00000000  0.82849200  0.25000000  1
  O  O22  1  0.57228400  0.18015800  0.95508000  1
  O  O23  1  0.57228400  0.81984200  0.45508000  1
  O  O24  1  0.67052150  0.35625950  0.64105200  1
  O  O25  1  0.82947850  0.85625950  0.85894800  1
  O  O26  1  0.67052150  0.64374050  0.14105200  1
  O  O27  1  0.82947850  0.14374050  0.35894800  1
  O  O28  1  0.92771600  0.68015800  0.54492000  1
  O  O29  1  0.50000000  0.67150800  0.75000000  1
  O  O30  1  0.92771600  0.31984200  0.04492000  1
  O  O31  1  0.50000000  0.32849200  0.25000000  1
