# generated using pymatgen
data_Li3CoOF3
_symmetry_space_group_name_H-M   'P 1'
_cell_length_a   9.83667000
_cell_length_b   2.98609200
_cell_length_c   10.20467382
_cell_angle_alpha   90.00000000
_cell_angle_beta   101.11572439
_cell_angle_gamma   90.00000000
_symmetry_Int_Tables_number   1
_chemical_formula_structural   Li3CoOF3
_chemical_formula_sum   'Li12 Co4 O4 F12'
_cell_volume   294.12068214
_cell_formula_units_Z   4
loop_
 _symmetry_equiv_pos_site_id
 _symmetry_equiv_pos_as_xyz
  1  'x, y, z'
loop_
 _atom_site_type_symbol
 _atom_site_label
 _atom_site_symmetry_multiplicity
 _atom_site_fract_x
 _atom_site_fract_y
 _atom_site_fract_z
 _atom_site_occupancy
  Li  Li0  1  0.74890750  0.50039350  0.11909000  1
  Li  Li1  1  0.00000000  0.50016200  0.00000000  1
  Li  Li2  1  0.00000000  0.50762000  0.50000000  1
  Li  Li3  1  0.99951900  0.00055500  0.74629100  1
  Li  Li4  1  0.75109250  0.00039350  0.88091000  1
  Li  Li5  1  0.50048100  0.50055500  0.25370900  1
  Li  Li6  1  0.24890750  0.00039350  0.11909000  1
  Li  Li7  1  0.50000000  0.00016200  0.00000000  1
  Li  Li8  1  0.50000000  0.00762000  0.50000000  1
  Li  Li9  1  0.49951900  0.50055500  0.74629100  1
  Li  Li10  1  0.25109250  0.50039350  0.88091000  1
  Li  Li11  1  0.00048100  0.00055500  0.25370900  1
  Co  Co12  1  0.75540450  0.49529750  0.61291500  1
  Co  Co13  1  0.74459550  0.99529750  0.38708500  1
  Co  Co14  1  0.25540450  0.99529750  0.61291500  1
  Co  Co15  1  0.24459550  0.49529750  0.38708500  1
  O  O16  1  0.62298050  0.51567450  0.43466700  1
  O  O17  1  0.87701950  0.01567450  0.56533300  1
  O  O18  1  0.12298050  0.01567450  0.43466700  1
  O  O19  1  0.37701950  0.51567450  0.56533300  1
  F  F20  1  0.62433700  0.50065700  0.93790900  1
  F  F21  1  0.87473750  0.50494350  0.81836400  1
  F  F22  1  0.86954100  0.49158100  0.29957600  1
  F  F23  1  0.87566300  0.00065700  0.06209100  1
  F  F24  1  0.62526250  0.00494350  0.18163600  1
  F  F25  1  0.63045900  0.99158100  0.70042400  1
  F  F26  1  0.12433700  0.00065700  0.93790900  1
  F  F27  1  0.37473750  0.00494350  0.81836400  1
  F  F28  1  0.36954100  0.99158100  0.29957600  1
  F  F29  1  0.37566300  0.50065700  0.06209100  1
  F  F30  1  0.12526250  0.50494350  0.18163600  1
  F  F31  1  0.13045900  0.49158100  0.70042400  1
