# generated using pymatgen
data_FePO4
_symmetry_space_group_name_H-M   'P 1'
_cell_length_a   14.14110378
_cell_length_b   14.14110378
_cell_length_c   9.28799307
_cell_angle_alpha   90.00000000
_cell_angle_beta   90.00000000
_cell_angle_gamma   120.00000000
_symmetry_Int_Tables_number   1
_chemical_formula_structural   FePO4
_chemical_formula_sum   'Fe18 P18 O72'
_cell_volume   1608.49284532
_cell_formula_units_Z   18
loop_
 _symmetry_equiv_pos_site_id
 _symmetry_equiv_pos_as_xyz
  1  'x, y, z'
loop_
 _atom_site_type_symbol
 _atom_site_label
 _atom_site_symmetry_multiplicity
 _atom_site_fract_x
 _atom_site_fract_y
 _atom_site_fract_z
 _atom_site_occupancy
  Fe  Fe0  1  0.98315500  0.78452700  0.25495400  1
  Fe  Fe1  1  0.80137200  0.01684500  0.25495400  1
  Fe  Fe2  1  0.79314533  0.80145567  0.75384467  1
  Fe  Fe3  1  0.00831033  0.20685467  0.75384467  1
  Fe  Fe4  1  0.21547300  0.19862800  0.25495400  1
  Fe  Fe5  1  0.19854433  0.99168967  0.75384467  1
  Fe  Fe6  1  0.64982167  0.11786033  0.58828733  1
  Fe  Fe7  1  0.46803867  0.35017833  0.58828733  1
  Fe  Fe8  1  0.45981200  0.13478900  0.08717800  1
  Fe  Fe9  1  0.67497700  0.54018800  0.08717800  1
  Fe  Fe10  1  0.88213967  0.53196133  0.58828733  1
  Fe  Fe11  1  0.86521100  0.32502300  0.08717800  1
  Fe  Fe12  1  0.31648833  0.45119367  0.92162067  1
  Fe  Fe13  1  0.13470533  0.68351167  0.92162067  1
  Fe  Fe14  1  0.12647867  0.46812233  0.42051133  1
  Fe  Fe15  1  0.34164367  0.87352133  0.42051133  1
  Fe  Fe16  1  0.54880633  0.86529467  0.92162067  1
  Fe  Fe17  1  0.53187767  0.65835633  0.42051133  1
  P  P18  1  0.54170500  0.86772500  0.58261100  1
  P  P19  1  0.19634200  0.98438300  0.41553800  1
  P  P20  1  0.32602000  0.45829500  0.58261100  1
  P  P21  1  0.01561700  0.21195900  0.41553800  1
  P  P22  1  0.78804100  0.80365800  0.41553800  1
  P  P23  1  0.13227500  0.67398000  0.58261100  1
  P  P24  1  0.20837167  0.20105833  0.91594433  1
  P  P25  1  0.86300867  0.31771633  0.74887133  1
  P  P26  1  0.99268667  0.79162833  0.91594433  1
  P  P27  1  0.68228367  0.54529233  0.74887133  1
  P  P28  1  0.45470767  0.13699133  0.74887133  1
  P  P29  1  0.79894167  0.00731333  0.91594433  1
  P  P30  1  0.87503833  0.53439167  0.24927767  1
  P  P31  1  0.52967533  0.65104967  0.08220467  1
  P  P32  1  0.65935333  0.12496167  0.24927767  1
  P  P33  1  0.34895033  0.87862567  0.08220467  1
  P  P34  1  0.12137433  0.47032467  0.08220467  1
  P  P35  1  0.46560833  0.34064667  0.24927767  1
  O  O36  1  0.67942667  0.69254733  0.40938733  1
  O  O37  1  0.77581233  0.22514367  0.22941467  1
  O  O38  1  0.52087333  0.38883967  0.39621267  1
  O  O39  1  0.30745267  0.98687933  0.40938733  1
  O  O40  1  0.78857333  0.88073567  0.29727767  1
  O  O41  1  0.77485633  0.55066867  0.22941467  1
  O  O42  1  0.05614967  0.19890333  0.56606233  1
  O  O43  1  0.54280267  0.79424433  0.46021633  1
  O  O44  1  0.86796633  0.47912667  0.39621267  1
  O  O45  1  0.01839967  0.66536633  0.57714133  1
  O  O46  1  0.11926433  0.90783767  0.29727767  1
  O  O47  1  0.80109667  0.85724633  0.56606233  1
  O  O48  1  0.44933133  0.22418767  0.22941467  1
  O  O49  1  0.89832033  0.11641667  0.39143567  1
  O  O50  1  0.14275367  0.94385033  0.56606233  1
  O  O51  1  0.20575567  0.74855833  0.46021633  1
  O  O52  1  0.01312067  0.32057333  0.40938733  1
  O  O53  1  0.64696667  0.98160033  0.57714133  1
  O  O54  1  0.33463367  0.35303333  0.57714133  1
  O  O55  1  0.61116033  0.13203367  0.39621267  1
  O  O56  1  0.09216233  0.21142667  0.29727767  1
  O  O57  1  0.25144167  0.45719733  0.46021633  1
  O  O58  1  0.21809633  0.10167967  0.39143567  1
  O  O59  1  0.88358333  0.78190367  0.39143567  1
  O  O60  1  0.34609333  0.02588067  0.74272067  1
  O  O61  1  0.44247900  0.55847700  0.56274800  1
  O  O62  1  0.18754000  0.72217300  0.72954600  1
  O  O63  1  0.97411933  0.32021267  0.74272067  1
  O  O64  1  0.45524000  0.21406900  0.63061100  1
  O  O65  1  0.44152300  0.88400200  0.56274800  1
  O  O66  1  0.72281633  0.53223667  0.89939567  1
  O  O67  1  0.20946933  0.12757767  0.79354967  1
  O  O68  1  0.53463300  0.81246000  0.72954600  1
  O  O69  1  0.68506633  0.99869967  0.91047467  1
  O  O70  1  0.78593100  0.24117100  0.63061100  1
  O  O71  1  0.46776333  0.19057967  0.89939567  1
  O  O72  1  0.11599800  0.55752100  0.56274800  1
  O  O73  1  0.56498700  0.44975000  0.72476900  1
  O  O74  1  0.80942033  0.27718367  0.89939567  1
  O  O75  1  0.87242233  0.08189167  0.79354967  1
  O  O76  1  0.67978733  0.65390667  0.74272067  1
  O  O77  1  0.31363333  0.31493367  0.91047467  1
  O  O78  1  0.00130033  0.68636667  0.91047467  1
  O  O79  1  0.27782700  0.46536700  0.72954600  1
  O  O80  1  0.75882900  0.54476000  0.63061100  1
  O  O81  1  0.91810833  0.79053067  0.79354967  1
  O  O82  1  0.88476300  0.43501300  0.72476900  1
  O  O83  1  0.55025000  0.11523700  0.72476900  1
  O  O84  1  0.01276000  0.35921400  0.07605400  1
  O  O85  1  0.10914567  0.89181033  0.89608133  1
  O  O86  1  0.85420667  0.05550633  0.06287933  1
  O  O87  1  0.64078600  0.65354600  0.07605400  1
  O  O88  1  0.12190667  0.54740233  0.96394433  1
  O  O89  1  0.10818967  0.21733533  0.89608133  1
  O  O90  1  0.38948300  0.86557000  0.23272900  1
  O  O91  1  0.87613600  0.46091100  0.12688300  1
  O  O92  1  0.20129967  0.14579333  0.06287933  1
  O  O93  1  0.35173300  0.33203300  0.24380800  1
  O  O94  1  0.45259767  0.57450433  0.96394433  1
  O  O95  1  0.13443000  0.52391300  0.23272900  1
  O  O96  1  0.78266467  0.89085433  0.89608133  1
  O  O97  1  0.23165367  0.78308333  0.05810233  1
  O  O98  1  0.47608700  0.61051700  0.23272900  1
  O  O99  1  0.53908900  0.41522500  0.12688300  1
  O  O100  1  0.34645400  0.98724000  0.07605400  1
  O  O101  1  0.98030000  0.64826700  0.24380800  1
  O  O102  1  0.66796700  0.01970000  0.24380800  1
  O  O103  1  0.94449367  0.79870033  0.06287933  1
  O  O104  1  0.42549567  0.87809333  0.96394433  1
  O  O105  1  0.58477500  0.12386400  0.12688300  1
  O  O106  1  0.55142967  0.76834633  0.05810233  1
  O  O107  1  0.21691667  0.44857033  0.05810233  1
