# generated using pymatgen
data_LiMnB2O5
_symmetry_space_group_name_H-M   'P 1'
_cell_length_a   6.49295100
_cell_length_b   9.47510200
_cell_length_c   6.74102431
_cell_angle_alpha   90.00000000
_cell_angle_beta   106.24293359
_cell_angle_gamma   90.00000000
_symmetry_Int_Tables_number   1
_chemical_formula_structural   LiMnB2O5
_chemical_formula_sum   'Li4 Mn4 B8 O20'
_cell_volume   398.16337307
_cell_formula_units_Z   4
loop_
 _symmetry_equiv_pos_site_id
 _symmetry_equiv_pos_as_xyz
  1  'x, y, z'
loop_
 _atom_site_type_symbol
 _atom_site_label
 _atom_site_symmetry_multiplicity
 _atom_site_fract_x
 _atom_site_fract_y
 _atom_site_fract_z
 _atom_site_occupancy
  Li  Li0  1  0.20043700  0.81242700  0.75490700  1
  Li  Li1  1  0.70043700  0.68757300  0.75490700  1
  Li  Li2  1  0.29956300  0.31242700  0.24509300  1
  Li  Li3  1  0.79956300  0.18757300  0.24509300  1
  Mn  Mn4  1  0.31809500  0.43893200  0.81939400  1
  Mn  Mn5  1  0.81809500  0.06106800  0.81939400  1
  Mn  Mn6  1  0.18190500  0.93893200  0.18060600  1
  Mn  Mn7  1  0.68190500  0.56106800  0.18060600  1
  B  B8  1  0.29383400  0.13120800  0.85922000  1
  B  B9  1  0.79383400  0.36879200  0.85922000  1
  B  B10  1  0.27736200  0.04759600  0.50579800  1
  B  B11  1  0.22263800  0.54759600  0.49420200  1
  B  B12  1  0.77736200  0.45240400  0.50579800  1
  B  B13  1  0.72263800  0.95240400  0.49420200  1
  B  B14  1  0.20616600  0.63120800  0.14078000  1
  B  B15  1  0.70616600  0.86879200  0.14078000  1
  O  O16  1  0.17562600  0.75737200  0.04249000  1
  O  O17  1  0.18122600  0.01815200  0.90908500  1
  O  O18  1  0.67562600  0.74262800  0.04249000  1
  O  O19  1  0.68122600  0.48184800  0.90908500  1
  O  O20  1  0.37910900  0.11267600  0.69121300  1
  O  O21  1  0.25600700  0.61870400  0.67925600  1
  O  O22  1  0.87910900  0.38732400  0.69121300  1
  O  O23  1  0.21734200  0.90800200  0.48031000  1
  O  O24  1  0.75600700  0.88129600  0.67925600  1
  O  O25  1  0.28265800  0.40800200  0.51969000  1
  O  O26  1  0.71734200  0.59199800  0.48031000  1
  O  O27  1  0.24399300  0.11870400  0.32074400  1
  O  O28  1  0.78265800  0.09199800  0.51969000  1
  O  O29  1  0.12089100  0.61267600  0.30878700  1
  O  O30  1  0.74399300  0.38129600  0.32074400  1
  O  O31  1  0.62089100  0.88732400  0.30878700  1
  O  O32  1  0.31877400  0.51815200  0.09091500  1
  O  O33  1  0.32437400  0.25737200  0.95751000  1
  O  O34  1  0.81877400  0.98184800  0.09091500  1
  O  O35  1  0.82437400  0.24262800  0.95751000  1
