# generated using pymatgen
data_Ti5Cr(PO4)6
_symmetry_space_group_name_H-M   'P 1'
_cell_length_a   8.71680408
_cell_length_b   8.71680408
_cell_length_c   20.45763834
_cell_angle_alpha   90.00000000
_cell_angle_beta   90.00000000
_cell_angle_gamma   120.00000000
_symmetry_Int_Tables_number   1
_chemical_formula_structural   Ti5Cr(PO4)6
_chemical_formula_sum   'Ti15 Cr3 P18 O72'
_cell_volume   1346.17244824
_cell_formula_units_Z   3
loop_
 _symmetry_equiv_pos_site_id
 _symmetry_equiv_pos_as_xyz
  1  'x, y, z'
loop_
 _atom_site_type_symbol
 _atom_site_label
 _atom_site_symmetry_multiplicity
 _atom_site_fract_x
 _atom_site_fract_y
 _atom_site_fract_z
 _atom_site_occupancy
  Ti  Ti0  1  0.33333333  0.66666667  0.66385467  1
  Ti  Ti1  1  0.33333333  0.66666667  0.16707267  1
  Ti  Ti2  1  0.33333333  0.66666667  0.52509467  1
  Ti  Ti3  1  0.33333333  0.66666667  0.30785667  1
  Ti  Ti4  1  0.33333333  0.66666667  0.02670467  1
  Ti  Ti5  1  0.00000000  0.00000000  0.99718800  1
  Ti  Ti6  1  0.00000000  0.00000000  0.50040600  1
  Ti  Ti7  1  0.00000000  0.00000000  0.85842800  1
  Ti  Ti8  1  0.00000000  0.00000000  0.64119000  1
  Ti  Ti9  1  0.00000000  0.00000000  0.36003800  1
  Ti  Ti10  1  0.66666667  0.33333333  0.33052133  1
  Ti  Ti11  1  0.66666667  0.33333333  0.83373933  1
  Ti  Ti12  1  0.66666667  0.33333333  0.19176133  1
  Ti  Ti13  1  0.66666667  0.33333333  0.97452333  1
  Ti  Ti14  1  0.66666667  0.33333333  0.69337133  1
  Cr  Cr15  1  0.33333333  0.66666667  0.80843867  1
  Cr  Cr16  1  0.00000000  0.00000000  0.14177200  1
  Cr  Cr17  1  0.66666667  0.33333333  0.47510533  1
  P  P18  1  0.00119867  0.29109633  0.24959433  1
  P  P19  1  0.70890367  0.71010233  0.24959433  1
  P  P20  1  0.37162633  0.32984067  0.08369967  1
  P  P21  1  0.95821433  0.62837367  0.08369967  1
  P  P22  1  0.67015933  0.04178567  0.08369967  1
  P  P23  1  0.28989767  0.99880133  0.24959433  1
  P  P24  1  0.66786533  0.62442967  0.58292767  1
  P  P25  1  0.37557033  0.04343567  0.58292767  1
  P  P26  1  0.03829300  0.66317400  0.41703300  1
  P  P27  1  0.62488100  0.96170700  0.41703300  1
  P  P28  1  0.33682600  0.37511900  0.41703300  1
  P  P29  1  0.95656433  0.33213467  0.58292767  1
  P  P30  1  0.33453200  0.95776300  0.91626100  1
  P  P31  1  0.04223700  0.37676900  0.91626100  1
  P  P32  1  0.70495967  0.99650733  0.75036633  1
  P  P33  1  0.29154767  0.29504033  0.75036633  1
  P  P34  1  0.00349267  0.70845233  0.75036633  1
  P  P35  1  0.62323100  0.66546800  0.91626100  1
  O  O36  1  0.32783467  0.47014133  0.35555833  1
  O  O37  1  0.14230667  0.67216533  0.35555833  1
  O  O38  1  0.83514300  0.31575400  0.25838200  1
  O  O39  1  0.52985867  0.85769333  0.35555833  1
  O  O40  1  0.99770600  0.19513600  0.18757600  1
  O  O41  1  0.16545200  0.48313800  0.24167700  1
  O  O42  1  0.68424600  0.51938900  0.25838200  1
  O  O43  1  0.51686200  0.68231400  0.24167700  1
  O  O44  1  0.46836033  0.32377267  0.14507367  1
  O  O45  1  0.31768600  0.83454800  0.24167700  1
  O  O46  1  0.18250300  0.16525800  0.07381900  1
  O  O47  1  0.85541233  0.53163967  0.14507367  1
  O  O48  1  0.80486400  0.80257000  0.18757600  1
  O  O49  1  0.48061100  0.16485700  0.25838200  1
  O  O50  1  0.34911767  0.49635133  0.09306633  1
  O  O51  1  0.19743000  0.00229400  0.18757600  1
  O  O52  1  0.14723367  0.65088233  0.09306633  1
  O  O53  1  0.98275500  0.81749700  0.07381900  1
  O  O54  1  0.50364867  0.85276633  0.09306633  1
  O  O55  1  0.67622733  0.14458767  0.14507367  1
  O  O56  1  0.13558200  0.47692600  0.97854700  1
  O  O57  1  0.83474200  0.01724500  0.07381900  1
  O  O58  1  0.52307400  0.65865600  0.97854700  1
  O  O59  1  0.34134400  0.86441800  0.97854700  1
  O  O60  1  0.99450133  0.80347467  0.68889167  1
  O  O61  1  0.80897333  0.00549867  0.68889167  1
  O  O62  1  0.50180967  0.64908733  0.59171533  1
  O  O63  1  0.19652533  0.19102667  0.68889167  1
  O  O64  1  0.66437267  0.52846933  0.52090933  1
  O  O65  1  0.83211867  0.81647133  0.57501033  1
  O  O66  1  0.35091267  0.85272233  0.59171533  1
  O  O67  1  0.18352867  0.01564733  0.57501033  1
  O  O68  1  0.13502700  0.65710600  0.47840700  1
  O  O69  1  0.98435267  0.16788133  0.57501033  1
  O  O70  1  0.84916967  0.49859133  0.40715233  1
  O  O71  1  0.52207900  0.86497300  0.47840700  1
  O  O72  1  0.47153067  0.13590333  0.52090933  1
  O  O73  1  0.14727767  0.49819033  0.59171533  1
  O  O74  1  0.01578433  0.82968467  0.42639967  1
  O  O75  1  0.86409667  0.33562733  0.52090933  1
  O  O76  1  0.81390033  0.98421567  0.42639967  1
  O  O77  1  0.64942167  0.15083033  0.40715233  1
  O  O78  1  0.17031533  0.18609967  0.42639967  1
  O  O79  1  0.34289400  0.47792100  0.47840700  1
  O  O80  1  0.80224867  0.81025933  0.31188033  1
  O  O81  1  0.50140867  0.35057833  0.40715233  1
  O  O82  1  0.18974067  0.99198933  0.31188033  1
  O  O83  1  0.00801067  0.19775133  0.31188033  1
  O  O84  1  0.66116800  0.13680800  0.02222500  1
  O  O85  1  0.47564000  0.33883200  0.02222500  1
  O  O86  1  0.16847633  0.98242067  0.92504867  1
  O  O87  1  0.86319200  0.52436000  0.02222500  1
  O  O88  1  0.33103933  0.86180267  0.85424267  1
  O  O89  1  0.49878533  0.14980467  0.90834367  1
  O  O90  1  0.01757933  0.18605567  0.92504867  1
  O  O91  1  0.85019533  0.34898067  0.90834367  1
  O  O92  1  0.80169367  0.99043933  0.81174033  1
  O  O93  1  0.65101933  0.50121467  0.90834367  1
  O  O94  1  0.51583633  0.83192467  0.74048567  1
  O  O95  1  0.18874567  0.19830633  0.81174033  1
  O  O96  1  0.13819733  0.46923667  0.85424267  1
  O  O97  1  0.81394433  0.83152367  0.92504867  1
  O  O98  1  0.68245100  0.16301800  0.75973300  1
  O  O99  1  0.53076333  0.66896067  0.85424267  1
  O  O100  1  0.48056700  0.31754900  0.75973300  1
  O  O101  1  0.31608833  0.48416367  0.74048567  1
  O  O102  1  0.83698200  0.51943300  0.75973300  1
  O  O103  1  0.00956067  0.81125433  0.81174033  1
  O  O104  1  0.46891533  0.14359267  0.64521367  1
  O  O105  1  0.16807533  0.68391167  0.74048567  1
  O  O106  1  0.85640733  0.32532267  0.64521367  1
  O  O107  1  0.67467733  0.53108467  0.64521367  1
