# generated using pymatgen
data_GeWO4
_symmetry_space_group_name_H-M   'P 1'
_cell_length_a   7.40712100
_cell_length_b   7.40712100
_cell_length_c   7.40712100
_cell_angle_alpha   90.00000000
_cell_angle_beta   90.00000000
_cell_angle_gamma   90.00000000
_symmetry_Int_Tables_number   1
_chemical_formula_structural   GeWO4
_chemical_formula_sum   'Ge4 W4 O16'
_cell_volume   406.39496397
_cell_formula_units_Z   4
loop_
 _symmetry_equiv_pos_site_id
 _symmetry_equiv_pos_as_xyz
  1  'x, y, z'
loop_
 _atom_site_type_symbol
 _atom_site_label
 _atom_site_symmetry_multiplicity
 _atom_site_fract_x
 _atom_site_fract_y
 _atom_site_fract_z
 _atom_site_occupancy
  Ge  Ge0  1  0.18127100  0.31872900  0.68127100  1
  Ge  Ge1  1  0.31872900  0.68127100  0.18127100  1
  Ge  Ge2  1  0.68127100  0.18127100  0.31872900  1
  Ge  Ge3  1  0.81872900  0.81872900  0.81872900  1
  W  W4  1  0.16433400  0.16433400  0.16433400  1
  W  W5  1  0.33566600  0.83566600  0.66433400  1
  W  W6  1  0.66433400  0.33566600  0.83566600  1
  W  W7  1  0.83566600  0.66433400  0.33566600  1
  O  O8  1  0.05604300  0.63860500  0.22655300  1
  O  O9  1  0.13860500  0.27344700  0.94395700  1
  O  O10  1  0.19764800  0.69764800  0.80235200  1
  O  O11  1  0.22655300  0.05604300  0.63860500  1
  O  O12  1  0.27344700  0.94395700  0.13860500  1
  O  O13  1  0.30235200  0.30235200  0.30235200  1
  O  O14  1  0.36139500  0.72655300  0.44395700  1
  O  O15  1  0.44395700  0.36139500  0.72655300  1
  O  O16  1  0.55604300  0.86139500  0.77344700  1
  O  O17  1  0.63860500  0.22655300  0.05604300  1
  O  O18  1  0.69764800  0.80235200  0.19764800  1
  O  O19  1  0.72655300  0.44395700  0.36139500  1
  O  O20  1  0.77344700  0.55604300  0.86139500  1
  O  O21  1  0.80235200  0.19764800  0.69764800  1
  O  O22  1  0.86139500  0.77344700  0.55604300  1
  O  O23  1  0.94395700  0.13860500  0.27344700  1
