# generated using pymatgen
data_VPO4
_symmetry_space_group_name_H-M   'P 1'
_cell_length_a   4.78393004
_cell_length_b   6.58851805
_cell_length_c   8.79355000
_cell_angle_alpha   90.00000000
_cell_angle_beta   90.00000000
_cell_angle_gamma   90.00000000
_symmetry_Int_Tables_number   1
_chemical_formula_structural   VPO4
_chemical_formula_sum   'V4 P4 O16'
_cell_volume   277.16398528
_cell_formula_units_Z   4
loop_
 _symmetry_equiv_pos_site_id
 _symmetry_equiv_pos_as_xyz
  1  'x, y, z'
loop_
 _atom_site_type_symbol
 _atom_site_label
 _atom_site_symmetry_multiplicity
 _atom_site_fract_x
 _atom_site_fract_y
 _atom_site_fract_z
 _atom_site_occupancy
  V  V0  1  0.00000000  0.50000000  0.00000000  1
  V  V1  1  0.50000000  0.00000000  0.50000000  1
  V  V2  1  0.00000000  0.00000000  0.00000000  1
  V  V3  1  0.50000000  0.50000000  0.50000000  1
  P  P4  1  0.47586050  0.25000000  0.17603750  1
  P  P5  1  0.97586050  0.75000000  0.32396250  1
  P  P6  1  0.02413950  0.25000000  0.67603750  1
  P  P7  1  0.52413950  0.75000000  0.82396250  1
  O  O8  1  0.78484250  0.25000000  0.11653150  1
  O  O9  1  0.28484250  0.75000000  0.38346850  1
  O  O10  1  0.71515750  0.25000000  0.61653150  1
  O  O11  1  0.21515750  0.75000000  0.88346850  1
  O  O12  1  0.95003150  0.75000000  0.14515750  1
  O  O13  1  0.45003150  0.25000000  0.35484250  1
  O  O14  1  0.54996850  0.75000000  0.64515750  1
  O  O15  1  0.04996850  0.25000000  0.85484250  1
  O  O16  1  0.33172550  0.05520150  0.12156950  1
  O  O17  1  0.33172550  0.44479850  0.12156950  1
  O  O18  1  0.83172550  0.55520150  0.37843050  1
  O  O19  1  0.83172550  0.94479850  0.37843050  1
  O  O20  1  0.16827450  0.05520150  0.62156950  1
  O  O21  1  0.16827450  0.44479850  0.62156950  1
  O  O22  1  0.66827450  0.55520150  0.87843050  1
  O  O23  1  0.66827450  0.94479850  0.87843050  1
