# generated using pymatgen
data_Al11TlO17
_symmetry_space_group_name_H-M   'P 1'
_cell_length_a   5.65335600
_cell_length_b   9.79447400
_cell_length_c   23.08250700
_cell_angle_alpha   90.00000000
_cell_angle_beta   90.00000000
_cell_angle_gamma   90.00000000
_symmetry_Int_Tables_number   1
_chemical_formula_structural   Al11TlO17
_chemical_formula_sum   'Al44 Tl4 O68'
_cell_volume   1278.11646075
_cell_formula_units_Z   4
loop_
 _symmetry_equiv_pos_site_id
 _symmetry_equiv_pos_as_xyz
  1  'x, y, z'
loop_
 _atom_site_type_symbol
 _atom_site_label
 _atom_site_symmetry_multiplicity
 _atom_site_fract_x
 _atom_site_fract_y
 _atom_site_fract_z
 _atom_site_occupancy
  Al  Al0  1  0.24907150  0.41628650  0.60538600  1
  Al  Al1  1  0.24907150  0.41628650  0.89461400  1
  Al  Al2  1  0.99929200  0.33309200  0.32480100  1
  Al  Al3  1  0.00004900  0.33332200  0.47528700  1
  Al  Al4  1  0.99929200  0.33309200  0.17519900  1
  Al  Al5  1  0.99985300  0.00000000  0.50000000  1
  Al  Al6  1  0.99985300  0.00000000  0.00000000  1
  Al  Al7  1  0.00004900  0.33332200  0.02471300  1
  Al  Al8  1  0.00008550  0.16728450  0.89461800  1
  Al  Al9  1  0.00008550  0.16728450  0.60538200  1
  Al  Al10  1  0.75088850  0.41635650  0.89484600  1
  Al  Al11  1  0.75088850  0.41635650  0.60515400  1
  Al  Al12  1  0.74907150  0.08371350  0.10538600  1
  Al  Al13  1  0.74907150  0.08371350  0.39461400  1
  Al  Al14  1  0.50008550  0.33271550  0.10538200  1
  Al  Al15  1  0.49929200  0.16690800  0.82480100  1
  Al  Al16  1  0.49929200  0.16690800  0.67519900  1
  Al  Al17  1  0.50004900  0.16667800  0.52471300  1
  Al  Al18  1  0.50004900  0.16667800  0.97528700  1
  Al  Al19  1  0.50008550  0.33271550  0.39461800  1
  Al  Al20  1  0.25088850  0.08364350  0.39484600  1
  Al  Al21  1  0.25088850  0.08364350  0.10515400  1
  Al  Al22  1  0.74907150  0.91628650  0.60538600  1
  Al  Al23  1  0.74907150  0.91628650  0.89461400  1
  Al  Al24  1  0.49929200  0.83309200  0.32480100  1
  Al  Al25  1  0.50004900  0.83332200  0.47528700  1
  Al  Al26  1  0.49929200  0.83309200  0.17519900  1
  Al  Al27  1  0.49985300  0.50000000  0.50000000  1
  Al  Al28  1  0.49985300  0.50000000  0.00000000  1
  Al  Al29  1  0.50004900  0.83332200  0.02471300  1
  Al  Al30  1  0.50008550  0.66728450  0.89461800  1
  Al  Al31  1  0.50008550  0.66728450  0.60538200  1
  Al  Al32  1  0.25088850  0.91635650  0.89484600  1
  Al  Al33  1  0.25088850  0.91635650  0.60515400  1
  Al  Al34  1  0.24907150  0.58371350  0.10538600  1
  Al  Al35  1  0.24907150  0.58371350  0.39461400  1
  Al  Al36  1  0.00008550  0.83271550  0.10538200  1
  Al  Al37  1  0.99929200  0.66690800  0.82480100  1
  Al  Al38  1  0.99929200  0.66690800  0.67519900  1
  Al  Al39  1  0.00004900  0.66667800  0.52471300  1
  Al  Al40  1  0.00004900  0.66667800  0.97528700  1
  Al  Al41  1  0.00008550  0.83271550  0.39461800  1
  Al  Al42  1  0.75088850  0.58364350  0.39484600  1
  Al  Al43  1  0.75088850  0.58364350  0.10515400  1
  Tl  Tl44  1  0.98166300  0.33945000  0.75000000  1
  Tl  Tl45  1  0.48166300  0.16055000  0.25000000  1
  Tl  Tl46  1  0.48166300  0.83945000  0.75000000  1
  Tl  Tl47  1  0.98166300  0.66055000  0.25000000  1
  O  O48  1  0.26440550  0.42145750  0.45098200  1
  O  O49  1  0.26440550  0.42145750  0.04901800  1
  O  O50  1  0.24732200  0.25088800  0.64363300  1
  O  O51  1  0.24732200  0.25088800  0.85636700  1
  O  O52  1  0.00077000  0.33356800  0.25000000  1
  O  O53  1  0.00004900  0.15705500  0.04898700  1
  O  O54  1  0.99996550  0.33332550  0.55481000  1
  O  O55  1  0.00014000  0.00002900  0.36043400  1
  O  O56  1  0.00014000  0.00002900  0.13956600  1
  O  O57  1  0.50014000  0.49997100  0.86043400  1
  O  O58  1  0.50014000  0.49997100  0.63956600  1
  O  O59  1  0.99996550  0.33332550  0.94519000  1
  O  O60  1  0.99976100  0.49863400  0.64355700  1
  O  O61  1  0.00004900  0.15705500  0.45101300  1
  O  O62  1  0.99976100  0.49863400  0.85644300  1
  O  O63  1  0.76440550  0.07854250  0.95098200  1
  O  O64  1  0.76440550  0.07854250  0.54901800  1
  O  O65  1  0.75193000  0.25079800  0.64355300  1
  O  O66  1  0.75193000  0.25079800  0.85644700  1
  O  O67  1  0.74732200  0.24911200  0.35636700  1
  O  O68  1  0.74732200  0.24911200  0.14363300  1
  O  O69  1  0.73560650  0.42145250  0.45101100  1
  O  O70  1  0.73560650  0.42145250  0.04898900  1
  O  O71  1  0.49976100  0.00136600  0.14355700  1
  O  O72  1  0.50077000  0.16643200  0.75000000  1
  O  O73  1  0.49996550  0.16667450  0.05481000  1
  O  O74  1  0.49976100  0.00136600  0.35644300  1
  O  O75  1  0.50004900  0.34294500  0.54898700  1
  O  O76  1  0.50004900  0.34294500  0.95101300  1
  O  O77  1  0.49996550  0.16667450  0.44519000  1
  O  O78  1  0.25193000  0.24920200  0.35644700  1
  O  O79  1  0.25193000  0.24920200  0.14355300  1
  O  O80  1  0.23560650  0.07854750  0.95101100  1
  O  O81  1  0.23560650  0.07854750  0.54898900  1
  O  O82  1  0.76440550  0.92145750  0.45098200  1
  O  O83  1  0.76440550  0.92145750  0.04901800  1
  O  O84  1  0.74732200  0.75088800  0.64363300  1
  O  O85  1  0.74732200  0.75088800  0.85636700  1
  O  O86  1  0.50077000  0.83356800  0.25000000  1
  O  O87  1  0.50004900  0.65705500  0.04898700  1
  O  O88  1  0.49996550  0.83332550  0.55481000  1
  O  O89  1  0.50014000  0.50002900  0.36043400  1
  O  O90  1  0.50014000  0.50002900  0.13956600  1
  O  O91  1  0.00014000  0.99997100  0.86043400  1
  O  O92  1  0.00014000  0.99997100  0.63956600  1
  O  O93  1  0.49996550  0.83332550  0.94519000  1
  O  O94  1  0.49976100  0.99863400  0.64355700  1
  O  O95  1  0.50004900  0.65705500  0.45101300  1
  O  O96  1  0.49976100  0.99863400  0.85644300  1
  O  O97  1  0.26440550  0.57854250  0.95098200  1
  O  O98  1  0.26440550  0.57854250  0.54901800  1
  O  O99  1  0.25193000  0.75079800  0.64355300  1
  O  O100  1  0.25193000  0.75079800  0.85644700  1
  O  O101  1  0.24732200  0.74911200  0.35636700  1
  O  O102  1  0.24732200  0.74911200  0.14363300  1
  O  O103  1  0.23560650  0.92145250  0.45101100  1
  O  O104  1  0.23560650  0.92145250  0.04898900  1
  O  O105  1  0.99976100  0.50136600  0.14355700  1
  O  O106  1  0.00077000  0.66643200  0.75000000  1
  O  O107  1  0.99996550  0.66667450  0.05481000  1
  O  O108  1  0.99976100  0.50136600  0.35644300  1
  O  O109  1  0.00004900  0.84294500  0.54898700  1
  O  O110  1  0.00004900  0.84294500  0.95101300  1
  O  O111  1  0.99996550  0.66667450  0.44519000  1
  O  O112  1  0.75193000  0.74920200  0.35644700  1
  O  O113  1  0.75193000  0.74920200  0.14355300  1
  O  O114  1  0.73560650  0.57854750  0.95101100  1
  O  O115  1  0.73560650  0.57854750  0.54898900  1
