# generated using pymatgen
data_KCa(H2N)3
_symmetry_space_group_name_H-M   'P 1'
_cell_length_a   6.61162000
_cell_length_b   11.87149400
_cell_length_c   6.68393360
_cell_angle_alpha   90.00000000
_cell_angle_beta   106.55554795
_cell_angle_gamma   90.00000000
_symmetry_Int_Tables_number   1
_chemical_formula_structural   KCa(H2N)3
_chemical_formula_sum   'K4 Ca4 H24 N12'
_cell_volume   502.87195007
_cell_formula_units_Z   4
loop_
 _symmetry_equiv_pos_site_id
 _symmetry_equiv_pos_as_xyz
  1  'x, y, z'
loop_
 _atom_site_type_symbol
 _atom_site_label
 _atom_site_symmetry_multiplicity
 _atom_site_fract_x
 _atom_site_fract_y
 _atom_site_fract_z
 _atom_site_occupancy
  K  K0  1  0.86709400  0.09194600  0.26228100  1
  K  K1  1  0.36709400  0.40805400  0.26228100  1
  K  K2  1  0.63290600  0.59194600  0.73771900  1
  K  K3  1  0.13290600  0.90805400  0.73771900  1
  Ca  Ca4  1  0.91575800  0.76214100  0.18209900  1
  Ca  Ca5  1  0.41575800  0.73785900  0.18209900  1
  Ca  Ca6  1  0.58424200  0.26214100  0.81790100  1
  Ca  Ca7  1  0.08424200  0.23785900  0.81790100  1
  H  H8  1  0.91330000  0.41713700  0.03731200  1
  H  H9  1  0.41330000  0.08286300  0.03731200  1
  H  H10  1  0.67580900  0.51059500  0.12542100  1
  H  H11  1  0.90461000  0.33004100  0.21775100  1
  H  H12  1  0.17580900  0.98940500  0.12542100  1
  H  H13  1  0.40461000  0.16995900  0.21775100  1
  H  H14  1  0.76795500  0.57230400  0.34360800  1
  H  H15  1  0.70345400  0.28446500  0.41914300  1
  H  H16  1  0.65529400  0.89163000  0.47998600  1
  H  H17  1  0.26795500  0.92769600  0.34360800  1
  H  H18  1  0.84470600  0.39163000  0.52001400  1
  H  H19  1  0.20345400  0.21553500  0.41914300  1
  H  H20  1  0.79654600  0.78446500  0.58085700  1
  H  H21  1  0.15529400  0.60837000  0.47998600  1
  H  H22  1  0.73204500  0.07230400  0.65639200  1
  H  H23  1  0.34470600  0.10837000  0.52001400  1
  H  H24  1  0.29654600  0.71553500  0.58085700  1
  H  H25  1  0.23204500  0.42769600  0.65639200  1
  H  H26  1  0.59539000  0.83004100  0.78224900  1
  H  H27  1  0.82419100  0.01059500  0.87457900  1
  H  H28  1  0.09539000  0.66995900  0.78224900  1
  H  H29  1  0.32419100  0.48940500  0.87457900  1
  H  H30  1  0.58670000  0.91713700  0.96268800  1
  H  H31  1  0.08670000  0.58286300  0.96268800  1
  N  N32  1  0.92121900  0.33232900  0.06910600  1
  N  N33  1  0.42121900  0.16767100  0.06910600  1
  N  N34  1  0.66809900  0.58649400  0.19614400  1
  N  N35  1  0.16809900  0.91350600  0.19614400  1
  N  N36  1  0.73308900  0.82411100  0.43975500  1
  N  N37  1  0.23308900  0.67588900  0.43975500  1
  N  N38  1  0.76691100  0.32411100  0.56024500  1
  N  N39  1  0.26691100  0.17588900  0.56024500  1
  N  N40  1  0.83190100  0.08649400  0.80385600  1
  N  N41  1  0.33190100  0.41350600  0.80385600  1
  N  N42  1  0.57878100  0.83232900  0.93089400  1
  N  N43  1  0.07878100  0.66767100  0.93089400  1
