# generated using pymatgen
data_Mn6OF11
_symmetry_space_group_name_H-M   'P 1'
_cell_length_a   5.89226400
_cell_length_b   4.96652000
_cell_length_c   16.19399237
_cell_angle_alpha   90.00000000
_cell_angle_beta   90.44177366
_cell_angle_gamma   90.00000000
_symmetry_Int_Tables_number   1
_chemical_formula_structural   Mn6OF11
_chemical_formula_sum   'Mn12 O2 F22'
_cell_volume   473.88766702
_cell_formula_units_Z   2
loop_
 _symmetry_equiv_pos_site_id
 _symmetry_equiv_pos_as_xyz
  1  'x, y, z'
loop_
 _atom_site_type_symbol
 _atom_site_label
 _atom_site_symmetry_multiplicity
 _atom_site_fract_x
 _atom_site_fract_y
 _atom_site_fract_z
 _atom_site_occupancy
  Mn  Mn0  1  0.07970100  0.49917900  0.91650100  1
  Mn  Mn1  1  0.42006800  0.48765600  0.08726800  1
  Mn  Mn2  1  0.06218100  0.52375100  0.25551900  1
  Mn  Mn3  1  0.07962400  0.47988800  0.58699900  1
  Mn  Mn4  1  0.39499900  0.49198400  0.74644300  1
  Mn  Mn5  1  0.41673800  0.50335700  0.41658300  1
  Mn  Mn6  1  0.93781900  0.02375100  0.74448100  1
  Mn  Mn7  1  0.92037600  0.97988800  0.41300100  1
  Mn  Mn8  1  0.92029900  0.99917900  0.08349900  1
  Mn  Mn9  1  0.60500100  0.99198400  0.25355700  1
  Mn  Mn10  1  0.57993200  0.98765600  0.91273200  1
  Mn  Mn11  1  0.58326200  0.00335700  0.58341700  1
  O  O12  1  0.16065800  0.29352600  0.69783500  1
  O  O13  1  0.83934200  0.79352600  0.30216500  1
  F  F14  1  0.14654500  0.26729200  0.02643400  1
  F  F15  1  0.13485300  0.28301500  0.36030100  1
  F  F16  1  0.37564100  0.24894300  0.19980900  1
  F  F17  1  0.36184800  0.27903100  0.85736700  1
  F  F18  1  0.35950500  0.26884600  0.52478200  1
  F  F19  1  0.85634000  0.23879400  0.19123700  1
  F  F20  1  0.64329700  0.22642600  0.02472400  1
  F  F21  1  0.85800200  0.21629600  0.85963600  1
  F  F22  1  0.64477500  0.24055800  0.69423700  1
  F  F23  1  0.85977000  0.22191000  0.52178700  1
  F  F24  1  0.63290700  0.22954700  0.35690200  1
  F  F25  1  0.63815200  0.77903100  0.14263300  1
  F  F26  1  0.85345500  0.76729200  0.97356600  1
  F  F27  1  0.62435900  0.74894300  0.80019100  1
  F  F28  1  0.64049500  0.76884600  0.47521800  1
  F  F29  1  0.86514700  0.78301500  0.63969900  1
  F  F30  1  0.14199800  0.71629600  0.14036400  1
  F  F31  1  0.14366000  0.73879400  0.80876300  1
  F  F32  1  0.35670300  0.72642600  0.97527600  1
  F  F33  1  0.35522500  0.74055800  0.30576300  1
  F  F34  1  0.14023000  0.72191000  0.47821300  1
  F  F35  1  0.36709300  0.72954700  0.64309800  1
