# generated using pymatgen
data_La2MgO4
_symmetry_space_group_name_H-M   'P 1'
_cell_length_a   3.93271400
_cell_length_b   3.93271400
_cell_length_c   12.54359200
_cell_angle_alpha   90.00000000
_cell_angle_beta   90.00000000
_cell_angle_gamma   90.00000000
_symmetry_Int_Tables_number   1
_chemical_formula_structural   La2MgO4
_chemical_formula_sum   'La4 Mg2 O8'
_cell_volume   194.00219688
_cell_formula_units_Z   2
loop_
 _symmetry_equiv_pos_site_id
 _symmetry_equiv_pos_as_xyz
  1  'x, y, z'
loop_
 _atom_site_type_symbol
 _atom_site_label
 _atom_site_symmetry_multiplicity
 _atom_site_fract_x
 _atom_site_fract_y
 _atom_site_fract_z
 _atom_site_occupancy
  La  La0  1  0.50000000  0.50000000  0.13728600  1
  La  La1  1  0.00000000  0.00000000  0.36271400  1
  La  La2  1  0.00000000  0.00000000  0.63728600  1
  La  La3  1  0.50000000  0.50000000  0.86271400  1
  Mg  Mg4  1  0.00000000  0.00000000  0.00000000  1
  Mg  Mg5  1  0.50000000  0.50000000  0.50000000  1
  O  O6  1  0.00000000  0.50000000  0.00000000  1
  O  O7  1  0.50000000  0.00000000  0.00000000  1
  O  O8  1  0.50000000  0.50000000  0.32136000  1
  O  O9  1  0.00000000  0.00000000  0.17864000  1
  O  O10  1  0.50000000  0.00000000  0.50000000  1
  O  O11  1  0.00000000  0.50000000  0.50000000  1
  O  O12  1  0.00000000  0.00000000  0.82136000  1
  O  O13  1  0.50000000  0.50000000  0.67864000  1
