# generated using pymatgen
data_VO2F
_symmetry_space_group_name_H-M   'P 1'
_cell_length_a   5.04270300
_cell_length_b   5.23480727
_cell_length_c   12.53016418
_cell_angle_alpha   88.83632027
_cell_angle_beta   88.16001034
_cell_angle_gamma   63.12623088
_symmetry_Int_Tables_number   1
_chemical_formula_structural   VO2F
_chemical_formula_sum   'V6 O12 F6'
_cell_volume   294.88641830
_cell_formula_units_Z   6
loop_
 _symmetry_equiv_pos_site_id
 _symmetry_equiv_pos_as_xyz
  1  'x, y, z'
loop_
 _atom_site_type_symbol
 _atom_site_label
 _atom_site_symmetry_multiplicity
 _atom_site_fract_x
 _atom_site_fract_y
 _atom_site_fract_z
 _atom_site_occupancy
  V  V0  1  0.37280700  0.31924900  0.33996500  1
  V  V1  1  0.27437700  0.39318400  0.84022700  1
  V  V2  1  0.72562300  0.60681600  0.15977300  1
  V  V3  1  0.62719300  0.68075100  0.66003500  1
  V  V4  1  0.00000000  0.00000000  0.50000000  1
  V  V5  1  0.00000000  0.00000000  0.00000000  1
  O  O6  1  0.48495100  0.47042800  0.72079100  1
  O  O7  1  0.60382200  0.19142300  0.44806800  1
  O  O8  1  0.25028000  0.67130600  0.91899400  1
  O  O9  1  0.86687300  0.86315000  0.60890200  1
  O  O10  1  0.05107500  0.46562000  0.21924200  1
  O  O11  1  0.20262500  0.18265500  0.94439900  1
  O  O12  1  0.79737500  0.81734500  0.05560100  1
  O  O13  1  0.94892500  0.53438000  0.78075800  1
  O  O14  1  0.13312700  0.13685000  0.39109800  1
  O  O15  1  0.74972000  0.32869400  0.08100600  1
  O  O16  1  0.39617800  0.80857700  0.55193200  1
  O  O17  1  0.51504900  0.52957200  0.27920900  1
  F  F18  1  0.73560400  0.13514700  0.88446800  1
  F  F19  1  0.06842700  0.66110000  0.41792100  1
  F  F20  1  0.59107900  0.00815500  0.25195800  1
  F  F21  1  0.93157300  0.33890000  0.58207900  1
  F  F22  1  0.40892100  0.99184500  0.74804200  1
  F  F23  1  0.26439600  0.86485300  0.11553200  1
