# generated using pymatgen
data_Mn6OF11
_symmetry_space_group_name_H-M   'P 1'
_cell_length_a   7.50909600
_cell_length_b   7.39689800
_cell_length_c   15.62250306
_cell_angle_alpha   90.00000000
_cell_angle_beta   92.06272646
_cell_angle_gamma   90.00000000
_symmetry_Int_Tables_number   1
_chemical_formula_structural   Mn6OF11
_chemical_formula_sum   'Mn24 O4 F44'
_cell_volume   867.17430301
_cell_formula_units_Z   4
loop_
 _symmetry_equiv_pos_site_id
 _symmetry_equiv_pos_as_xyz
  1  'x, y, z'
loop_
 _atom_site_type_symbol
 _atom_site_label
 _atom_site_symmetry_multiplicity
 _atom_site_fract_x
 _atom_site_fract_y
 _atom_site_fract_z
 _atom_site_occupancy
  Mn  Mn0  1  0.50066500  0.50000000  0.00091300  1
  Mn  Mn1  1  0.75728850  0.24487150  0.16964400  1
  Mn  Mn2  1  0.46040000  0.50000000  0.32908100  1
  Mn  Mn3  1  0.74042750  0.26558550  0.50118600  1
  Mn  Mn4  1  0.50315800  0.50000000  0.66530900  1
  Mn  Mn5  1  0.24933450  0.74725650  0.83269900  1
  Mn  Mn6  1  0.75728850  0.75512850  0.16964400  1
  Mn  Mn7  1  0.00016100  0.50000000  0.00149100  1
  Mn  Mn8  1  0.98226100  0.50000000  0.65643400  1
  Mn  Mn9  1  0.74042750  0.73441450  0.50118600  1
  Mn  Mn10  1  0.02608900  0.50000000  0.32745600  1
  Mn  Mn11  1  0.24933450  0.25274350  0.83269900  1
  Mn  Mn12  1  0.00066500  0.00000000  0.00091300  1
  Mn  Mn13  1  0.25728850  0.74487150  0.16964400  1
  Mn  Mn14  1  0.96040000  0.00000000  0.32908100  1
  Mn  Mn15  1  0.24042750  0.76558550  0.50118600  1
  Mn  Mn16  1  0.00315800  0.00000000  0.66530900  1
  Mn  Mn17  1  0.74933450  0.24725650  0.83269900  1
  Mn  Mn18  1  0.25728850  0.25512850  0.16964400  1
  Mn  Mn19  1  0.50016100  0.00000000  0.00149100  1
  Mn  Mn20  1  0.48226100  0.00000000  0.65643400  1
  Mn  Mn21  1  0.24042750  0.23441450  0.50118600  1
  Mn  Mn22  1  0.52608900  0.00000000  0.32745600  1
  Mn  Mn23  1  0.74933450  0.75274350  0.83269900  1
  O  O24  1  0.77945800  0.50000000  0.58029500  1
  O  O25  1  0.25430800  0.50000000  0.25707200  1
  O  O26  1  0.27945800  0.00000000  0.58029500  1
  O  O27  1  0.75430800  0.00000000  0.25707200  1
  F  F28  1  0.02395550  0.21596250  0.25446000  1
  F  F29  1  0.73269100  0.50000000  0.08434100  1
  F  F30  1  0.99401750  0.22083350  0.58031500  1
  F  F31  1  0.67165400  0.50000000  0.40862600  1
  F  F32  1  0.99897850  0.22998450  0.91396700  1
  F  F33  1  0.72534300  0.50000000  0.75292400  1
  F  F34  1  0.00057250  0.26733750  0.08668800  1
  F  F35  1  0.80548000  0.50000000  0.24438000  1
  F  F36  1  0.76784500  0.50000000  0.91720800  1
  F  F37  1  0.00304700  0.28491700  0.74587700  1
  F  F38  1  0.98541700  0.30006600  0.42059800  1
  F  F39  1  0.22790300  0.50000000  0.91636000  1
  F  F40  1  0.20968800  0.50000000  0.58490700  1
  F  F41  1  0.00057250  0.73266250  0.08668800  1
  F  F42  1  0.98541700  0.69993400  0.42059800  1
  F  F43  1  0.00304700  0.71508300  0.74587700  1
  F  F44  1  0.29143300  0.50000000  0.42718200  1
  F  F45  1  0.26749600  0.50000000  0.08309100  1
  F  F46  1  0.28788800  0.50000000  0.75205800  1
  F  F47  1  0.99401750  0.77916650  0.58031500  1
  F  F48  1  0.99897850  0.77001550  0.91396700  1
  F  F49  1  0.02395550  0.78403750  0.25446000  1
  F  F50  1  0.52395550  0.71596250  0.25446000  1
  F  F51  1  0.23269100  0.00000000  0.08434100  1
  F  F52  1  0.49401750  0.72083350  0.58031500  1
  F  F53  1  0.17165400  0.00000000  0.40862600  1
  F  F54  1  0.49897850  0.72998450  0.91396700  1
  F  F55  1  0.22534300  0.00000000  0.75292400  1
  F  F56  1  0.50057250  0.76733750  0.08668800  1
  F  F57  1  0.30548000  0.00000000  0.24438000  1
  F  F58  1  0.26784500  0.00000000  0.91720800  1
  F  F59  1  0.50304700  0.78491700  0.74587700  1
  F  F60  1  0.48541700  0.80006600  0.42059800  1
  F  F61  1  0.72790300  0.00000000  0.91636000  1
  F  F62  1  0.70968800  0.00000000  0.58490700  1
  F  F63  1  0.50057250  0.23266250  0.08668800  1
  F  F64  1  0.48541700  0.19993400  0.42059800  1
  F  F65  1  0.50304700  0.21508300  0.74587700  1
  F  F66  1  0.79143300  0.00000000  0.42718200  1
  F  F67  1  0.76749600  0.00000000  0.08309100  1
  F  F68  1  0.78788800  0.00000000  0.75205800  1
  F  F69  1  0.49401750  0.27916650  0.58031500  1
  F  F70  1  0.49897850  0.27001550  0.91396700  1
  F  F71  1  0.52395550  0.28403750  0.25446000  1
