# generated using pymatgen
data_CaTb2O4
_symmetry_space_group_name_H-M   'P 1'
_cell_length_a   3.40273300
_cell_length_b   9.99029000
_cell_length_c   11.86285200
_cell_angle_alpha   90.00000000
_cell_angle_beta   90.00000000
_cell_angle_gamma   90.00000000
_symmetry_Int_Tables_number   1
_chemical_formula_structural   CaTb2O4
_chemical_formula_sum   'Ca4 Tb8 O16'
_cell_volume   403.26922474
_cell_formula_units_Z   4
loop_
 _symmetry_equiv_pos_site_id
 _symmetry_equiv_pos_as_xyz
  1  'x, y, z'
loop_
 _atom_site_type_symbol
 _atom_site_label
 _atom_site_symmetry_multiplicity
 _atom_site_fract_x
 _atom_site_fract_y
 _atom_site_fract_z
 _atom_site_occupancy
  Ca  Ca0  1  0.75000000  0.74974200  0.14879500  1
  Ca  Ca1  1  0.25000000  0.75025800  0.64879500  1
  Ca  Ca2  1  0.75000000  0.24974200  0.35120500  1
  Ca  Ca3  1  0.25000000  0.25025800  0.85120500  1
  Tb  Tb4  1  0.75000000  0.57837700  0.88849700  1
  Tb  Tb5  1  0.75000000  0.57859400  0.38626800  1
  Tb  Tb6  1  0.25000000  0.92140600  0.88626800  1
  Tb  Tb7  1  0.25000000  0.92162300  0.38849700  1
  Tb  Tb8  1  0.75000000  0.07837700  0.61150300  1
  Tb  Tb9  1  0.75000000  0.07859400  0.11373200  1
  Tb  Tb10  1  0.25000000  0.42140600  0.61373200  1
  Tb  Tb11  1  0.25000000  0.42162300  0.11150300  1
  O  O12  1  0.25000000  0.52045500  0.78227900  1
  O  O13  1  0.75000000  0.57821600  0.57940500  1
  O  O14  1  0.25000000  0.63280200  0.02371000  1
  O  O15  1  0.25000000  0.71105100  0.31266000  1
  O  O16  1  0.75000000  0.78894900  0.81266000  1
  O  O17  1  0.75000000  0.86719800  0.52371000  1
  O  O18  1  0.25000000  0.92178400  0.07940500  1
  O  O19  1  0.75000000  0.97954500  0.28227900  1
  O  O20  1  0.25000000  0.02045500  0.71772100  1
  O  O21  1  0.75000000  0.07821600  0.92059500  1
  O  O22  1  0.25000000  0.13280200  0.47629000  1
  O  O23  1  0.25000000  0.21105100  0.18734000  1
  O  O24  1  0.75000000  0.28894900  0.68734000  1
  O  O25  1  0.75000000  0.36719800  0.97629000  1
  O  O26  1  0.25000000  0.42178400  0.42059500  1
  O  O27  1  0.75000000  0.47954500  0.21772100  1
