# generated using pymatgen
data_Ba4Ti3O10
_symmetry_space_group_name_H-M   'P 1'
_cell_length_a   5.78003600
_cell_length_b   5.80592400
_cell_length_c   29.37747200
_cell_angle_alpha   90.00000000
_cell_angle_beta   90.00000000
_cell_angle_gamma   90.00000000
_symmetry_Int_Tables_number   1
_chemical_formula_structural   Ba4Ti3O10
_chemical_formula_sum   'Ba16 Ti12 O40'
_cell_volume   985.86241740
_cell_formula_units_Z   4
loop_
 _symmetry_equiv_pos_site_id
 _symmetry_equiv_pos_as_xyz
  1  'x, y, z'
loop_
 _atom_site_type_symbol
 _atom_site_label
 _atom_site_symmetry_multiplicity
 _atom_site_fract_x
 _atom_site_fract_y
 _atom_site_fract_z
 _atom_site_occupancy
  Ba  Ba0  1  0.50000000  0.99231700  0.43235700  1
  Ba  Ba1  1  0.50000000  0.99469450  0.29870150  1
  Ba  Ba2  1  0.00000000  0.99231700  0.06764300  1
  Ba  Ba3  1  0.00000000  0.99469450  0.20129850  1
  Ba  Ba4  1  0.50000000  0.49231700  0.93235700  1
  Ba  Ba5  1  0.50000000  0.49469450  0.79870150  1
  Ba  Ba6  1  0.00000000  0.49231700  0.56764300  1
  Ba  Ba7  1  0.00000000  0.49469450  0.70129850  1
  Ba  Ba8  1  0.00000000  0.49231700  0.43235700  1
  Ba  Ba9  1  0.00000000  0.49469450  0.29870150  1
  Ba  Ba10  1  0.50000000  0.49231700  0.06764300  1
  Ba  Ba11  1  0.50000000  0.49469450  0.20129850  1
  Ba  Ba12  1  0.00000000  0.99231700  0.93235700  1
  Ba  Ba13  1  0.00000000  0.99469450  0.79870150  1
  Ba  Ba14  1  0.50000000  0.99231700  0.56764300  1
  Ba  Ba15  1  0.50000000  0.99469450  0.70129850  1
  Ti  Ti16  1  0.50000000  0.97593500  0.00000000  1
  Ti  Ti17  1  0.50000000  0.97742600  0.13733400  1
  Ti  Ti18  1  0.00000000  0.97742600  0.36266600  1
  Ti  Ti19  1  0.50000000  0.47593500  0.50000000  1
  Ti  Ti20  1  0.50000000  0.47742600  0.63733400  1
  Ti  Ti21  1  0.00000000  0.47742600  0.86266600  1
  Ti  Ti22  1  0.00000000  0.47593500  0.00000000  1
  Ti  Ti23  1  0.00000000  0.47742600  0.13733400  1
  Ti  Ti24  1  0.50000000  0.47742600  0.36266600  1
  Ti  Ti25  1  0.00000000  0.97593500  0.50000000  1
  Ti  Ti26  1  0.00000000  0.97742600  0.63733400  1
  Ti  Ti27  1  0.50000000  0.97742600  0.86266600  1
  O  O28  1  0.00000000  0.00982350  0.29637550  1
  O  O29  1  0.50000000  0.00863150  0.06808050  1
  O  O30  1  0.74173450  0.76376350  0.00000000  1
  O  O31  1  0.25826550  0.76376350  0.00000000  1
  O  O32  1  0.24158800  0.26027450  0.13697950  1
  O  O33  1  0.25841200  0.76027450  0.13697950  1
  O  O34  1  0.24158800  0.76027450  0.36302050  1
  O  O35  1  0.25841200  0.26027450  0.36302050  1
  O  O36  1  0.50000000  0.00982350  0.20362450  1
  O  O37  1  0.00000000  0.00863150  0.43191950  1
  O  O38  1  0.00000000  0.50982350  0.79637550  1
  O  O39  1  0.50000000  0.50863150  0.56808050  1
  O  O40  1  0.74173450  0.26376350  0.50000000  1
  O  O41  1  0.25826550  0.26376350  0.50000000  1
  O  O42  1  0.24158800  0.76027450  0.63697950  1
  O  O43  1  0.25841200  0.26027450  0.63697950  1
  O  O44  1  0.24158800  0.26027450  0.86302050  1
  O  O45  1  0.25841200  0.76027450  0.86302050  1
  O  O46  1  0.50000000  0.50982350  0.70362450  1
  O  O47  1  0.00000000  0.50863150  0.93191950  1
  O  O48  1  0.50000000  0.50982350  0.29637550  1
  O  O49  1  0.00000000  0.50863150  0.06808050  1
  O  O50  1  0.24173450  0.26376350  0.00000000  1
  O  O51  1  0.75826550  0.26376350  0.00000000  1
  O  O52  1  0.74158800  0.76027450  0.13697950  1
  O  O53  1  0.75841200  0.26027450  0.13697950  1
  O  O54  1  0.74158800  0.26027450  0.36302050  1
  O  O55  1  0.75841200  0.76027450  0.36302050  1
  O  O56  1  0.00000000  0.50982350  0.20362450  1
  O  O57  1  0.50000000  0.50863150  0.43191950  1
  O  O58  1  0.50000000  0.00982350  0.79637550  1
  O  O59  1  0.00000000  0.00863150  0.56808050  1
  O  O60  1  0.24173450  0.76376350  0.50000000  1
  O  O61  1  0.75826550  0.76376350  0.50000000  1
  O  O62  1  0.74158800  0.26027450  0.63697950  1
  O  O63  1  0.75841200  0.76027450  0.63697950  1
  O  O64  1  0.74158800  0.76027450  0.86302050  1
  O  O65  1  0.75841200  0.26027450  0.86302050  1
  O  O66  1  0.00000000  0.00982350  0.70362450  1
  O  O67  1  0.50000000  0.00863150  0.93191950  1
