# generated using pymatgen
data_LaTa2NO5
_symmetry_space_group_name_H-M   'P 1'
_cell_length_a   5.52784400
_cell_length_b   7.74141368
_cell_length_c   11.31722639
_cell_angle_alpha   89.96766149
_cell_angle_beta   89.59580040
_cell_angle_gamma   89.96225386
_symmetry_Int_Tables_number   1
_chemical_formula_structural   LaTa2NO5
_chemical_formula_sum   'La4 Ta8 N4 O20'
_cell_volume   484.28953918
_cell_formula_units_Z   4
loop_
 _symmetry_equiv_pos_site_id
 _symmetry_equiv_pos_as_xyz
  1  'x, y, z'
loop_
 _atom_site_type_symbol
 _atom_site_label
 _atom_site_symmetry_multiplicity
 _atom_site_fract_x
 _atom_site_fract_y
 _atom_site_fract_z
 _atom_site_occupancy
  La  La0  1  0.44607900  0.25221500  0.96514000  1
  La  La1  1  0.95075500  0.74759800  0.53656900  1
  La  La2  1  0.04364900  0.25232900  0.45458200  1
  La  La3  1  0.55111400  0.74624100  0.04137500  1
  Ta  Ta4  1  0.96251900  0.00410100  0.85890100  1
  Ta  Ta5  1  0.95981900  0.49746000  0.85936900  1
  Ta  Ta6  1  0.45650200  0.00360100  0.64322500  1
  Ta  Ta7  1  0.45828300  0.49549400  0.64208000  1
  Ta  Ta8  1  0.53619500  0.00728500  0.35627100  1
  Ta  Ta9  1  0.53614100  0.50462700  0.34984300  1
  Ta  Ta10  1  0.04989900  0.50346800  0.14676900  1
  Ta  Ta11  1  0.03701200  0.99348200  0.14297800  1
  N  N12  1  0.04713200  0.24913800  0.85228100  1
  N  N13  1  0.45382200  0.24856800  0.35956300  1
  N  N14  1  0.37355200  0.55589200  0.20762500  1
  N  N15  1  0.94924700  0.75092700  0.14448600  1
  O  O16  1  0.22891100  0.96439000  0.97597300  1
  O  O17  1  0.22920400  0.53585800  0.97332500  1
  O  O18  1  0.84927800  0.75023000  0.87467100  1
  O  O19  1  0.62653700  0.44738100  0.78639700  1
  O  O20  1  0.62812800  0.05169900  0.78617400  1
  O  O21  1  0.13333300  0.94180600  0.71079500  1
  O  O22  1  0.13358300  0.55793200  0.71074100  1
  O  O23  1  0.54453400  0.75029800  0.64349700  1
  O  O24  1  0.35302700  0.24916000  0.62368700  1
  O  O25  1  0.73393900  0.46551600  0.53139300  1
  O  O26  1  0.72782100  0.03306600  0.52624800  1
  O  O27  1  0.27040900  0.96278400  0.47902000  1
  O  O28  1  0.27237400  0.53602800  0.47920600  1
  O  O29  1  0.65442700  0.74907700  0.38367700  1
  O  O30  1  0.87340300  0.44300600  0.29178900  1
  O  O31  1  0.87168300  0.05553600  0.29043500  1
  O  O32  1  0.36992900  0.94482200  0.21130700  1
  O  O33  1  0.14590100  0.24892600  0.11991500  1
  O  O34  1  0.77171700  0.46413200  0.01855800  1
  O  O35  1  0.77014200  0.03593300  0.02213300  1
