# generated using pymatgen
data_Hf2N2O
_symmetry_space_group_name_H-M   'P 1'
_cell_length_a   8.71977800
_cell_length_b   8.73047378
_cell_length_c   8.73829872
_cell_angle_alpha   109.37496024
_cell_angle_beta   109.48809169
_cell_angle_gamma   109.41164738
_symmetry_Int_Tables_number   1
_chemical_formula_structural   Hf2N2O
_chemical_formula_sum   'Hf16 N16 O8'
_cell_volume   512.96824995
_cell_formula_units_Z   8
loop_
 _symmetry_equiv_pos_site_id
 _symmetry_equiv_pos_as_xyz
  1  'x, y, z'
loop_
 _atom_site_type_symbol
 _atom_site_label
 _atom_site_symmetry_multiplicity
 _atom_site_fract_x
 _atom_site_fract_y
 _atom_site_fract_z
 _atom_site_occupancy
  Hf  Hf0  1  0.99898600  0.01226400  0.50861200  1
  Hf  Hf1  1  0.24423800  0.70534100  0.46197800  1
  Hf  Hf2  1  0.29401300  0.04303800  0.25612300  1
  Hf  Hf3  1  0.77569100  0.52687200  0.24761300  1
  Hf  Hf4  1  0.74398200  0.78640400  0.03705600  1
  Hf  Hf5  1  0.95644000  0.74099400  0.70759300  1
  Hf  Hf6  1  0.00247100  0.49050000  0.99209000  1
  Hf  Hf7  1  0.51013900  0.00352400  0.01124000  1
  Hf  Hf8  1  0.03395000  0.25803500  0.28492800  1
  Hf  Hf9  1  0.48745300  0.48169600  0.48999700  1
  Hf  Hf10  1  0.53307500  0.25004200  0.78672000  1
  Hf  Hf11  1  0.47226700  0.74971900  0.20827600  1
  Hf  Hf12  1  0.25023500  0.21830900  0.96172100  1
  Hf  Hf13  1  0.21382300  0.46420000  0.74850200  1
  Hf  Hf14  1  0.72444300  0.97483200  0.75569200  1
  Hf  Hf15  1  0.75242300  0.28799500  0.53761500  1
  N  N16  1  0.96360000  0.00469400  0.73640300  1
  N  N17  1  0.73033400  0.75989600  0.27247100  1
  N  N18  1  0.53523700  0.27054700  0.04218800  1
  N  N19  1  0.54124100  0.03221800  0.26868100  1
  N  N20  1  0.98759600  0.46182400  0.22943300  1
  N  N21  1  0.27091000  0.23616000  0.72408400  1
  N  N22  1  0.72874000  0.49622800  0.45780000  1
  N  N23  1  0.01262600  0.55141000  0.77841100  1
  N  N24  1  0.77275800  0.22845600  0.76649800  1
  N  N25  1  0.23999300  0.46776300  0.01667100  1
  N  N26  1  0.25995600  0.26695300  0.22691900  1
  N  N27  1  0.48634800  0.26048300  0.53330700  1
  N  N28  1  0.77405800  0.04239700  0.03059800  1
  N  N29  1  0.46860900  0.72828400  0.95388000  1
  N  N30  1  0.95227900  0.22430600  0.48416000  1
  N  N31  1  0.27667500  0.51852700  0.54709400  1
  O  O32  1  0.05735000  0.77803400  0.52200100  1
  O  O33  1  0.03677000  0.98060000  0.26157000  1
  O  O34  1  0.44899400  0.96360700  0.72212400  1
  O  O35  1  0.51162300  0.74662300  0.47083600  1
  O  O36  1  0.73730000  0.72316800  0.77335900  1
  O  O37  1  0.75733300  0.53553900  0.97988800  1
  O  O38  1  0.22789400  0.95273000  0.96331900  1
  O  O39  1  0.22814900  0.77578600  0.24255300  1
