# generated using pymatgen
data_Ti2Cu(PO4)3
_symmetry_space_group_name_H-M   'P 1'
_cell_length_a   8.65661784
_cell_length_b   8.65661784
_cell_length_c   21.20284883
_cell_angle_alpha   90.00000000
_cell_angle_beta   90.00000000
_cell_angle_gamma   120.00000000
_symmetry_Int_Tables_number   1
_chemical_formula_structural   Ti2Cu(PO4)3
_chemical_formula_sum   'Ti12 Cu6 P18 O72'
_cell_volume   1376.00920593
_cell_formula_units_Z   6
loop_
 _symmetry_equiv_pos_site_id
 _symmetry_equiv_pos_as_xyz
  1  'x, y, z'
loop_
 _atom_site_type_symbol
 _atom_site_label
 _atom_site_symmetry_multiplicity
 _atom_site_fract_x
 _atom_site_fract_y
 _atom_site_fract_z
 _atom_site_occupancy
  Ti  Ti0  1  0.33333333  0.66666667  0.52500167  1
  Ti  Ti1  1  0.33333333  0.66666667  0.30833167  1
  Ti  Ti2  1  0.33333333  0.66666667  0.02500167  1
  Ti  Ti3  1  0.33333333  0.66666667  0.80833167  1
  Ti  Ti4  1  0.00000000  0.00000000  0.85833500  1
  Ti  Ti5  1  1.00000000  0.00000000  0.64166500  1
  Ti  Ti6  1  0.00000000  0.00000000  0.35833500  1
  Ti  Ti7  1  0.00000000  0.00000000  0.14166500  1
  Ti  Ti8  1  0.66666667  0.33333333  0.19166833  1
  Ti  Ti9  1  0.66666667  0.33333333  0.97499833  1
  Ti  Ti10  1  0.66666667  0.33333333  0.69166833  1
  Ti  Ti11  1  0.66666667  0.33333333  0.47499833  1
  Cu  Cu12  1  0.00000000  0.00000000  0.00000000  1
  Cu  Cu13  1  0.33333333  0.66666667  0.16666667  1
  Cu  Cu14  1  0.66666667  0.33333333  0.33333333  1
  Cu  Cu15  1  0.00000000  0.00000000  0.50000000  1
  Cu  Cu16  1  0.33333333  0.66666667  0.66666667  1
  Cu  Cu17  1  0.66666667  0.33333333  0.83333333  1
  P  P18  1  0.71098600  0.71098600  0.25000000  1
  P  P19  1  0.28901400  0.00000000  0.25000000  1
  P  P20  1  0.00000000  0.28901400  0.25000000  1
  P  P21  1  0.66666667  0.04431933  0.08333333  1
  P  P22  1  0.37765267  0.33333333  0.08333333  1
  P  P23  1  0.95568067  0.62234733  0.08333333  1
  P  P24  1  0.37765267  0.04431933  0.58333333  1
  P  P25  1  0.95568067  0.33333333  0.58333333  1
  P  P26  1  0.66666667  0.62234733  0.58333333  1
  P  P27  1  0.33333333  0.37765267  0.41666667  1
  P  P28  1  0.04431933  0.66666667  0.41666667  1
  P  P29  1  0.62234733  0.95568067  0.41666667  1
  P  P30  1  0.04431933  0.37765267  0.91666667  1
  P  P31  1  0.62234733  0.66666667  0.91666667  1
  P  P32  1  0.33333333  0.95568067  0.91666667  1
  P  P33  1  0.00000000  0.71098600  0.75000000  1
  P  P34  1  0.71098600  0.00000000  0.75000000  1
  P  P35  1  0.28901400  0.28901400  0.75000000  1
  O  O36  1  0.51712400  0.85688100  0.35722800  1
  O  O37  1  0.33975700  0.48287600  0.35722800  1
  O  O38  1  0.69065167  0.52258833  0.25139333  1
  O  O39  1  0.14311900  0.66024300  0.35722800  1
  O  O40  1  0.14311900  0.48287600  0.85722800  1
  O  O41  1  0.52258833  0.69065167  0.24860667  1
  O  O42  1  0.47741167  0.16806333  0.25139333  1
  O  O43  1  0.30934833  0.83193667  0.24860667  1
  O  O44  1  0.32690967  0.47645233  0.47610533  1
  O  O45  1  0.16806333  0.47741167  0.24860667  1
  O  O46  1  0.83473000  0.02398500  0.08194000  1
  O  O47  1  0.14954267  0.67309033  0.47610533  1
  O  O48  1  0.51712400  0.66024300  0.85722800  1
  O  O49  1  0.83193667  0.30934833  0.25139333  1
  O  O50  1  0.49860333  0.85592167  0.08472667  1
  O  O51  1  0.33975700  0.85688100  0.85722800  1
  O  O52  1  0.35731833  0.50139667  0.08472667  1
  O  O53  1  0.18925500  0.16527000  0.08194000  1
  O  O54  1  0.14407833  0.64268167  0.08472667  1
  O  O55  1  0.52354767  0.85045733  0.47610533  1
  O  O56  1  0.52354767  0.67309033  0.97610533  1
  O  O57  1  0.97601500  0.81074500  0.08194000  1
  O  O58  1  0.32690967  0.85045733  0.97610533  1
  O  O59  1  0.14954267  0.47645233  0.97610533  1
  O  O60  1  0.18379067  0.19021433  0.69056133  1
  O  O61  1  0.00642367  0.81620933  0.69056133  1
  O  O62  1  0.35731833  0.85592167  0.58472667  1
  O  O63  1  0.80978567  0.99357633  0.69056133  1
  O  O64  1  0.80978567  0.81620933  0.19056133  1
  O  O65  1  0.18925500  0.02398500  0.58194000  1
  O  O66  1  0.14407833  0.50139667  0.58472667  1
  O  O67  1  0.97601500  0.16527000  0.58194000  1
  O  O68  1  0.99357633  0.80978567  0.80943867  1
  O  O69  1  0.83473000  0.81074500  0.58194000  1
  O  O70  1  0.50139667  0.35731833  0.41527333  1
  O  O71  1  0.81620933  0.00642367  0.80943867  1
  O  O72  1  0.18379067  0.99357633  0.19056133  1
  O  O73  1  0.49860333  0.64268167  0.58472667  1
  O  O74  1  0.16527000  0.18925500  0.41806000  1
  O  O75  1  0.00642367  0.19021433  0.19056133  1
  O  O76  1  0.02398500  0.83473000  0.41806000  1
  O  O77  1  0.85592167  0.49860333  0.41527333  1
  O  O78  1  0.81074500  0.97601500  0.41806000  1
  O  O79  1  0.19021433  0.18379067  0.80943867  1
  O  O80  1  0.19021433  0.00642367  0.30943867  1
  O  O81  1  0.64268167  0.14407833  0.41527333  1
  O  O82  1  0.99357633  0.18379067  0.30943867  1
  O  O83  1  0.81620933  0.80978567  0.30943867  1
  O  O84  1  0.85045733  0.52354767  0.02389467  1
  O  O85  1  0.67309033  0.14954267  0.02389467  1
  O  O86  1  0.02398500  0.18925500  0.91806000  1
  O  O87  1  0.47645233  0.32690967  0.02389467  1
  O  O88  1  0.47645233  0.14954267  0.52389467  1
  O  O89  1  0.85592167  0.35731833  0.91527333  1
  O  O90  1  0.81074500  0.83473000  0.91806000  1
  O  O91  1  0.64268167  0.49860333  0.91527333  1
  O  O92  1  0.66024300  0.14311900  0.14277200  1
  O  O93  1  0.50139667  0.14407833  0.91527333  1
  O  O94  1  0.16806333  0.69065167  0.74860667  1
  O  O95  1  0.48287600  0.33975700  0.14277200  1
  O  O96  1  0.85045733  0.32690967  0.52389467  1
  O  O97  1  0.16527000  0.97601500  0.91806000  1
  O  O98  1  0.83193667  0.52258833  0.75139333  1
  O  O99  1  0.67309033  0.52354767  0.52389467  1
  O  O100  1  0.69065167  0.16806333  0.75139333  1
  O  O101  1  0.52258833  0.83193667  0.74860667  1
  O  O102  1  0.47741167  0.30934833  0.75139333  1
  O  O103  1  0.85688100  0.51712400  0.14277200  1
  O  O104  1  0.85688100  0.33975700  0.64277200  1
  O  O105  1  0.30934833  0.47741167  0.74860667  1
  O  O106  1  0.66024300  0.51712400  0.64277200  1
  O  O107  1  0.48287600  0.14311900  0.64277200  1
