# generated using pymatgen
data_CaFe2P3HO12
_symmetry_space_group_name_H-M   'P 1'
_cell_length_a   6.45567200
_cell_length_b   20.04676000
_cell_length_c   9.13290647
_cell_angle_alpha   90.00000000
_cell_angle_beta   133.69069462
_cell_angle_gamma   90.00000000
_symmetry_Int_Tables_number   1
_chemical_formula_structural   CaFe2P3HO12
_chemical_formula_sum   'Ca4 Fe8 P12 H4 O48'
_cell_volume   854.63487648
_cell_formula_units_Z   4
loop_
 _symmetry_equiv_pos_site_id
 _symmetry_equiv_pos_as_xyz
  1  'x, y, z'
loop_
 _atom_site_type_symbol
 _atom_site_label
 _atom_site_symmetry_multiplicity
 _atom_site_fract_x
 _atom_site_fract_y
 _atom_site_fract_z
 _atom_site_occupancy
  Ca  Ca0  1  0.79580400  0.08013000  0.94404000  1
  Ca  Ca1  1  0.79580400  0.41987000  0.44404000  1
  Ca  Ca2  1  0.20419600  0.91987000  0.05596000  1
  Ca  Ca3  1  0.20419600  0.58013000  0.55596000  1
  Fe  Fe4  1  0.68732600  0.09809800  0.28176800  1
  Fe  Fe5  1  0.68732600  0.40190200  0.78176800  1
  Fe  Fe6  1  0.31267400  0.90190200  0.71823200  1
  Fe  Fe7  1  0.31267400  0.59809800  0.21823200  1
  Fe  Fe8  1  0.33840100  0.21186100  0.89965700  1
  Fe  Fe9  1  0.33840100  0.28813900  0.39965700  1
  Fe  Fe10  1  0.66159900  0.78813900  0.10034300  1
  Fe  Fe11  1  0.66159900  0.71186100  0.60034300  1
  P  P12  1  0.30174900  0.12141300  0.38393000  1
  P  P13  1  0.30174900  0.37858700  0.88393000  1
  P  P14  1  0.69825100  0.87858700  0.61607000  1
  P  P15  1  0.69825100  0.62141300  0.11607000  1
  P  P16  1  0.85587300  0.25345400  0.41180600  1
  P  P17  1  0.85587300  0.24654600  0.91180600  1
  P  P18  1  0.14412700  0.74654600  0.58819400  1
  P  P19  1  0.14412700  0.75345400  0.08819400  1
  P  P20  1  0.16868100  0.05146300  0.78372700  1
  P  P21  1  0.16868100  0.44853700  0.28372700  1
  P  P22  1  0.83131900  0.94853700  0.21627300  1
  P  P23  1  0.83131900  0.55146300  0.71627300  1
  H  H24  1  0.65644500  0.05323500  0.60512500  1
  H  H25  1  0.65644500  0.44676500  0.10512500  1
  H  H26  1  0.34355500  0.94676500  0.39487500  1
  H  H27  1  0.34355500  0.55323500  0.89487500  1
  O  O28  1  0.99116300  0.10770400  0.27656000  1
  O  O29  1  0.99116300  0.39229600  0.77656000  1
  O  O30  1  0.00883700  0.89229600  0.72344000  1
  O  O31  1  0.00883700  0.60770400  0.22344000  1
  O  O32  1  0.49015900  0.07247000  0.57687200  1
  O  O33  1  0.49015900  0.42753000  0.07687200  1
  O  O34  1  0.50984100  0.92753000  0.42312800  1
  O  O35  1  0.50984100  0.57247000  0.92312800  1
  O  O36  1  0.33231200  0.09859000  0.23789900  1
  O  O37  1  0.33231200  0.40141000  0.73789900  1
  O  O38  1  0.66768800  0.90141000  0.76210100  1
  O  O39  1  0.66768800  0.59859000  0.26210100  1
  O  O40  1  0.40014600  0.19238300  0.45919300  1
  O  O41  1  0.40014600  0.30761700  0.95919300  1
  O  O42  1  0.59985400  0.80761700  0.54080700  1
  O  O43  1  0.59985400  0.69238300  0.04080700  1
  O  O44  1  0.64870200  0.20006300  0.23932300  1
  O  O45  1  0.64870200  0.29993700  0.73932300  1
  O  O46  1  0.35129800  0.79993700  0.76067700  1
  O  O47  1  0.35129800  0.70006300  0.26067700  1
  O  O48  1  0.08471400  0.21461300  0.60915100  1
  O  O49  1  0.08471400  0.28538700  0.10915100  1
  O  O50  1  0.91528600  0.78538700  0.39084900  1
  O  O51  1  0.91528600  0.71461300  0.89084900  1
  O  O52  1  0.00252300  0.29877000  0.36879400  1
  O  O53  1  0.00252300  0.20123000  0.86879400  1
  O  O54  1  0.99747700  0.70123000  0.63120600  1
  O  O55  1  0.99747700  0.79877000  0.13120600  1
  O  O56  1  0.68097700  0.30118700  0.42606600  1
  O  O57  1  0.68097700  0.19881300  0.92606600  1
  O  O58  1  0.31902300  0.69881300  0.57393400  1
  O  O59  1  0.31902300  0.80118700  0.07393400  1
  O  O60  1  0.92883900  0.08114600  0.56982600  1
  O  O61  1  0.92883900  0.41885400  0.06982600  1
  O  O62  1  0.07116100  0.91885400  0.43017400  1
  O  O63  1  0.07116100  0.58114600  0.93017400  1
  O  O64  1  0.39296600  0.10771900  0.93570100  1
  O  O65  1  0.39296600  0.39228100  0.43570100  1
  O  O66  1  0.60703400  0.89228100  0.06429900  1
  O  O67  1  0.60703400  0.60771900  0.56429900  1
  O  O68  1  0.03127000  0.02329800  0.85632400  1
  O  O69  1  0.03127000  0.47670200  0.35632400  1
  O  O70  1  0.96873000  0.97670200  0.14367600  1
  O  O71  1  0.96873000  0.52329800  0.64367600  1
  O  O72  1  0.34891200  0.00014400  0.78371300  1
  O  O73  1  0.34891200  0.49985600  0.28371300  1
  O  O74  1  0.65108800  0.99985600  0.21628700  1
  O  O75  1  0.65108800  0.50014400  0.71628700  1
