# generated using pymatgen
data_Li2BiO3
_symmetry_space_group_name_H-M   'P 1'
_cell_length_a   5.71998400
_cell_length_b   9.85177600
_cell_length_c   10.38439295
_cell_angle_alpha   90.00000000
_cell_angle_beta   99.35187371
_cell_angle_gamma   90.00000000
_symmetry_Int_Tables_number   1
_chemical_formula_structural   Li2BiO3
_chemical_formula_sum   'Li16 Bi8 O24'
_cell_volume   577.40367883
_cell_formula_units_Z   8
loop_
 _symmetry_equiv_pos_site_id
 _symmetry_equiv_pos_as_xyz
  1  'x, y, z'
loop_
 _atom_site_type_symbol
 _atom_site_label
 _atom_site_symmetry_multiplicity
 _atom_site_fract_x
 _atom_site_fract_y
 _atom_site_fract_z
 _atom_site_occupancy
  Li  Li0  1  0.21364350  0.90606550  0.00485900  1
  Li  Li1  1  0.75000000  0.25000000  0.50000000  1
  Li  Li2  1  0.50000000  0.58886100  0.75000000  1
  Li  Li3  1  0.75000000  0.75000000  0.00000000  1
  Li  Li4  1  0.78635650  0.90606550  0.49514100  1
  Li  Li5  1  0.21364350  0.09393450  0.50485900  1
  Li  Li6  1  0.50000000  0.41113900  0.25000000  1
  Li  Li7  1  0.78635650  0.09393450  0.99514100  1
  Li  Li8  1  0.71364350  0.40606550  0.00485900  1
  Li  Li9  1  0.25000000  0.75000000  0.50000000  1
  Li  Li10  1  0.00000000  0.08886100  0.75000000  1
  Li  Li11  1  0.25000000  0.25000000  0.00000000  1
  Li  Li12  1  0.28635650  0.40606550  0.49514100  1
  Li  Li13  1  0.71364350  0.59393450  0.50485900  1
  Li  Li14  1  0.00000000  0.91113900  0.25000000  1
  Li  Li15  1  0.28635650  0.59393450  0.99514100  1
  Bi  Bi16  1  0.50000000  0.74598800  0.25000000  1
  Bi  Bi17  1  0.50000000  0.92142600  0.75000000  1
  Bi  Bi18  1  0.50000000  0.07857400  0.25000000  1
  Bi  Bi19  1  0.50000000  0.25401200  0.75000000  1
  Bi  Bi20  1  0.00000000  0.24598800  0.25000000  1
  Bi  Bi21  1  0.00000000  0.42142600  0.75000000  1
  Bi  Bi22  1  0.00000000  0.57857400  0.25000000  1
  Bi  Bi23  1  0.00000000  0.75401200  0.75000000  1
  O  O24  1  0.10757550  0.91102250  0.62625700  1
  O  O25  1  0.38208550  0.89603850  0.37730100  1
  O  O26  1  0.34670650  0.74628950  0.86792100  1
  O  O27  1  0.61791450  0.89603850  0.12269900  1
  O  O28  1  0.10757550  0.08897750  0.12625700  1
  O  O29  1  0.34670650  0.25371050  0.36792100  1
  O  O30  1  0.65329350  0.74628950  0.63207900  1
  O  O31  1  0.89242450  0.91102250  0.87374300  1
  O  O32  1  0.38208550  0.10396150  0.87730100  1
  O  O33  1  0.65329350  0.25371050  0.13207900  1
  O  O34  1  0.61791450  0.10396150  0.62269900  1
  O  O35  1  0.89242450  0.08897750  0.37374300  1
  O  O36  1  0.60757550  0.41102250  0.62625700  1
  O  O37  1  0.88208550  0.39603850  0.37730100  1
  O  O38  1  0.84670650  0.24628950  0.86792100  1
  O  O39  1  0.11791450  0.39603850  0.12269900  1
  O  O40  1  0.60757550  0.58897750  0.12625700  1
  O  O41  1  0.84670650  0.75371050  0.36792100  1
  O  O42  1  0.15329350  0.24628950  0.63207900  1
  O  O43  1  0.39242450  0.41102250  0.87374300  1
  O  O44  1  0.88208550  0.60396150  0.87730100  1
  O  O45  1  0.15329350  0.75371050  0.13207900  1
  O  O46  1  0.11791450  0.60396150  0.62269900  1
  O  O47  1  0.39242450  0.58897750  0.37374300  1
