# generated using pymatgen
data_LiTaWO6
_symmetry_space_group_name_H-M   'P 1'
_cell_length_a   7.34087600
_cell_length_b   7.41920200
_cell_length_c   10.42126200
_cell_angle_alpha   90.00000000
_cell_angle_beta   90.00000000
_cell_angle_gamma   90.00000000
_symmetry_Int_Tables_number   1
_chemical_formula_structural   LiTaWO6
_chemical_formula_sum   'Li4 Ta4 W4 O24'
_cell_volume   567.57779747
_cell_formula_units_Z   4
loop_
 _symmetry_equiv_pos_site_id
 _symmetry_equiv_pos_as_xyz
  1  'x, y, z'
loop_
 _atom_site_type_symbol
 _atom_site_label
 _atom_site_symmetry_multiplicity
 _atom_site_fract_x
 _atom_site_fract_y
 _atom_site_fract_z
 _atom_site_occupancy
  Li  Li0  1  0.00000000  0.00000000  0.50000000  1
  Li  Li1  1  0.50000000  0.00000000  0.00000000  1
  Li  Li2  1  0.50000000  0.50000000  0.00000000  1
  Li  Li3  1  0.00000000  0.50000000  0.50000000  1
  Ta  Ta4  1  0.25000000  0.25000000  0.25000000  1
  Ta  Ta5  1  0.75000000  0.25000000  0.25000000  1
  Ta  Ta6  1  0.75000000  0.75000000  0.75000000  1
  Ta  Ta7  1  0.25000000  0.75000000  0.75000000  1
  W  W8  1  0.50000000  0.00000000  0.50000000  1
  W  W9  1  0.00000000  0.00000000  0.00000000  1
  W  W10  1  0.00000000  0.50000000  0.00000000  1
  W  W11  1  0.50000000  0.50000000  0.50000000  1
  O  O12  1  0.18800350  0.06144550  0.12186950  1
  O  O13  1  0.81199650  0.06144550  0.12186950  1
  O  O14  1  0.31199650  0.06144550  0.37813050  1
  O  O15  1  0.68800350  0.06144550  0.37813050  1
  O  O16  1  0.50000000  0.75000000  0.44331300  1
  O  O17  1  0.00000000  0.25000000  0.32430000  1
  O  O18  1  0.50000000  0.25000000  0.55668700  1
  O  O19  1  0.00000000  0.75000000  0.67570000  1
  O  O20  1  0.68800350  0.93855450  0.62186950  1
  O  O21  1  0.18800350  0.93855450  0.87813050  1
  O  O22  1  0.81199650  0.93855450  0.87813050  1
  O  O23  1  0.31199650  0.93855450  0.62186950  1
  O  O24  1  0.68800350  0.56144550  0.62186950  1
  O  O25  1  0.31199650  0.56144550  0.62186950  1
  O  O26  1  0.81199650  0.56144550  0.87813050  1
  O  O27  1  0.18800350  0.56144550  0.87813050  1
  O  O28  1  0.00000000  0.25000000  0.94331300  1
  O  O29  1  0.50000000  0.75000000  0.82430000  1
  O  O30  1  0.00000000  0.75000000  0.05668700  1
  O  O31  1  0.50000000  0.25000000  0.17570000  1
  O  O32  1  0.18800350  0.43855450  0.12186950  1
  O  O33  1  0.68800350  0.43855450  0.37813050  1
  O  O34  1  0.31199650  0.43855450  0.37813050  1
  O  O35  1  0.81199650  0.43855450  0.12186950  1
