# generated using pymatgen
data_Li4Mn3Ni3(TeO8)2
_symmetry_space_group_name_H-M   'P 1'
_cell_length_a   10.30222200
_cell_length_b   5.95653800
_cell_length_c   9.71242700
_cell_angle_alpha   90.00000000
_cell_angle_beta   91.18978785
_cell_angle_gamma   90.00000000
_symmetry_Int_Tables_number   1
_chemical_formula_structural   Li4Mn3Ni3(TeO8)2
_chemical_formula_sum   'Li8 Mn6 Ni6 Te4 O32'
_cell_volume   595.88018573
_cell_formula_units_Z   2
loop_
 _symmetry_equiv_pos_site_id
 _symmetry_equiv_pos_as_xyz
  1  'x, y, z'
loop_
 _atom_site_type_symbol
 _atom_site_label
 _atom_site_symmetry_multiplicity
 _atom_site_fract_x
 _atom_site_fract_y
 _atom_site_fract_z
 _atom_site_occupancy
  Li  Li0  1  0.33793400  0.00000000  0.09312200  1
  Li  Li1  1  0.00083400  0.00000000  0.01771400  1
  Li  Li2  1  0.00073000  0.00000000  0.51211000  1
  Li  Li3  1  0.67002900  0.00000000  0.58521500  1
  Li  Li4  1  0.83793400  0.50000000  0.09312200  1
  Li  Li5  1  0.50083400  0.50000000  0.01771400  1
  Li  Li6  1  0.50073000  0.50000000  0.51211000  1
  Li  Li7  1  0.17002900  0.50000000  0.58521500  1
  Mn  Mn8  1  0.41580800  0.24575200  0.78844500  1
  Mn  Mn9  1  0.41580800  0.75424800  0.78844500  1
  Mn  Mn10  1  0.82662400  0.00000000  0.28652400  1
  Mn  Mn11  1  0.91580800  0.74575200  0.78844500  1
  Mn  Mn12  1  0.91580800  0.25424800  0.78844500  1
  Mn  Mn13  1  0.32662400  0.50000000  0.28652400  1
  Ni  Ni14  1  0.17226100  0.00000000  0.78575400  1
  Ni  Ni15  1  0.58412750  0.24511050  0.28824700  1
  Ni  Ni16  1  0.58412750  0.75488950  0.28824700  1
  Ni  Ni17  1  0.67226100  0.50000000  0.78575400  1
  Ni  Ni18  1  0.08412750  0.74511050  0.28824700  1
  Ni  Ni19  1  0.08412750  0.25488950  0.28824700  1
  Te  Te20  1  0.32979900  0.00000000  0.51425500  1
  Te  Te21  1  0.66302100  0.00000000  0.01817100  1
  Te  Te22  1  0.82979900  0.50000000  0.51425500  1
  Te  Te23  1  0.16302100  0.50000000  0.01817100  1
  O  O24  1  0.40798400  0.24945000  0.40477000  1
  O  O25  1  0.48466200  0.00000000  0.63629200  1
  O  O26  1  0.34487400  0.00000000  0.88675000  1
  O  O27  1  0.99227200  0.00000000  0.70292100  1
  O  O28  1  0.98987500  0.00000000  0.20279800  1
  O  O29  1  0.40798400  0.75055000  0.40477000  1
  O  O30  1  0.26232450  0.22335650  0.64895100  1
  O  O31  1  0.26232450  0.77664350  0.64895100  1
  O  O32  1  0.82284100  0.00000000  0.91324200  1
  O  O33  1  0.16678000  0.00000000  0.41426100  1
  O  O34  1  0.74668400  0.21708800  0.15313900  1
  O  O35  1  0.74668400  0.78291200  0.15313900  1
  O  O36  1  0.67500000  0.00000000  0.38852400  1
  O  O37  1  0.58458800  0.24732600  0.91124700  1
  O  O38  1  0.51972800  0.00000000  0.14491800  1
  O  O39  1  0.58458800  0.75267400  0.91124700  1
  O  O40  1  0.90798400  0.74945000  0.40477000  1
  O  O41  1  0.98466200  0.50000000  0.63629200  1
  O  O42  1  0.84487400  0.50000000  0.88675000  1
  O  O43  1  0.49227200  0.50000000  0.70292100  1
  O  O44  1  0.48987500  0.50000000  0.20279800  1
  O  O45  1  0.90798400  0.25055000  0.40477000  1
  O  O46  1  0.76232450  0.72335650  0.64895100  1
  O  O47  1  0.76232450  0.27664350  0.64895100  1
  O  O48  1  0.32284100  0.50000000  0.91324200  1
  O  O49  1  0.66678000  0.50000000  0.41426100  1
  O  O50  1  0.24668400  0.71708800  0.15313900  1
  O  O51  1  0.24668400  0.28291200  0.15313900  1
  O  O52  1  0.17500000  0.50000000  0.38852400  1
  O  O53  1  0.08458800  0.74732600  0.91124700  1
  O  O54  1  0.01972800  0.50000000  0.14491800  1
  O  O55  1  0.08458800  0.25267400  0.91124700  1
