# generated using pymatgen
data_LiBiB2O5
_symmetry_space_group_name_H-M   'P 1'
_cell_length_a   6.05818800
_cell_length_b   8.66156200
_cell_length_c   3.84214723
_cell_angle_alpha   90.00000000
_cell_angle_beta   96.73948876
_cell_angle_gamma   90.00000000
_symmetry_Int_Tables_number   1
_chemical_formula_structural   LiBiB2O5
_chemical_formula_sum   'Li2 Bi2 B4 O10'
_cell_volume   200.21728933
_cell_formula_units_Z   2
loop_
 _symmetry_equiv_pos_site_id
 _symmetry_equiv_pos_as_xyz
  1  'x, y, z'
loop_
 _atom_site_type_symbol
 _atom_site_label
 _atom_site_symmetry_multiplicity
 _atom_site_fract_x
 _atom_site_fract_y
 _atom_site_fract_z
 _atom_site_occupancy
  Li  Li0  1  0.50000000  0.10125200  0.50000000  1
  Li  Li1  1  0.00000000  0.60125200  0.50000000  1
  Bi  Bi2  1  0.50000000  0.48741300  0.00000000  1
  Bi  Bi3  1  0.00000000  0.98741300  0.00000000  1
  B  B4  1  0.31737350  0.80695550  0.62929800  1
  B  B5  1  0.68262650  0.80695550  0.37070200  1
  B  B6  1  0.81737350  0.30695550  0.62929800  1
  B  B7  1  0.18262650  0.30695550  0.37070200  1
  O  O8  1  0.25587750  0.95590450  0.53223400  1
  O  O9  1  0.29986200  0.22877000  0.14810900  1
  O  O10  1  0.50000000  0.73520400  0.50000000  1
  O  O11  1  0.70013800  0.22877000  0.85189100  1
  O  O12  1  0.74412250  0.95590450  0.46776600  1
  O  O13  1  0.75587750  0.45590450  0.53223400  1
  O  O14  1  0.79986200  0.72877000  0.14810900  1
  O  O15  1  0.00000000  0.23520400  0.50000000  1
  O  O16  1  0.20013800  0.72877000  0.85189100  1
  O  O17  1  0.24412250  0.45590450  0.46776600  1
