# generated using pymatgen
data_LiBi3(BrO2)2
_symmetry_space_group_name_H-M   'P 1'
_cell_length_a   5.55648200
_cell_length_b   12.95049200
_cell_length_c   11.07732600
_cell_angle_alpha   90.00000000
_cell_angle_beta   90.00000000
_cell_angle_gamma   90.00000000
_symmetry_Int_Tables_number   1
_chemical_formula_structural   LiBi3(BrO2)2
_chemical_formula_sum   'Li4 Bi12 Br8 O16'
_cell_volume   797.11524780
_cell_formula_units_Z   4
loop_
 _symmetry_equiv_pos_site_id
 _symmetry_equiv_pos_as_xyz
  1  'x, y, z'
loop_
 _atom_site_type_symbol
 _atom_site_label
 _atom_site_symmetry_multiplicity
 _atom_site_fract_x
 _atom_site_fract_y
 _atom_site_fract_z
 _atom_site_occupancy
  Li  Li0  1  0.50000000  0.28683000  0.25000000  1
  Li  Li1  1  0.00000000  0.21317000  0.75000000  1
  Li  Li2  1  0.00000000  0.78683000  0.25000000  1
  Li  Li3  1  0.50000000  0.71317000  0.75000000  1
  Bi  Bi4  1  0.00000000  0.15182800  0.25000000  1
  Bi  Bi5  1  0.50000000  0.16144900  0.50571800  1
  Bi  Bi6  1  0.00000000  0.33855100  0.49428200  1
  Bi  Bi7  1  0.50000000  0.34817200  0.75000000  1
  Bi  Bi8  1  0.50000000  0.16144900  0.99428200  1
  Bi  Bi9  1  0.00000000  0.33855100  0.00571800  1
  Bi  Bi10  1  0.50000000  0.65182800  0.25000000  1
  Bi  Bi11  1  0.00000000  0.66144900  0.50571800  1
  Bi  Bi12  1  0.50000000  0.83855100  0.49428200  1
  Bi  Bi13  1  0.00000000  0.84817200  0.75000000  1
  Bi  Bi14  1  0.00000000  0.66144900  0.99428200  1
  Bi  Bi15  1  0.50000000  0.83855100  0.00571800  1
  Br  Br16  1  0.50000000  0.00948100  0.25000000  1
  Br  Br17  1  0.00000000  0.00000000  0.50000000  1
  Br  Br18  1  0.00000000  0.49051900  0.75000000  1
  Br  Br19  1  0.00000000  0.00000000  0.00000000  1
  Br  Br20  1  0.00000000  0.50948100  0.25000000  1
  Br  Br21  1  0.50000000  0.50000000  0.50000000  1
  Br  Br22  1  0.50000000  0.99051900  0.75000000  1
  Br  Br23  1  0.50000000  0.50000000  0.00000000  1
  O  O24  1  0.24641300  0.24292900  0.37648000  1
  O  O25  1  0.75358700  0.24292900  0.37648000  1
  O  O26  1  0.25358700  0.25707100  0.62352000  1
  O  O27  1  0.74641300  0.25707100  0.62352000  1
  O  O28  1  0.25358700  0.25707100  0.87648000  1
  O  O29  1  0.24641300  0.24292900  0.12352000  1
  O  O30  1  0.74641300  0.25707100  0.87648000  1
  O  O31  1  0.75358700  0.24292900  0.12352000  1
  O  O32  1  0.74641300  0.74292900  0.37648000  1
  O  O33  1  0.25358700  0.74292900  0.37648000  1
  O  O34  1  0.75358700  0.75707100  0.62352000  1
  O  O35  1  0.24641300  0.75707100  0.62352000  1
  O  O36  1  0.75358700  0.75707100  0.87648000  1
  O  O37  1  0.74641300  0.74292900  0.12352000  1
  O  O38  1  0.24641300  0.75707100  0.87648000  1
  O  O39  1  0.25358700  0.74292900  0.12352000  1
