# generated using pymatgen
data_Ti3Fe2Ni(PO4)6
_symmetry_space_group_name_H-M   'P 1'
_cell_length_a   8.66326174
_cell_length_b   8.66326174
_cell_length_c   20.69220792
_cell_angle_alpha   90.00000000
_cell_angle_beta   90.00000000
_cell_angle_gamma   120.00000000
_symmetry_Int_Tables_number   1
_chemical_formula_structural   Ti3Fe2Ni(PO4)6
_chemical_formula_sum   'Ti9 Fe6 Ni3 P18 O72'
_cell_volume   1344.93202999
_cell_formula_units_Z   3
loop_
 _symmetry_equiv_pos_site_id
 _symmetry_equiv_pos_as_xyz
  1  'x, y, z'
loop_
 _atom_site_type_symbol
 _atom_site_label
 _atom_site_symmetry_multiplicity
 _atom_site_fract_x
 _atom_site_fract_y
 _atom_site_fract_z
 _atom_site_occupancy
  Ti  Ti0  1  0.33333333  0.66666667  0.80843567  1
  Ti  Ti1  1  0.33333333  0.66666667  0.02240167  1
  Ti  Ti2  1  0.33333333  0.66666667  0.31152467  1
  Ti  Ti3  1  0.00000000  0.00000000  0.14176900  1
  Ti  Ti4  1  0.00000000  0.00000000  0.35573500  1
  Ti  Ti5  1  0.00000000  0.00000000  0.64485800  1
  Ti  Ti6  1  0.66666667  0.33333333  0.47510233  1
  Ti  Ti7  1  0.66666667  0.33333333  0.68906833  1
  Ti  Ti8  1  0.66666667  0.33333333  0.97819133  1
  Fe  Fe9  1  0.33333333  0.66666667  0.66392567  1
  Fe  Fe10  1  0.33333333  0.66666667  0.16537467  1
  Fe  Fe11  1  0.00000000  0.00000000  0.99725900  1
  Fe  Fe12  1  0.00000000  0.00000000  0.49870800  1
  Fe  Fe13  1  0.66666667  0.33333333  0.33059233  1
  Fe  Fe14  1  0.66666667  0.33333333  0.83204133  1
  Ni  Ni15  1  0.33333333  0.66666667  0.52460067  1
  Ni  Ni16  1  0.00000000  0.00000000  0.85793400  1
  Ni  Ni17  1  0.66666667  0.33333333  0.19126733  1
  P  P18  1  0.95963900  0.33292400  0.08522100  1
  P  P19  1  0.37328500  0.04036100  0.08522100  1
  P  P20  1  0.00059167  0.70636533  0.24969233  1
  P  P21  1  0.29363467  0.29422633  0.24969233  1
  P  P22  1  0.70577367  0.99940833  0.24969233  1
  P  P23  1  0.66707600  0.62671500  0.08522100  1
  P  P24  1  0.62630567  0.66625733  0.41855433  1
  P  P25  1  0.03995167  0.37369433  0.41855433  1
  P  P26  1  0.66725833  0.03969867  0.58302567  1
  P  P27  1  0.96030133  0.62755967  0.58302567  1
  P  P28  1  0.37244033  0.33274167  0.58302567  1
  P  P29  1  0.33374267  0.96004833  0.41855433  1
  P  P30  1  0.29297233  0.99959067  0.75188767  1
  P  P31  1  0.70661833  0.70702767  0.75188767  1
  P  P32  1  0.33392500  0.37303200  0.91635900  1
  P  P33  1  0.62696800  0.96089300  0.91635900  1
  P  P34  1  0.03910700  0.66607500  0.91635900  1
  P  P35  1  0.00040933  0.29338167  0.75188767  1
  O  O36  1  0.13793867  0.64965233  0.97607733  1
  O  O37  1  0.35034767  0.48828633  0.97607733  1
  O  O38  1  0.98262367  0.16587233  0.07515233  1
  O  O39  1  0.51171367  0.86206133  0.97607733  1
  O  O40  1  0.86785967  0.33213333  0.14629533  1
  O  O41  1  0.15313500  0.49848100  0.08761300  1
  O  O42  1  0.18324867  0.01737633  0.07515233  1
  O  O43  1  0.34534600  0.84686500  0.08761300  1
  O  O44  1  0.32851367  0.47533233  0.85556033  1
  O  O45  1  0.50151900  0.65465400  0.08761300  1
  O  O46  1  0.83603433  0.52324967  0.26004067  1
  O  O47  1  0.52466767  0.85318133  0.85556033  1
  O  O48  1  0.46427367  0.13214033  0.14629533  1
  O  O49  1  0.83412767  0.81675133  0.07515233  1
  O  O50  1  0.17130700  0.69006900  0.24211000  1
  O  O51  1  0.66786667  0.53572633  0.14629533  1
  O  O52  1  0.30993100  0.48123800  0.24211000  1
  O  O53  1  0.47675033  0.31278467  0.26004067  1
  O  O54  1  0.51876200  0.82869300  0.24211000  1
  O  O55  1  0.14681867  0.67148633  0.85556033  1
  O  O56  1  0.14695700  0.47644600  0.35681700  1
  O  O57  1  0.68721533  0.16396567  0.26004067  1
  O  O58  1  0.32948900  0.85304300  0.35681700  1
  O  O59  1  0.52355400  0.67051100  0.35681700  1
  O  O60  1  0.80460533  0.98298567  0.30941067  1
  O  O61  1  0.01701433  0.82161967  0.30941067  1
  O  O62  1  0.64929033  0.49920567  0.40848567  1
  O  O63  1  0.17838033  0.19539467  0.30941067  1
  O  O64  1  0.53452633  0.66546667  0.47962867  1
  O  O65  1  0.81980167  0.83181433  0.42094633  1
  O  O66  1  0.84991533  0.35070967  0.40848567  1
  O  O67  1  0.01201267  0.18019833  0.42094633  1
  O  O68  1  0.99518033  0.80866567  0.18889367  1
  O  O69  1  0.16818567  0.98798733  0.42094633  1
  O  O70  1  0.50270100  0.85658300  0.59337400  1
  O  O71  1  0.19133433  0.18651467  0.18889367  1
  O  O72  1  0.13094033  0.46547367  0.47962867  1
  O  O73  1  0.50079433  0.15008467  0.40848567  1
  O  O74  1  0.83797367  0.02340233  0.57544333  1
  O  O75  1  0.33453333  0.86905967  0.47962867  1
  O  O76  1  0.97659767  0.81457133  0.57544333  1
  O  O77  1  0.14341700  0.64611800  0.59337400  1
  O  O78  1  0.18542867  0.16202633  0.57544333  1
  O  O79  1  0.81348533  0.00481967  0.18889367  1
  O  O80  1  0.81362367  0.80977933  0.69015033  1
  O  O81  1  0.35388200  0.49729900  0.59337400  1
  O  O82  1  0.99615567  0.18637633  0.69015033  1
  O  O83  1  0.19022067  0.00384433  0.69015033  1
  O  O84  1  0.47127200  0.31631900  0.64274400  1
  O  O85  1  0.68368100  0.15495300  0.64274400  1
  O  O86  1  0.31595700  0.83253900  0.74181900  1
  O  O87  1  0.84504700  0.52872800  0.64274400  1
  O  O88  1  0.20119300  0.99880000  0.81296200  1
  O  O89  1  0.48646833  0.16514767  0.75427967  1
  O  O90  1  0.51658200  0.68404300  0.74181900  1
  O  O91  1  0.67867933  0.51353167  0.75427967  1
  O  O92  1  0.66184700  0.14199900  0.52222700  1
  O  O93  1  0.83485233  0.32132067  0.75427967  1
  O  O94  1  0.16936767  0.18991633  0.92670733  1
  O  O95  1  0.85800100  0.51984800  0.52222700  1
  O  O96  1  0.79760700  0.79880700  0.81296200  1
  O  O97  1  0.16746100  0.48341800  0.74181900  1
  O  O98  1  0.50464033  0.35673567  0.90877667  1
  O  O99  1  0.00120000  0.20239300  0.81296200  1
  O  O100  1  0.64326433  0.14790467  0.90877667  1
  O  O101  1  0.81008367  0.97945133  0.92670733  1
  O  O102  1  0.85209533  0.49535967  0.90877667  1
  O  O103  1  0.48015200  0.33815300  0.52222700  1
  O  O104  1  0.48029033  0.14311267  0.02348367  1
  O  O105  1  0.02054867  0.83063233  0.92670733  1
  O  O106  1  0.66282233  0.51970967  0.02348367  1
  O  O107  1  0.85688733  0.33717767  0.02348367  1
