# generated using pymatgen
data_La2Pt2O7
_symmetry_space_group_name_H-M   'P 1'
_cell_length_a   7.96667500
_cell_length_b   5.65797600
_cell_length_c   13.50603590
_cell_angle_alpha   90.00000000
_cell_angle_beta   98.40817506
_cell_angle_gamma   90.00000000
_symmetry_Int_Tables_number   1
_chemical_formula_structural   La2Pt2O7
_chemical_formula_sum   'La8 Pt8 O28'
_cell_volume   602.24445466
_cell_formula_units_Z   4
loop_
 _symmetry_equiv_pos_site_id
 _symmetry_equiv_pos_as_xyz
  1  'x, y, z'
loop_
 _atom_site_type_symbol
 _atom_site_label
 _atom_site_symmetry_multiplicity
 _atom_site_fract_x
 _atom_site_fract_y
 _atom_site_fract_z
 _atom_site_occupancy
  La  La0  1  0.77339800  0.73773300  0.09442200  1
  La  La1  1  0.85432200  0.16810200  0.42685700  1
  La  La2  1  0.71715600  0.25178400  0.87066300  1
  La  La3  1  0.64555900  0.70880000  0.60391400  1
  La  La4  1  0.35444100  0.20880000  0.39608600  1
  La  La5  1  0.28284400  0.75178400  0.12933700  1
  La  La6  1  0.14567800  0.66810200  0.57314300  1
  La  La7  1  0.22660200  0.23773300  0.90557800  1
  Pt  Pt8  1  0.92439400  0.22598700  0.68727200  1
  Pt  Pt9  1  0.97161400  0.73498800  0.88961100  1
  Pt  Pt10  1  0.58160900  0.72423800  0.31467800  1
  Pt  Pt11  1  0.52648900  0.23625200  0.11150900  1
  Pt  Pt12  1  0.47351100  0.73625200  0.88849100  1
  Pt  Pt13  1  0.41839100  0.22423800  0.68532200  1
  Pt  Pt14  1  0.02838600  0.23498800  0.11038900  1
  Pt  Pt15  1  0.07560600  0.72598700  0.31272800  1
  O  O16  1  0.98184100  0.04998000  0.82007500  1
  O  O17  1  0.92076700  0.95108300  0.59222200  1
  O  O18  1  0.82324800  0.83405600  0.29389500  1
  O  O19  1  0.77309900  0.15531800  0.09333700  1
  O  O20  1  0.87599700  0.43753000  0.56841400  1
  O  O21  1  0.94740000  0.43543100  0.97869900  1
  O  O22  1  0.87346600  0.53271900  0.76729000  1
  O  O23  1  0.62582100  0.43663500  0.39752100  1
  O  O24  1  0.57038900  0.55428200  0.18005500  1
  O  O25  1  0.67279800  0.11256000  0.69138700  1
  O  O26  1  0.72835700  0.82297300  0.91244000  1
  O  O27  1  0.59553900  0.92251400  0.44024300  1
  O  O28  1  0.46123200  0.93476600  0.02227000  1
  O  O29  1  0.48875500  0.03392500  0.23483000  1
  O  O30  1  0.51124500  0.53392500  0.76517000  1
  O  O31  1  0.53876800  0.43476600  0.97773000  1
  O  O32  1  0.40446100  0.42251400  0.55975700  1
  O  O33  1  0.27164300  0.32297300  0.08756000  1
  O  O34  1  0.32720200  0.61256000  0.30861300  1
  O  O35  1  0.42961100  0.05428200  0.81994500  1
  O  O36  1  0.37417900  0.93663500  0.60247900  1
  O  O37  1  0.12653400  0.03271900  0.23271000  1
  O  O38  1  0.05260000  0.93543100  0.02130100  1
  O  O39  1  0.12400300  0.93753000  0.43158600  1
  O  O40  1  0.22690100  0.65531800  0.90666300  1
  O  O41  1  0.17675200  0.33405600  0.70610500  1
  O  O42  1  0.07923300  0.45108300  0.40777800  1
  O  O43  1  0.01815900  0.54998000  0.17992500  1
