# generated using pymatgen
data_BCl(OF2)2
_symmetry_space_group_name_H-M   'P 1'
_cell_length_a   5.26855200
_cell_length_b   8.91687600
_cell_length_c   9.96566960
_cell_angle_alpha   90.00000000
_cell_angle_beta   99.28187444
_cell_angle_gamma   90.00000000
_symmetry_Int_Tables_number   1
_chemical_formula_structural   BCl(OF2)2
_chemical_formula_sum   'B4 Cl4 O8 F16'
_cell_volume   462.04749481
_cell_formula_units_Z   4
loop_
 _symmetry_equiv_pos_site_id
 _symmetry_equiv_pos_as_xyz
  1  'x, y, z'
loop_
 _atom_site_type_symbol
 _atom_site_label
 _atom_site_symmetry_multiplicity
 _atom_site_fract_x
 _atom_site_fract_y
 _atom_site_fract_z
 _atom_site_occupancy
  B  B0  1  0.48539050  0.93230850  0.52008400  1
  B  B1  1  0.48539050  0.06769150  0.02008400  1
  B  B2  1  0.98539050  0.43230850  0.52008400  1
  B  B3  1  0.98539050  0.56769150  0.02008400  1
  Cl  Cl4  1  0.59057200  0.26456100  0.75286100  1
  Cl  Cl5  1  0.59057200  0.73543900  0.25286100  1
  Cl  Cl6  1  0.09057200  0.76456100  0.75286100  1
  Cl  Cl7  1  0.09057200  0.23543900  0.25286100  1
  O  O8  1  0.35204050  0.73237750  0.80613900  1
  O  O9  1  0.47308500  0.39127900  0.80537700  1
  O  O10  1  0.35204050  0.26762250  0.30613900  1
  O  O11  1  0.47308500  0.60872100  0.30537700  1
  O  O12  1  0.85204050  0.23237750  0.80613900  1
  O  O13  1  0.97308500  0.89127900  0.80537700  1
  O  O14  1  0.85204050  0.76762250  0.30613900  1
  O  O15  1  0.97308500  0.10872100  0.30537700  1
  F  F16  1  0.24805050  0.93969950  0.56876000  1
  F  F17  1  0.42915750  0.06812050  0.87060400  1
  F  F18  1  0.24805050  0.06030050  0.06876000  1
  F  F19  1  0.42915750  0.93187950  0.37060400  1
  F  F20  1  0.61574900  0.79837500  0.56104600  1
  F  F21  1  0.63606450  0.05861050  0.56055900  1
  F  F22  1  0.61574900  0.20162500  0.06104600  1
  F  F23  1  0.63606450  0.94138950  0.06055900  1
  F  F24  1  0.74805050  0.43969950  0.56876000  1
  F  F25  1  0.92915750  0.56812050  0.87060400  1
  F  F26  1  0.74805050  0.56030050  0.06876000  1
  F  F27  1  0.92915750  0.43187950  0.37060400  1
  F  F28  1  0.11574900  0.29837500  0.56104600  1
  F  F29  1  0.13606450  0.55861050  0.56055900  1
  F  F30  1  0.11574900  0.70162500  0.06104600  1
  F  F31  1  0.13606450  0.44138950  0.06055900  1
