# generated using pymatgen
data_Sn9(O2F5)2
_symmetry_space_group_name_H-M   'P 1'
_cell_length_a   10.75027200
_cell_length_b   10.75027200
_cell_length_c   7.61293000
_cell_angle_alpha   90.00000000
_cell_angle_beta   90.00000000
_cell_angle_gamma   90.00000000
_symmetry_Int_Tables_number   1
_chemical_formula_structural   Sn9(O2F5)2
_chemical_formula_sum   'Sn18 O8 F20'
_cell_volume   879.81374410
_cell_formula_units_Z   2
loop_
 _symmetry_equiv_pos_site_id
 _symmetry_equiv_pos_as_xyz
  1  'x, y, z'
loop_
 _atom_site_type_symbol
 _atom_site_label
 _atom_site_symmetry_multiplicity
 _atom_site_fract_x
 _atom_site_fract_y
 _atom_site_fract_z
 _atom_site_occupancy
  Sn  Sn0  1  0.25747600  0.61351100  0.16651600  1
  Sn  Sn1  1  0.35245500  0.57050400  0.66307100  1
  Sn  Sn2  1  0.38648900  0.25747600  0.83348400  1
  Sn  Sn3  1  0.42949600  0.35245500  0.33692900  1
  Sn  Sn4  1  0.50000000  0.00000000  0.19269200  1
  Sn  Sn5  1  0.57050400  0.64754500  0.33692900  1
  Sn  Sn6  1  0.61351100  0.74252400  0.83348400  1
  Sn  Sn7  1  0.64754500  0.42949600  0.66307100  1
  Sn  Sn8  1  0.74252400  0.38648900  0.16651600  1
  Sn  Sn9  1  0.75747600  0.11351100  0.83348400  1
  Sn  Sn10  1  0.85245500  0.07050400  0.33692900  1
  Sn  Sn11  1  0.88648900  0.75747600  0.16651600  1
  Sn  Sn12  1  0.92949600  0.85245500  0.66307100  1
  Sn  Sn13  1  0.00000000  0.50000000  0.80730800  1
  Sn  Sn14  1  0.07050400  0.14754500  0.66307100  1
  Sn  Sn15  1  0.11351100  0.24252400  0.16651600  1
  Sn  Sn16  1  0.14754500  0.92949600  0.33692900  1
  Sn  Sn17  1  0.24252400  0.88648900  0.83348400  1
  O  O18  1  0.38107800  0.55467000  0.37223500  1
  O  O19  1  0.44533000  0.38107800  0.62776500  1
  O  O20  1  0.55467000  0.61892200  0.62776500  1
  O  O21  1  0.61892200  0.44533000  0.37223500  1
  O  O22  1  0.88107800  0.05467000  0.62776500  1
  O  O23  1  0.94533000  0.88107800  0.37223500  1
  O  O24  1  0.05467000  0.11892200  0.37223500  1
  O  O25  1  0.11892200  0.94533000  0.62776500  1
  F  F26  1  0.28544200  0.12219800  0.15698400  1
  F  F27  1  0.30865900  0.13804700  0.63894800  1
  F  F28  1  0.37780200  0.78544200  0.15698400  1
  F  F29  1  0.36195300  0.80865900  0.63894800  1
  F  F30  1  0.50000000  0.00000000  0.92581300  1
  F  F31  1  0.50000000  0.50000000  0.00000000  1
  F  F32  1  0.63804700  0.19134100  0.63894800  1
  F  F33  1  0.62219800  0.21455800  0.15698400  1
  F  F34  1  0.69134100  0.86195300  0.63894800  1
  F  F35  1  0.71455800  0.87780200  0.15698400  1
  F  F36  1  0.78544200  0.62219800  0.84301600  1
  F  F37  1  0.80865900  0.63804700  0.36105200  1
  F  F38  1  0.87780200  0.28544200  0.84301600  1
  F  F39  1  0.86195300  0.30865900  0.36105200  1
  F  F40  1  0.00000000  0.00000000  0.00000000  1
  F  F41  1  0.00000000  0.50000000  0.07418700  1
  F  F42  1  0.13804700  0.69134100  0.36105200  1
  F  F43  1  0.12219800  0.71455800  0.84301600  1
  F  F44  1  0.19134100  0.36195300  0.36105200  1
  F  F45  1  0.21455800  0.37780200  0.84301600  1
