# generated using pymatgen
data_Na(Fe2O3)4
_symmetry_space_group_name_H-M   'P 1'
_cell_length_a   10.54353200
_cell_length_b   6.06569600
_cell_length_c   14.80035389
_cell_angle_alpha   90.00000000
_cell_angle_beta   90.57058432
_cell_angle_gamma   90.00000000
_symmetry_Int_Tables_number   1
_chemical_formula_structural   Na(Fe2O3)4
_chemical_formula_sum   'Na4 Fe32 O48'
_cell_volume   946.49282373
_cell_formula_units_Z   4
loop_
 _symmetry_equiv_pos_site_id
 _symmetry_equiv_pos_as_xyz
  1  'x, y, z'
loop_
 _atom_site_type_symbol
 _atom_site_label
 _atom_site_symmetry_multiplicity
 _atom_site_fract_x
 _atom_site_fract_y
 _atom_site_fract_z
 _atom_site_occupancy
  Na  Na0  1  0.00000000  0.50000000  0.00000000  1
  Na  Na1  1  0.00000000  0.00000000  0.50000000  1
  Na  Na2  1  0.50000000  0.00000000  0.00000000  1
  Na  Na3  1  0.50000000  0.50000000  0.50000000  1
  Fe  Fe4  1  0.82946600  0.50000000  0.83541700  1
  Fe  Fe5  1  0.67008800  0.00000000  0.79285100  1
  Fe  Fe6  1  0.75000000  0.75000000  0.00000000  1
  Fe  Fe7  1  0.75000000  0.25000000  0.00000000  1
  Fe  Fe8  1  0.82991200  0.50000000  0.20714900  1
  Fe  Fe9  1  0.99137300  0.00000000  0.87974400  1
  Fe  Fe10  1  0.67053400  0.00000000  0.16458300  1
  Fe  Fe11  1  0.83241400  0.50000000  0.45204800  1
  Fe  Fe12  1  0.50862700  0.50000000  0.12025600  1
  Fe  Fe13  1  0.91853100  0.74905200  0.66918900  1
  Fe  Fe14  1  0.58146900  0.24905200  0.33081100  1
  Fe  Fe15  1  0.58146900  0.75094800  0.33081100  1
  Fe  Fe16  1  0.66758600  0.00000000  0.54795200  1
  Fe  Fe17  1  0.66759400  0.50000000  0.66787100  1
  Fe  Fe18  1  0.83240600  0.00000000  0.33212900  1
  Fe  Fe19  1  0.91853100  0.25094800  0.66918900  1
  Fe  Fe20  1  0.32946600  0.00000000  0.83541700  1
  Fe  Fe21  1  0.17008800  0.50000000  0.79285100  1
  Fe  Fe22  1  0.25000000  0.25000000  0.00000000  1
  Fe  Fe23  1  0.25000000  0.75000000  0.00000000  1
  Fe  Fe24  1  0.32991200  0.00000000  0.20714900  1
  Fe  Fe25  1  0.49137300  0.50000000  0.87974400  1
  Fe  Fe26  1  0.17053400  0.50000000  0.16458300  1
  Fe  Fe27  1  0.33241400  0.00000000  0.45204800  1
  Fe  Fe28  1  0.00862700  0.00000000  0.12025600  1
  Fe  Fe29  1  0.41853100  0.24905200  0.66918900  1
  Fe  Fe30  1  0.08146900  0.74905200  0.33081100  1
  Fe  Fe31  1  0.08146900  0.25094800  0.33081100  1
  Fe  Fe32  1  0.16758600  0.50000000  0.54795200  1
  Fe  Fe33  1  0.16759400  0.00000000  0.66787100  1
  Fe  Fe34  1  0.33240600  0.50000000  0.33212900  1
  Fe  Fe35  1  0.41853100  0.75094800  0.66918900  1
  O  O36  1  0.89877900  0.25084500  0.91332800  1
  O  O37  1  0.89877900  0.74915500  0.91332800  1
  O  O38  1  0.50646400  0.00000000  0.25359700  1
  O  O39  1  0.66718000  0.50000000  0.92367300  1
  O  O40  1  0.82392100  0.50000000  0.08014700  1
  O  O41  1  0.67607900  0.00000000  0.91985300  1
  O  O42  1  0.60122100  0.24915500  0.08667200  1
  O  O43  1  0.60122100  0.75084500  0.08667200  1
  O  O44  1  0.74432750  0.76557250  0.25429800  1
  O  O45  1  0.74432750  0.23442750  0.25429800  1
  O  O46  1  0.66599100  0.00000000  0.41048800  1
  O  O47  1  0.83400900  0.50000000  0.58951200  1
  O  O48  1  0.99840900  0.00000000  0.25751300  1
  O  O49  1  0.99353600  0.50000000  0.74640300  1
  O  O50  1  0.66365500  0.50000000  0.40348400  1
  O  O51  1  0.83282000  0.00000000  0.07632700  1
  O  O52  1  0.91711150  0.24755050  0.40390000  1
  O  O53  1  0.75567250  0.26557250  0.74570200  1
  O  O54  1  0.91711150  0.75244950  0.40390000  1
  O  O55  1  0.75567250  0.73442750  0.74570200  1
  O  O56  1  0.58288850  0.25244950  0.59610000  1
  O  O57  1  0.58288850  0.74755050  0.59610000  1
  O  O58  1  0.83634500  0.00000000  0.59651600  1
  O  O59  1  0.50159100  0.50000000  0.74248700  1
  O  O60  1  0.39877900  0.75084500  0.91332800  1
  O  O61  1  0.39877900  0.24915500  0.91332800  1
  O  O62  1  0.00646400  0.50000000  0.25359700  1
  O  O63  1  0.16718000  0.00000000  0.92367300  1
  O  O64  1  0.32392100  0.00000000  0.08014700  1
  O  O65  1  0.17607900  0.50000000  0.91985300  1
  O  O66  1  0.10122100  0.74915500  0.08667200  1
  O  O67  1  0.10122100  0.25084500  0.08667200  1
  O  O68  1  0.24432750  0.26557250  0.25429800  1
  O  O69  1  0.24432750  0.73442750  0.25429800  1
  O  O70  1  0.16599100  0.50000000  0.41048800  1
  O  O71  1  0.33400900  0.00000000  0.58951200  1
  O  O72  1  0.49840900  0.50000000  0.25751300  1
  O  O73  1  0.49353600  0.00000000  0.74640300  1
  O  O74  1  0.16365500  0.00000000  0.40348400  1
  O  O75  1  0.33282000  0.50000000  0.07632700  1
  O  O76  1  0.41711150  0.74755050  0.40390000  1
  O  O77  1  0.25567250  0.76557250  0.74570200  1
  O  O78  1  0.41711150  0.25244950  0.40390000  1
  O  O79  1  0.25567250  0.23442750  0.74570200  1
  O  O80  1  0.08288850  0.75244950  0.59610000  1
  O  O81  1  0.08288850  0.24755050  0.59610000  1
  O  O82  1  0.33634500  0.50000000  0.59651600  1
  O  O83  1  0.00159100  0.00000000  0.74248700  1
