# generated using pymatgen
data_Li2Mn3SbO8
_symmetry_space_group_name_H-M   'P 1'
_cell_length_a   6.02958307
_cell_length_b   6.02958307
_cell_length_c   9.80313200
_cell_angle_alpha   90.00000000
_cell_angle_beta   90.00000000
_cell_angle_gamma   120.00000000
_symmetry_Int_Tables_number   1
_chemical_formula_structural   Li2Mn3SbO8
_chemical_formula_sum   'Li4 Mn6 Sb2 O16'
_cell_volume   308.65267655
_cell_formula_units_Z   2
loop_
 _symmetry_equiv_pos_site_id
 _symmetry_equiv_pos_as_xyz
  1  'x, y, z'
loop_
 _atom_site_type_symbol
 _atom_site_label
 _atom_site_symmetry_multiplicity
 _atom_site_fract_x
 _atom_site_fract_y
 _atom_site_fract_z
 _atom_site_occupancy
  Li  Li0  1  0.33333333  0.66666667  0.90488400  1
  Li  Li1  1  0.00000000  0.00000000  0.98616500  1
  Li  Li2  1  0.00000000  0.00000000  0.48616500  1
  Li  Li3  1  0.66666667  0.33333333  0.40488400  1
  Mn  Mn4  1  0.16048733  0.82167167  0.21328500  1
  Mn  Mn5  1  0.17832833  0.33881567  0.21328500  1
  Mn  Mn6  1  0.66118433  0.83951267  0.21328500  1
  Mn  Mn7  1  0.33881567  0.17832833  0.71328500  1
  Mn  Mn8  1  0.83951267  0.66118433  0.71328500  1
  Mn  Mn9  1  0.82167167  0.16048733  0.71328500  1
  Sb  Sb10  1  0.33333333  0.66666667  0.48513300  1
  Sb  Sb11  1  0.66666667  0.33333333  0.98513300  1
  O  O12  1  0.14277733  0.80732167  0.59115000  1
  O  O13  1  0.03654733  0.47910867  0.35009000  1
  O  O14  1  0.33333333  0.66666667  0.11810200  1
  O  O15  1  0.00000000  0.00000000  0.29609100  1
  O  O16  1  0.00000000  0.00000000  0.79609100  1
  O  O17  1  0.19267833  0.33545567  0.59115000  1
  O  O18  1  0.44256133  0.96345267  0.35009000  1
  O  O19  1  0.52089133  0.55743867  0.35009000  1
  O  O20  1  0.33545567  0.19267833  0.09115000  1
  O  O21  1  0.66454433  0.85722267  0.59115000  1
  O  O22  1  0.55743867  0.52089133  0.85009000  1
  O  O23  1  0.47910867  0.03654733  0.85009000  1
  O  O24  1  0.66666667  0.33333333  0.61810200  1
  O  O25  1  0.85722267  0.66454433  0.09115000  1
  O  O26  1  0.96345267  0.44256133  0.85009000  1
  O  O27  1  0.80732167  0.14277733  0.09115000  1
