# generated using pymatgen
data_Li4Nb3V5O16
_symmetry_space_group_name_H-M   'P 1'
_cell_length_a   10.50543711
_cell_length_b   6.05487280
_cell_length_c   9.85537978
_cell_angle_alpha   90.00000000
_cell_angle_beta   91.34513885
_cell_angle_gamma   90.00000000
_symmetry_Int_Tables_number   1
_chemical_formula_structural   Li4Nb3V5O16
_chemical_formula_sum   'Li8 Nb6 V10 O32'
_cell_volume   626.71893823
_cell_formula_units_Z   2
loop_
 _symmetry_equiv_pos_site_id
 _symmetry_equiv_pos_as_xyz
  1  'x, y, z'
loop_
 _atom_site_type_symbol
 _atom_site_label
 _atom_site_symmetry_multiplicity
 _atom_site_fract_x
 _atom_site_fract_y
 _atom_site_fract_z
 _atom_site_occupancy
  Li  Li0  1  0.16654050  0.50000000  0.10170800  1
  Li  Li1  1  0.00846800  0.00000000  0.00539100  1
  Li  Li2  1  0.00912850  0.00000000  0.50540700  1
  Li  Li3  1  0.33461150  0.00000000  0.61326500  1
  Li  Li4  1  0.66654050  0.00000000  0.10170800  1
  Li  Li5  1  0.50846800  0.50000000  0.00539100  1
  Li  Li6  1  0.50912850  0.50000000  0.50540700  1
  Li  Li7  1  0.83461150  0.50000000  0.61326500  1
  Nb  Nb8  1  0.33054500  0.50000000  0.78509500  1
  Nb  Nb9  1  0.41103350  0.23797550  0.28619000  1
  Nb  Nb10  1  0.41103350  0.76202450  0.28619000  1
  Nb  Nb11  1  0.83054500  0.00000000  0.78509500  1
  Nb  Nb12  1  0.91103350  0.73797550  0.28619000  1
  Nb  Nb13  1  0.91103350  0.26202450  0.28619000  1
  V  V14  1  0.08489250  0.74356750  0.78662900  1
  V  V15  1  0.16065850  0.50000000  0.51449500  1
  V  V16  1  0.08489250  0.25643250  0.78662900  1
  V  V17  1  0.17276800  0.00000000  0.28904600  1
  V  V18  1  0.32921450  0.00000000  0.00633500  1
  V  V19  1  0.58489250  0.24356750  0.78662900  1
  V  V20  1  0.66065850  0.00000000  0.51449500  1
  V  V21  1  0.58489250  0.75643250  0.78662900  1
  V  V22  1  0.67276800  0.50000000  0.28904600  1
  V  V23  1  0.82921450  0.50000000  0.00633500  1
  O  O24  1  0.07760850  0.74583450  0.40052000  1
  O  O25  1  0.01843650  0.50000000  0.66591500  1
  O  O26  1  0.17340050  0.50000000  0.89958400  1
  O  O27  1  0.49686550  0.50000000  0.68745400  1
  O  O28  1  0.49747350  0.50000000  0.18921700  1
  O  O29  1  0.07760850  0.25416550  0.40052000  1
  O  O30  1  0.24065500  0.71830900  0.65894000  1
  O  O31  1  0.24065500  0.28169100  0.65894000  1
  O  O32  1  0.16380650  0.00000000  0.89718400  1
  O  O33  1  0.33637150  0.50000000  0.39866500  1
  O  O34  1  0.26311900  0.22589400  0.15565800  1
  O  O35  1  0.26311900  0.77410600  0.15565800  1
  O  O36  1  0.33589500  0.00000000  0.41308600  1
  O  O37  1  0.41533650  0.25674150  0.89707900  1
  O  O38  1  0.48179900  0.00000000  0.15026800  1
  O  O39  1  0.41533650  0.74325850  0.89707900  1
  O  O40  1  0.57760850  0.24583450  0.40052000  1
  O  O41  1  0.51843650  0.00000000  0.66591500  1
  O  O42  1  0.67340050  0.00000000  0.89958400  1
  O  O43  1  0.99686550  0.00000000  0.68745400  1
  O  O44  1  0.99747350  0.00000000  0.18921700  1
  O  O45  1  0.57760850  0.75416550  0.40052000  1
  O  O46  1  0.74065500  0.21830900  0.65894000  1
  O  O47  1  0.74065500  0.78169100  0.65894000  1
  O  O48  1  0.66380650  0.50000000  0.89718400  1
  O  O49  1  0.83637150  0.00000000  0.39866500  1
  O  O50  1  0.76311900  0.72589400  0.15565800  1
  O  O51  1  0.76311900  0.27410600  0.15565800  1
  O  O52  1  0.83589500  0.50000000  0.41308600  1
  O  O53  1  0.91533650  0.75674150  0.89707900  1
  O  O54  1  0.98179900  0.50000000  0.15026800  1
  O  O55  1  0.91533650  0.24325850  0.89707900  1
