# generated using pymatgen
data_SrNb3NO7
_symmetry_space_group_name_H-M   'P 1'
_cell_length_a   20.85238000
_cell_length_b   3.83407800
_cell_length_c   9.00618518
_cell_angle_alpha   90.00000000
_cell_angle_beta   90.41844644
_cell_angle_gamma   90.00000000
_symmetry_Int_Tables_number   1
_chemical_formula_structural   SrNb3NO7
_chemical_formula_sum   'Sr4 Nb12 N4 O28'
_cell_volume   720.02216333
_cell_formula_units_Z   4
loop_
 _symmetry_equiv_pos_site_id
 _symmetry_equiv_pos_as_xyz
  1  'x, y, z'
loop_
 _atom_site_type_symbol
 _atom_site_label
 _atom_site_symmetry_multiplicity
 _atom_site_fract_x
 _atom_site_fract_y
 _atom_site_fract_z
 _atom_site_occupancy
  Sr  Sr0  1  0.02044100  0.00000000  0.75086200  1
  Sr  Sr1  1  0.48391950  0.50000000  0.24999600  1
  Sr  Sr2  1  0.52044100  0.50000000  0.75086200  1
  Sr  Sr3  1  0.98391950  0.00000000  0.24999600  1
  Nb  Nb4  1  0.37470450  0.00000000  0.93844100  1
  Nb  Nb5  1  0.25910950  0.50000000  0.75065800  1
  Nb  Nb6  1  0.36703950  0.00000000  0.54421400  1
  Nb  Nb7  1  0.12501650  0.50000000  0.43770000  1
  Nb  Nb8  1  0.23513950  0.00000000  0.23134100  1
  Nb  Nb9  1  0.12517850  0.50000000  0.06447100  1
  Nb  Nb10  1  0.87470450  0.50000000  0.93844100  1
  Nb  Nb11  1  0.75910950  0.00000000  0.75065800  1
  Nb  Nb12  1  0.86703950  0.50000000  0.54421400  1
  Nb  Nb13  1  0.62501650  0.00000000  0.43770000  1
  Nb  Nb14  1  0.73513950  0.50000000  0.23134100  1
  Nb  Nb15  1  0.62517850  0.00000000  0.06447100  1
  N  N16  1  0.07396950  0.50000000  0.25373800  1
  N  N17  1  0.15679250  0.00000000  0.09381800  1
  N  N18  1  0.57396950  0.00000000  0.25373800  1
  N  N19  1  0.65679250  0.50000000  0.09381800  1
  O  O20  1  0.06141650  0.50000000  0.92014400  1
  O  O21  1  0.35052350  0.50000000  0.91258600  1
  O  O22  1  0.20317750  0.50000000  0.90363200  1
  O  O23  1  0.29190650  0.00000000  0.74960500  1
  O  O24  1  0.42636550  0.00000000  0.75621000  1
  O  O25  1  0.20536450  0.50000000  0.59244500  1
  O  O26  1  0.35328750  0.50000000  0.59748300  1
  O  O27  1  0.06313250  0.50000000  0.58441500  1
  O  O28  1  0.43661850  0.00000000  0.42067700  1
  O  O29  1  0.15244950  0.00000000  0.41469200  1
  O  O30  1  0.29863550  0.00000000  0.40735400  1
  O  O31  1  0.21442450  0.50000000  0.26546200  1
  O  O32  1  0.29970950  0.00000000  0.09197800  1
  O  O33  1  0.43830850  0.00000000  0.07881400  1
  O  O34  1  0.56141650  0.00000000  0.92014400  1
  O  O35  1  0.85052350  0.00000000  0.91258600  1
  O  O36  1  0.70317750  0.00000000  0.90363200  1
  O  O37  1  0.79190650  0.50000000  0.74960500  1
  O  O38  1  0.92636550  0.50000000  0.75621000  1
  O  O39  1  0.70536450  0.00000000  0.59244500  1
  O  O40  1  0.85328750  0.00000000  0.59748300  1
  O  O41  1  0.56313250  0.00000000  0.58441500  1
  O  O42  1  0.93661850  0.50000000  0.42067700  1
  O  O43  1  0.65244950  0.50000000  0.41469200  1
  O  O44  1  0.79863550  0.50000000  0.40735400  1
  O  O45  1  0.71442450  0.00000000  0.26546200  1
  O  O46  1  0.79970950  0.50000000  0.09197800  1
  O  O47  1  0.93830850  0.50000000  0.07881400  1
