# generated using pymatgen
data_Ti3NiSn2(PO4)6
_symmetry_space_group_name_H-M   'P 1'
_cell_length_a   8.61796403
_cell_length_b   8.61796403
_cell_length_c   22.60325347
_cell_angle_alpha   90.00000000
_cell_angle_beta   90.00000000
_cell_angle_gamma   120.00000000
_symmetry_Int_Tables_number   1
_chemical_formula_structural   Ti3NiSn2(PO4)6
_chemical_formula_sum   'Ti9 Ni3 Sn6 P18 O72'
_cell_volume   1453.82100958
_cell_formula_units_Z   3
loop_
 _symmetry_equiv_pos_site_id
 _symmetry_equiv_pos_as_xyz
  1  'x, y, z'
loop_
 _atom_site_type_symbol
 _atom_site_label
 _atom_site_symmetry_multiplicity
 _atom_site_fract_x
 _atom_site_fract_y
 _atom_site_fract_z
 _atom_site_occupancy
  Ti  Ti0  1  0.00000000  0.00000000  0.14440200  1
  Ti  Ti1  1  0.33333333  0.66666667  0.01870267  1
  Ti  Ti2  1  0.33333333  0.66666667  0.31864167  1
  Ti  Ti3  1  0.66666667  0.33333333  0.47773533  1
  Ti  Ti4  1  0.00000000  0.00000000  0.35203600  1
  Ti  Ti5  1  0.00000000  0.00000000  0.65197500  1
  Ti  Ti6  1  0.33333333  0.66666667  0.81106867  1
  Ti  Ti7  1  0.66666667  0.33333333  0.68536933  1
  Ti  Ti8  1  0.66666667  0.33333333  0.98530833  1
  Ni  Ni9  1  0.66666667  0.33333333  0.18305433  1
  Ni  Ni10  1  0.33333333  0.66666667  0.51638767  1
  Ni  Ni11  1  0.00000000  0.00000000  0.84972100  1
  Sn  Sn12  1  0.66666667  0.33333333  0.31923333  1
  Sn  Sn13  1  0.33333333  0.66666667  0.17009067  1
  Sn  Sn14  1  0.33333333  0.66666667  0.65256667  1
  Sn  Sn15  1  0.00000000  0.00000000  0.50342400  1
  Sn  Sn16  1  0.00000000  0.00000000  0.98590000  1
  Sn  Sn17  1  0.66666667  0.33333333  0.83675733  1
  P  P18  1  0.66458367  0.62099833  0.08558033  1
  P  P19  1  0.95641467  0.33541633  0.08558033  1
  P  P20  1  0.28439000  0.28767700  0.24961600  1
  P  P21  1  0.71232300  0.99671300  0.24961600  1
  P  P22  1  0.00328700  0.71561000  0.24961600  1
  P  P23  1  0.37900167  0.04358533  0.08558033  1
  P  P24  1  0.33125033  0.95433167  0.41891367  1
  P  P25  1  0.62308133  0.66874967  0.41891367  1
  P  P26  1  0.95105667  0.62101033  0.58294933  1
  P  P27  1  0.37898967  0.33004633  0.58294933  1
  P  P28  1  0.66995367  0.04894333  0.58294933  1
  P  P29  1  0.04566833  0.37691867  0.41891367  1
  P  P30  1  0.99791700  0.28766500  0.75224700  1
  P  P31  1  0.28974800  0.00208300  0.75224700  1
  P  P32  1  0.61772333  0.95434367  0.91628267  1
  P  P33  1  0.04565633  0.66337967  0.91628267  1
  P  P34  1  0.33662033  0.38227667  0.91628267  1
  P  P35  1  0.71233500  0.71025200  0.75224700  1
  O  O36  1  0.99065067  0.80961933  0.30587033  1
  O  O37  1  0.19038067  0.18103133  0.30587033  1
  O  O38  1  0.83560733  0.80824367  0.09063267  1
  O  O39  1  0.81896867  0.00934933  0.30587033  1
  O  O40  1  0.62641967  0.51158033  0.14093333  1
  O  O41  1  0.50397767  0.65168933  0.07415433  1
  O  O42  1  0.97263633  0.16439267  0.09063267  1
  O  O43  1  0.14771167  0.49602233  0.07415433  1
  O  O44  1  0.17602833  0.19928367  0.19327567  1
  O  O45  1  0.34831067  0.85228833  0.07415433  1
  O  O46  1  0.47124967  0.30499633  0.24725133  1
  O  O47  1  0.80071633  0.97674467  0.19327567  1
  O  O48  1  0.88516067  0.37358033  0.14093333  1
  O  O49  1  0.19175633  0.02736367  0.09063267  1
  O  O50  1  0.30314767  0.47719833  0.25488033  1
  O  O51  1  0.48841967  0.11483933  0.14093333  1
  O  O52  1  0.52280167  0.82594933  0.25488033  1
  O  O53  1  0.69500367  0.16625333  0.24725133  1
  O  O54  1  0.17405067  0.69685233  0.25488033  1
  O  O55  1  0.02325533  0.82397167  0.19327567  1
  O  O56  1  0.83998200  0.30838400  0.02865400  1
  O  O57  1  0.83374667  0.52875033  0.24725133  1
  O  O58  1  0.46840200  0.16001800  0.02865400  1
  O  O59  1  0.69161600  0.53159800  0.02865400  1
  O  O60  1  0.65731733  0.14295267  0.63920367  1
  O  O61  1  0.85704733  0.51436467  0.63920367  1
  O  O62  1  0.50227400  0.14157700  0.42396600  1
  O  O63  1  0.48563533  0.34268267  0.63920367  1
  O  O64  1  0.29308633  0.84491367  0.47426667  1
  O  O65  1  0.17064433  0.98502267  0.40748767  1
  O  O66  1  0.63930300  0.49772600  0.42396600  1
  O  O67  1  0.81437833  0.82935567  0.40748767  1
  O  O68  1  0.84269500  0.53261700  0.52660900  1
  O  O69  1  0.01497733  0.18562167  0.40748767  1
  O  O70  1  0.13791633  0.63832967  0.58058467  1
  O  O71  1  0.46738300  0.31007800  0.52660900  1
  O  O72  1  0.55182733  0.70691367  0.47426667  1
  O  O73  1  0.85842300  0.36069700  0.42396600  1
  O  O74  1  0.96981433  0.81053167  0.58821367  1
  O  O75  1  0.15508633  0.44817267  0.47426667  1
  O  O76  1  0.18946833  0.15928267  0.58821367  1
  O  O77  1  0.36167033  0.49958667  0.58058467  1
  O  O78  1  0.84071733  0.03018567  0.58821367  1
  O  O79  1  0.68992200  0.15730500  0.52660900  1
  O  O80  1  0.50664867  0.64171733  0.36198733  1
  O  O81  1  0.50041333  0.86208367  0.58058467  1
  O  O82  1  0.13506867  0.49335133  0.36198733  1
  O  O83  1  0.35828267  0.86493133  0.36198733  1
  O  O84  1  0.32398400  0.47628600  0.97253700  1
  O  O85  1  0.52371400  0.84769800  0.97253700  1
  O  O86  1  0.16894067  0.47491033  0.75729933  1
  O  O87  1  0.15230200  0.67601600  0.97253700  1
  O  O88  1  0.95975300  0.17824700  0.80760000  1
  O  O89  1  0.83731100  0.31835600  0.74082100  1
  O  O90  1  0.30596967  0.83105933  0.75729933  1
  O  O91  1  0.48104500  0.16268900  0.74082100  1
  O  O92  1  0.50936167  0.86595033  0.85994233  1
  O  O93  1  0.68164400  0.51895500  0.74082100  1
  O  O94  1  0.80458300  0.97166300  0.91391800  1
  O  O95  1  0.13404967  0.64341133  0.85994233  1
  O  O96  1  0.21849400  0.04024700  0.80760000  1
  O  O97  1  0.52508967  0.69403033  0.75729933  1
  O  O98  1  0.63648100  0.14386500  0.92154700  1
  O  O99  1  0.82175300  0.78150600  0.80760000  1
  O  O100  1  0.85613500  0.49261600  0.92154700  1
  O  O101  1  0.02833700  0.83292000  0.91391800  1
  O  O102  1  0.50738400  0.36351900  0.92154700  1
  O  O103  1  0.35658867  0.49063833  0.85994233  1
  O  O104  1  0.17331533  0.97505067  0.69532067  1
  O  O105  1  0.16708000  0.19541700  0.91391800  1
  O  O106  1  0.80173533  0.82668467  0.69532067  1
  O  O107  1  0.02494933  0.19826467  0.69532067  1
