# generated using pymatgen
data_Na4TiO4
_symmetry_space_group_name_H-M   'P 1'
_cell_length_a   8.68627200
_cell_length_b   8.81838000
_cell_length_c   6.79332900
_cell_angle_alpha   90.00000000
_cell_angle_beta   90.00000000
_cell_angle_gamma   90.00000000
_symmetry_Int_Tables_number   1
_chemical_formula_structural   Na4TiO4
_chemical_formula_sum   'Na16 Ti4 O16'
_cell_volume   520.36117059
_cell_formula_units_Z   4
loop_
 _symmetry_equiv_pos_site_id
 _symmetry_equiv_pos_as_xyz
  1  'x, y, z'
loop_
 _atom_site_type_symbol
 _atom_site_label
 _atom_site_symmetry_multiplicity
 _atom_site_fract_x
 _atom_site_fract_y
 _atom_site_fract_z
 _atom_site_occupancy
  Na  Na0  1  0.50000000  0.33640000  0.50000000  1
  Na  Na1  1  0.50000000  0.33640000  0.00000000  1
  Na  Na2  1  0.71275150  0.15276850  0.25000000  1
  Na  Na3  1  0.28724850  0.15276850  0.75000000  1
  Na  Na4  1  0.28724850  0.84723150  0.75000000  1
  Na  Na5  1  0.71275150  0.84723150  0.25000000  1
  Na  Na6  1  0.50000000  0.66360000  0.00000000  1
  Na  Na7  1  0.50000000  0.66360000  0.50000000  1
  Na  Na8  1  0.00000000  0.83640000  0.50000000  1
  Na  Na9  1  0.00000000  0.83640000  0.00000000  1
  Na  Na10  1  0.21275150  0.65276850  0.25000000  1
  Na  Na11  1  0.78724850  0.65276850  0.75000000  1
  Na  Na12  1  0.78724850  0.34723150  0.75000000  1
  Na  Na13  1  0.21275150  0.34723150  0.25000000  1
  Na  Na14  1  0.00000000  0.16360000  0.00000000  1
  Na  Na15  1  0.00000000  0.16360000  0.50000000  1
  Ti  Ti16  1  0.66917300  0.00000000  0.75000000  1
  Ti  Ti17  1  0.33082700  0.00000000  0.25000000  1
  Ti  Ti18  1  0.16917300  0.50000000  0.75000000  1
  Ti  Ti19  1  0.83082700  0.50000000  0.25000000  1
  O  O20  1  0.44244600  0.17770500  0.25000000  1
  O  O21  1  0.55755400  0.17770500  0.75000000  1
  O  O22  1  0.79196000  0.00000000  0.97418200  1
  O  O23  1  0.20804000  0.00000000  0.47418200  1
  O  O24  1  0.20804000  0.00000000  0.02581800  1
  O  O25  1  0.79196000  0.00000000  0.52581800  1
  O  O26  1  0.55755400  0.82229500  0.75000000  1
  O  O27  1  0.44244600  0.82229500  0.25000000  1
  O  O28  1  0.94244600  0.67770500  0.25000000  1
  O  O29  1  0.05755400  0.67770500  0.75000000  1
  O  O30  1  0.29196000  0.50000000  0.97418200  1
  O  O31  1  0.70804000  0.50000000  0.47418200  1
  O  O32  1  0.70804000  0.50000000  0.02581800  1
  O  O33  1  0.29196000  0.50000000  0.52581800  1
  O  O34  1  0.05755400  0.32229500  0.75000000  1
  O  O35  1  0.94244600  0.32229500  0.25000000  1
