# generated using pymatgen
data_Li2Cr3P5O18
_symmetry_space_group_name_H-M   'P 1'
_cell_length_a   25.68116800
_cell_length_b   4.79072000
_cell_length_c   12.50728625
_cell_angle_alpha   90.00000000
_cell_angle_beta   91.88723814
_cell_angle_gamma   90.00000000
_symmetry_Int_Tables_number   1
_chemical_formula_structural   Li2Cr3P5O18
_chemical_formula_sum   'Li8 Cr12 P20 O72'
_cell_volume   1537.95282622
_cell_formula_units_Z   4
loop_
 _symmetry_equiv_pos_site_id
 _symmetry_equiv_pos_as_xyz
  1  'x, y, z'
loop_
 _atom_site_type_symbol
 _atom_site_label
 _atom_site_symmetry_multiplicity
 _atom_site_fract_x
 _atom_site_fract_y
 _atom_site_fract_z
 _atom_site_occupancy
  Li  Li0  1  0.65772550  0.85089750  0.86961400  1
  Li  Li1  1  0.65772550  0.14910250  0.36961400  1
  Li  Li2  1  0.84227450  0.35089750  0.63038600  1
  Li  Li3  1  0.84227450  0.64910250  0.13038600  1
  Li  Li4  1  0.15772550  0.35089750  0.86961400  1
  Li  Li5  1  0.15772550  0.64910250  0.36961400  1
  Li  Li6  1  0.34227450  0.85089750  0.63038600  1
  Li  Li7  1  0.34227450  0.14910250  0.13038600  1
  Cr  Cr8  1  0.69831250  0.45487650  0.62001000  1
  Cr  Cr9  1  0.69831250  0.54512350  0.12001000  1
  Cr  Cr10  1  0.80168750  0.95487650  0.87999000  1
  Cr  Cr11  1  0.80168750  0.04512350  0.37999000  1
  Cr  Cr12  1  0.00000000  0.50000000  0.50000000  1
  Cr  Cr13  1  0.00000000  0.50000000  0.00000000  1
  Cr  Cr14  1  0.19831250  0.95487650  0.62001000  1
  Cr  Cr15  1  0.19831250  0.04512350  0.12001000  1
  Cr  Cr16  1  0.30168750  0.45487650  0.87999000  1
  Cr  Cr17  1  0.30168750  0.54512350  0.37999000  1
  Cr  Cr18  1  0.50000000  0.00000000  0.50000000  1
  Cr  Cr19  1  0.50000000  0.00000000  0.00000000  1
  P  P20  1  0.56941300  0.49867900  0.59107900  1
  P  P21  1  0.56941300  0.50132100  0.09107900  1
  P  P22  1  0.72519150  0.43898850  0.87204900  1
  P  P23  1  0.72519150  0.56101150  0.37204900  1
  P  P24  1  0.77480850  0.93898850  0.62795100  1
  P  P25  1  0.77480850  0.06101150  0.12795100  1
  P  P26  1  0.93058700  0.99867900  0.90892100  1
  P  P27  1  0.93058700  0.00132100  0.40892100  1
  P  P28  1  0.00000000  0.73298400  0.75000000  1
  P  P29  1  0.00000000  0.26701600  0.25000000  1
  P  P30  1  0.06941300  0.99867900  0.59107900  1
  P  P31  1  0.06941300  0.00132100  0.09107900  1
  P  P32  1  0.22519150  0.93898850  0.87204900  1
  P  P33  1  0.22519150  0.06101150  0.37204900  1
  P  P34  1  0.27480850  0.43898850  0.62795100  1
  P  P35  1  0.27480850  0.56101150  0.12795100  1
  P  P36  1  0.43058700  0.49867900  0.90892100  1
  P  P37  1  0.43058700  0.50132100  0.40892100  1
  P  P38  1  0.50000000  0.23298400  0.75000000  1
  P  P39  1  0.50000000  0.76701600  0.25000000  1
  O  O40  1  0.52373100  0.07401000  0.84439200  1
  O  O41  1  0.54500900  0.67273800  0.00030800  1
  O  O42  1  0.52373100  0.92599000  0.34439200  1
  O  O43  1  0.54201600  0.44575300  0.70526200  1
  O  O44  1  0.54500900  0.32726200  0.50030800  1
  O  O45  1  0.54201600  0.55424700  0.20526200  1
  O  O46  1  0.56479600  0.80906000  0.56670400  1
  O  O47  1  0.56479600  0.19094000  0.06670400  1
  O  O48  1  0.62490850  0.40381750  0.61886200  1
  O  O49  1  0.62490850  0.59618250  0.11886200  1
  O  O50  1  0.69206400  0.55615700  0.96303200  1
  O  O51  1  0.69356150  0.54787250  0.77304500  1
  O  O52  1  0.69206400  0.44384300  0.46303200  1
  O  O53  1  0.69356150  0.45212750  0.27304500  1
  O  O54  1  0.71795950  0.05150150  0.62473700  1
  O  O55  1  0.72769400  0.11525100  0.87722800  1
  O  O56  1  0.71795950  0.94849850  0.12473700  1
  O  O57  1  0.72769400  0.88474900  0.37722800  1
  O  O58  1  0.77230600  0.61525100  0.62277200  1
  O  O59  1  0.78204050  0.55150150  0.87526300  1
  O  O60  1  0.77230600  0.38474900  0.12277200  1
  O  O61  1  0.78204050  0.44849850  0.37526300  1
  O  O62  1  0.80643850  0.04787250  0.72695500  1
  O  O63  1  0.80793600  0.05615700  0.53696800  1
  O  O64  1  0.80643850  0.95212750  0.22695500  1
  O  O65  1  0.80793600  0.94384300  0.03696800  1
  O  O66  1  0.87509150  0.90381750  0.88113800  1
  O  O67  1  0.87509150  0.09618250  0.38113800  1
  O  O68  1  0.93520400  0.30906000  0.93329600  1
  O  O69  1  0.93520400  0.69094000  0.43329600  1
  O  O70  1  0.95798400  0.94575300  0.79473800  1
  O  O71  1  0.95499100  0.17273800  0.49969200  1
  O  O72  1  0.95798400  0.05424700  0.29473800  1
  O  O73  1  0.97626900  0.57401000  0.65560800  1
  O  O74  1  0.95499100  0.82726200  0.99969200  1
  O  O75  1  0.97626900  0.42599000  0.15560800  1
  O  O76  1  0.02373100  0.57401000  0.84439200  1
  O  O77  1  0.04500900  0.17273800  0.00030800  1
  O  O78  1  0.02373100  0.42599000  0.34439200  1
  O  O79  1  0.04201600  0.94575300  0.70526200  1
  O  O80  1  0.04500900  0.82726200  0.50030800  1
  O  O81  1  0.04201600  0.05424700  0.20526200  1
  O  O82  1  0.06479600  0.30906000  0.56670400  1
  O  O83  1  0.06479600  0.69094000  0.06670400  1
  O  O84  1  0.12490850  0.90381750  0.61886200  1
  O  O85  1  0.12490850  0.09618250  0.11886200  1
  O  O86  1  0.19206400  0.05615700  0.96303200  1
  O  O87  1  0.19356150  0.04787250  0.77304500  1
  O  O88  1  0.19206400  0.94384300  0.46303200  1
  O  O89  1  0.19356150  0.95212750  0.27304500  1
  O  O90  1  0.21795950  0.55150150  0.62473700  1
  O  O91  1  0.22769400  0.61525100  0.87722800  1
  O  O92  1  0.21795950  0.44849850  0.12473700  1
  O  O93  1  0.22769400  0.38474900  0.37722800  1
  O  O94  1  0.27230600  0.11525100  0.62277200  1
  O  O95  1  0.28204050  0.05150150  0.87526300  1
  O  O96  1  0.27230600  0.88474900  0.12277200  1
  O  O97  1  0.28204050  0.94849850  0.37526300  1
  O  O98  1  0.30643850  0.54787250  0.72695500  1
  O  O99  1  0.30793600  0.55615700  0.53696800  1
  O  O100  1  0.30643850  0.45212750  0.22695500  1
  O  O101  1  0.30793600  0.44384300  0.03696800  1
  O  O102  1  0.37509150  0.40381750  0.88113800  1
  O  O103  1  0.37509150  0.59618250  0.38113800  1
  O  O104  1  0.43520400  0.80906000  0.93329600  1
  O  O105  1  0.43520400  0.19094000  0.43329600  1
  O  O106  1  0.45798400  0.44575300  0.79473800  1
  O  O107  1  0.45499100  0.67273800  0.49969200  1
  O  O108  1  0.45798400  0.55424700  0.29473800  1
  O  O109  1  0.47626900  0.07401000  0.65560800  1
  O  O110  1  0.45499100  0.32726200  0.99969200  1
  O  O111  1  0.47626900  0.92599000  0.15560800  1
