# generated using pymatgen
data_TiBi2O5
_symmetry_space_group_name_H-M   'P 1'
_cell_length_a   5.68903200
_cell_length_b   15.92548400
_cell_length_c   5.61132000
_cell_angle_alpha   90.00000000
_cell_angle_beta   90.00000000
_cell_angle_gamma   90.00000000
_symmetry_Int_Tables_number   1
_chemical_formula_structural   TiBi2O5
_chemical_formula_sum   'Ti4 Bi8 O20'
_cell_volume   508.38889197
_cell_formula_units_Z   4
loop_
 _symmetry_equiv_pos_site_id
 _symmetry_equiv_pos_as_xyz
  1  'x, y, z'
loop_
 _atom_site_type_symbol
 _atom_site_label
 _atom_site_symmetry_multiplicity
 _atom_site_fract_x
 _atom_site_fract_y
 _atom_site_fract_z
 _atom_site_occupancy
  Ti  Ti0  1  0.80955200  0.00000000  0.77407200  1
  Ti  Ti1  1  0.19044800  0.00000000  0.27407200  1
  Ti  Ti2  1  0.30955200  0.50000000  0.77407200  1
  Ti  Ti3  1  0.69044800  0.50000000  0.27407200  1
  Bi  Bi4  1  0.29365400  0.17075500  0.72717100  1
  Bi  Bi5  1  0.70634600  0.17075500  0.22717100  1
  Bi  Bi6  1  0.79365400  0.32924500  0.72717100  1
  Bi  Bi7  1  0.20634600  0.32924500  0.22717100  1
  Bi  Bi8  1  0.79365400  0.67075500  0.72717100  1
  Bi  Bi9  1  0.20634600  0.67075500  0.22717100  1
  Bi  Bi10  1  0.29365400  0.82924500  0.72717100  1
  Bi  Bi11  1  0.70634600  0.82924500  0.22717100  1
  O  O12  1  0.65028150  0.09518350  0.84468700  1
  O  O13  1  0.34971850  0.09518350  0.34468700  1
  O  O14  1  0.48188650  0.25189550  0.00734000  1
  O  O15  1  0.51811350  0.25189550  0.50734000  1
  O  O16  1  0.01811350  0.24810450  0.50734000  1
  O  O17  1  0.98188650  0.24810450  0.00734000  1
  O  O18  1  0.15028150  0.40481650  0.84468700  1
  O  O19  1  0.84971850  0.40481650  0.34468700  1
  O  O20  1  0.08069800  0.00000000  0.95878200  1
  O  O21  1  0.91930200  0.00000000  0.45878200  1
  O  O22  1  0.15028150  0.59518350  0.84468700  1
  O  O23  1  0.84971850  0.59518350  0.34468700  1
  O  O24  1  0.98188650  0.75189550  0.00734000  1
  O  O25  1  0.01811350  0.75189550  0.50734000  1
  O  O26  1  0.51811350  0.74810450  0.50734000  1
  O  O27  1  0.48188650  0.74810450  0.00734000  1
  O  O28  1  0.65028150  0.90481650  0.84468700  1
  O  O29  1  0.34971850  0.90481650  0.34468700  1
  O  O30  1  0.58069800  0.50000000  0.95878200  1
  O  O31  1  0.41930200  0.50000000  0.45878200  1
