# generated using pymatgen
data_Li2(NiO2)3
_symmetry_space_group_name_H-M   'P 1'
_cell_length_a   4.98049800
_cell_length_b   8.56603400
_cell_length_c   10.11504300
_cell_angle_alpha   90.00000000
_cell_angle_beta   90.00000000
_cell_angle_gamma   90.00000000
_symmetry_Int_Tables_number   1
_chemical_formula_structural   Li2(NiO2)3
_chemical_formula_sum   'Li8 Ni12 O24'
_cell_volume   431.53924481
_cell_formula_units_Z   4
loop_
 _symmetry_equiv_pos_site_id
 _symmetry_equiv_pos_as_xyz
  1  'x, y, z'
loop_
 _atom_site_type_symbol
 _atom_site_label
 _atom_site_symmetry_multiplicity
 _atom_site_fract_x
 _atom_site_fract_y
 _atom_site_fract_z
 _atom_site_occupancy
  Li  Li0  1  0.40681950  0.75122650  0.24897900  1
  Li  Li1  1  0.59318050  0.75122650  0.75102100  1
  Li  Li2  1  0.40681950  0.25122650  0.25102100  1
  Li  Li3  1  0.59318050  0.25122650  0.74897900  1
  Li  Li4  1  0.90681950  0.25122650  0.24897900  1
  Li  Li5  1  0.09318050  0.25122650  0.75102100  1
  Li  Li6  1  0.90681950  0.75122650  0.25102100  1
  Li  Li7  1  0.09318050  0.75122650  0.74897900  1
  Ni  Ni8  1  0.50000000  0.50188000  0.50000000  1
  Ni  Ni9  1  0.50000000  0.00188000  0.00000000  1
  Ni  Ni10  1  0.50000000  0.83377500  0.50000000  1
  Ni  Ni11  1  0.50000000  0.33377500  0.00000000  1
  Ni  Ni12  1  0.50000000  0.66388200  0.00000000  1
  Ni  Ni13  1  0.50000000  0.16388200  0.50000000  1
  Ni  Ni14  1  0.00000000  0.00188000  0.50000000  1
  Ni  Ni15  1  0.00000000  0.50188000  0.00000000  1
  Ni  Ni16  1  0.00000000  0.33377500  0.50000000  1
  Ni  Ni17  1  0.00000000  0.83377500  0.00000000  1
  Ni  Ni18  1  0.00000000  0.16388200  0.00000000  1
  Ni  Ni19  1  0.00000000  0.66388200  0.50000000  1
  O  O20  1  0.16832000  0.99861700  0.09329600  1
  O  O21  1  0.33168000  0.99861700  0.59329600  1
  O  O22  1  0.66832000  0.99861700  0.40670400  1
  O  O23  1  0.17612150  0.82608150  0.39994900  1
  O  O24  1  0.83168000  0.99861700  0.90670400  1
  O  O25  1  0.32387850  0.82608150  0.89994900  1
  O  O26  1  0.67612150  0.82608150  0.10005100  1
  O  O27  1  0.82387850  0.82608150  0.60005100  1
  O  O28  1  0.35251000  0.67920600  0.60775000  1
  O  O29  1  0.64749000  0.67920600  0.39225000  1
  O  O30  1  0.35251000  0.17920600  0.89225000  1
  O  O31  1  0.64749000  0.17920600  0.10775000  1
  O  O32  1  0.66832000  0.49861700  0.09329600  1
  O  O33  1  0.83168000  0.49861700  0.59329600  1
  O  O34  1  0.16832000  0.49861700  0.40670400  1
  O  O35  1  0.67612150  0.32608150  0.39994900  1
  O  O36  1  0.33168000  0.49861700  0.90670400  1
  O  O37  1  0.82387850  0.32608150  0.89994900  1
  O  O38  1  0.17612150  0.32608150  0.10005100  1
  O  O39  1  0.32387850  0.32608150  0.60005100  1
  O  O40  1  0.85251000  0.17920600  0.60775000  1
  O  O41  1  0.14749000  0.17920600  0.39225000  1
  O  O42  1  0.85251000  0.67920600  0.89225000  1
  O  O43  1  0.14749000  0.67920600  0.10775000  1
