# generated using pymatgen
data_Cu2(SO4)3
_symmetry_space_group_name_H-M   'P 1'
_cell_length_a   13.41449200
_cell_length_b   8.05178400
_cell_length_c   9.75112418
_cell_angle_alpha   90.00000000
_cell_angle_beta   123.44591480
_cell_angle_gamma   90.00000000
_symmetry_Int_Tables_number   1
_chemical_formula_structural   Cu2(SO4)3
_chemical_formula_sum   'Cu8 S12 O48'
_cell_volume   878.81748920
_cell_formula_units_Z   4
loop_
 _symmetry_equiv_pos_site_id
 _symmetry_equiv_pos_as_xyz
  1  'x, y, z'
loop_
 _atom_site_type_symbol
 _atom_site_label
 _atom_site_symmetry_multiplicity
 _atom_site_fract_x
 _atom_site_fract_y
 _atom_site_fract_z
 _atom_site_occupancy
  Cu  Cu0  1  0.38417050  0.24926750  0.97020400  1
  Cu  Cu1  1  0.38417050  0.75073250  0.47020400  1
  Cu  Cu2  1  0.11582950  0.74926750  0.52979600  1
  Cu  Cu3  1  0.11582950  0.25073250  0.02979600  1
  Cu  Cu4  1  0.88417050  0.74926750  0.97020400  1
  Cu  Cu5  1  0.88417050  0.25073250  0.47020400  1
  Cu  Cu6  1  0.61582950  0.24926750  0.52979600  1
  Cu  Cu7  1  0.61582950  0.75073250  0.02979600  1
  S  S8  1  0.35324450  0.89179350  0.83269600  1
  S  S9  1  0.85324450  0.60820650  0.33269600  1
  S  S10  1  0.00000000  0.96810100  0.75000000  1
  S  S11  1  0.50000000  0.53189900  0.25000000  1
  S  S12  1  0.64675550  0.89179350  0.66730400  1
  S  S13  1  0.14675550  0.60820650  0.16730400  1
  S  S14  1  0.85324450  0.39179350  0.83269600  1
  S  S15  1  0.35324450  0.10820650  0.33269600  1
  S  S16  1  0.50000000  0.46810100  0.75000000  1
  S  S17  1  0.00000000  0.03189900  0.25000000  1
  S  S18  1  0.14675550  0.39179350  0.66730400  1
  S  S19  1  0.64675550  0.10820650  0.16730400  1
  O  O20  1  0.09687700  0.07516700  0.88640900  1
  O  O21  1  0.09687700  0.92483300  0.38640900  1
  O  O22  1  0.33235400  0.80935000  0.94466600  1
  O  O23  1  0.32575300  0.07596000  0.81000600  1
  O  O24  1  0.27917450  0.83176350  0.65671200  1
  O  O25  1  0.83235400  0.69065000  0.44466600  1
  O  O26  1  0.93735300  0.87218400  0.80693500  1
  O  O27  1  0.48049450  0.87695150  0.87605200  1
  O  O28  1  0.32575300  0.92404000  0.31000600  1
  O  O29  1  0.77917450  0.66823650  0.15671200  1
  O  O30  1  0.43735300  0.62781600  0.30693500  1
  O  O31  1  0.51950550  0.87695150  0.62394800  1
  O  O32  1  0.98049450  0.62304850  0.37605200  1
  O  O33  1  0.06264700  0.87218400  0.69306500  1
  O  O34  1  0.72082550  0.83176350  0.84328800  1
  O  O35  1  0.17424700  0.57596000  0.68999400  1
  O  O36  1  0.01950550  0.62304850  0.12394800  1
  O  O37  1  0.56264700  0.62781600  0.19306500  1
  O  O38  1  0.66764600  0.80935000  0.55533400  1
  O  O39  1  0.22082550  0.66823650  0.34328800  1
  O  O40  1  0.17424700  0.42404000  0.18999400  1
  O  O41  1  0.16764600  0.69065000  0.05533400  1
  O  O42  1  0.40312300  0.57516700  0.61359100  1
  O  O43  1  0.40312300  0.42483300  0.11359100  1
  O  O44  1  0.59687700  0.57516700  0.88640900  1
  O  O45  1  0.59687700  0.42483300  0.38640900  1
  O  O46  1  0.83235400  0.30935000  0.94466600  1
  O  O47  1  0.82575300  0.57596000  0.81000600  1
  O  O48  1  0.77917450  0.33176350  0.65671200  1
  O  O49  1  0.33235400  0.19065000  0.44466600  1
  O  O50  1  0.43735300  0.37218400  0.80693500  1
  O  O51  1  0.98049450  0.37695150  0.87605200  1
  O  O52  1  0.82575300  0.42404000  0.31000600  1
  O  O53  1  0.27917450  0.16823650  0.15671200  1
  O  O54  1  0.93735300  0.12781600  0.30693500  1
  O  O55  1  0.01950550  0.37695150  0.62394800  1
  O  O56  1  0.48049450  0.12304850  0.37605200  1
  O  O57  1  0.56264700  0.37218400  0.69306500  1
  O  O58  1  0.22082550  0.33176350  0.84328800  1
  O  O59  1  0.67424700  0.07596000  0.68999400  1
  O  O60  1  0.51950550  0.12304850  0.12394800  1
  O  O61  1  0.06264700  0.12781600  0.19306500  1
  O  O62  1  0.16764600  0.30935000  0.55533400  1
  O  O63  1  0.72082550  0.16823650  0.34328800  1
  O  O64  1  0.67424700  0.92404000  0.18999400  1
  O  O65  1  0.66764600  0.19065000  0.05533400  1
  O  O66  1  0.90312300  0.07516700  0.61359100  1
  O  O67  1  0.90312300  0.92483300  0.11359100  1
