# generated using pymatgen
data_TiO2
_symmetry_space_group_name_H-M   'P 1'
_cell_length_a   2.98860400
_cell_length_b   9.00201100
_cell_length_c   10.77790800
_cell_angle_alpha   90.00000000
_cell_angle_beta   90.00000000
_cell_angle_gamma   90.00000000
_symmetry_Int_Tables_number   1
_chemical_formula_structural   TiO2
_chemical_formula_sum   'Ti8 O16'
_cell_volume   289.96286676
_cell_formula_units_Z   8
loop_
 _symmetry_equiv_pos_site_id
 _symmetry_equiv_pos_as_xyz
  1  'x, y, z'
loop_
 _atom_site_type_symbol
 _atom_site_label
 _atom_site_symmetry_multiplicity
 _atom_site_fract_x
 _atom_site_fract_y
 _atom_site_fract_z
 _atom_site_occupancy
  Ti  Ti0  1  0.75000000  0.94990400  0.88170800  1
  Ti  Ti1  1  0.75000000  0.44990400  0.61829200  1
  Ti  Ti2  1  0.25000000  0.05009600  0.11829200  1
  Ti  Ti3  1  0.25000000  0.55009600  0.38170800  1
  Ti  Ti4  1  0.75000000  0.90962800  0.39931900  1
  Ti  Ti5  1  0.25000000  0.59037200  0.89931900  1
  Ti  Ti6  1  0.75000000  0.40962800  0.10068100  1
  Ti  Ti7  1  0.25000000  0.09037200  0.60068100  1
  O  O8  1  0.75000000  0.11250700  0.48813700  1
  O  O9  1  0.25000000  0.57386400  0.57223800  1
  O  O10  1  0.75000000  0.20140100  0.13995400  1
  O  O11  1  0.25000000  0.29859900  0.63995400  1
  O  O12  1  0.25000000  0.88749300  0.51186300  1
  O  O13  1  0.25000000  0.47104800  0.21655200  1
  O  O14  1  0.25000000  0.79859900  0.86004600  1
  O  O15  1  0.75000000  0.92613600  0.07223800  1
  O  O16  1  0.75000000  0.61250700  0.01186300  1
  O  O17  1  0.75000000  0.52895200  0.78344800  1
  O  O18  1  0.25000000  0.97104800  0.28344800  1
  O  O19  1  0.25000000  0.38749300  0.98813700  1
  O  O20  1  0.75000000  0.02895200  0.71655200  1
  O  O21  1  0.75000000  0.42613600  0.42776200  1
  O  O22  1  0.25000000  0.07386400  0.92776200  1
  O  O23  1  0.75000000  0.70140100  0.36004600  1
