# generated using pymatgen
data_Hf2N2O
_symmetry_space_group_name_H-M   'P 1'
_cell_length_a   8.71382800
_cell_length_b   8.72397752
_cell_length_c   8.74641169
_cell_angle_alpha   109.47940982
_cell_angle_beta   109.43754255
_cell_angle_gamma   109.30725717
_symmetry_Int_Tables_number   1
_chemical_formula_structural   Hf2N2O
_chemical_formula_sum   'Hf16 N16 O8'
_cell_volume   513.02913410
_cell_formula_units_Z   8
loop_
 _symmetry_equiv_pos_site_id
 _symmetry_equiv_pos_as_xyz
  1  'x, y, z'
loop_
 _atom_site_type_symbol
 _atom_site_label
 _atom_site_symmetry_multiplicity
 _atom_site_fract_x
 _atom_site_fract_y
 _atom_site_fract_z
 _atom_site_occupancy
  Hf  Hf0  1  0.78615200  0.03698000  0.75116000  1
  Hf  Hf1  1  0.00308600  0.99889400  0.51013600  1
  Hf  Hf2  1  0.75754000  0.21772800  0.46854400  1
  Hf  Hf3  1  0.24076100  0.27470300  0.03003100  1
  Hf  Hf4  1  0.46920200  0.75710200  0.22316700  1
  Hf  Hf5  1  0.96798600  0.74620200  0.71129900  1
  Hf  Hf6  1  0.48930700  0.99800100  0.98178800  1
  Hf  Hf7  1  0.27841800  0.52918000  0.73613900  1
  Hf  Hf8  1  0.71537800  0.46491600  0.25405300  1
  Hf  Hf9  1  0.00306300  0.51015600  0.01282300  1
  Hf  Hf10  1  0.49490800  0.48983600  0.50251700  1
  Hf  Hf11  1  0.52938600  0.24818000  0.78783200  1
  Hf  Hf12  1  0.04558600  0.25858300  0.28620800  1
  Hf  Hf13  1  0.24940000  0.78752700  0.53281000  1
  Hf  Hf14  1  0.75211000  0.70552800  0.96464800  1
  Hf  Hf15  1  0.21281200  0.96437300  0.24999100  1
  N  N16  1  0.72255800  0.95401500  0.46585200  1
  N  N17  1  0.73510800  0.46214800  0.50878500  1
  N  N18  1  0.98559600  0.26405300  0.03444700  1
  N  N19  1  0.96347500  0.72633100  0.45061000  1
  N  N20  1  0.77440800  0.51066500  0.04621000  1
  N  N21  1  0.53826600  0.99123000  0.76488700  1
  N  N22  1  0.03155400  0.27490000  0.54524300  1
  N  N23  1  0.27450600  0.22593600  0.26108200  1
  N  N24  1  0.22969300  0.76182900  0.77639600  1
  N  N25  1  0.00650000  0.73867700  0.96607200  1
  N  N26  1  0.45545500  0.22750200  0.99164300  1
  N  N27  1  0.26201300  0.53359000  0.48493700  1
  N  N28  1  0.24464600  0.72804200  0.27047500  1
  N  N29  1  0.04450200  0.03242400  0.77305000  1
  N  N30  1  0.49302300  0.46165200  0.73025200  1
  N  N31  1  0.27173900  0.04891100  0.53156800  1
  O  O32  1  0.51166500  0.54774400  0.27001800  1
  O  O33  1  0.94968300  0.96456700  0.22404300  1
  O  O34  1  0.76495200  0.27423700  0.72671700  1
  O  O35  1  0.55051200  0.77740700  0.01986100  1
  O  O36  1  0.76906600  0.23351700  0.22709400  1
  O  O37  1  0.23429300  0.48884200  0.95642000  1
  O  O38  1  0.72498900  0.77334600  0.73591300  1
  O  O39  1  0.46670100  0.01054700  0.23527800  1
