# generated using pymatgen
data_LiH2ClO
_symmetry_space_group_name_H-M   'P 1'
_cell_length_a   7.66970600
_cell_length_b   7.84775800
_cell_length_c   7.70825900
_cell_angle_alpha   90.00000000
_cell_angle_beta   90.00000000
_cell_angle_gamma   90.00000000
_symmetry_Int_Tables_number   1
_chemical_formula_structural   LiH2ClO
_chemical_formula_sum   'Li8 H16 Cl8 O8'
_cell_volume   463.96008315
_cell_formula_units_Z   8
loop_
 _symmetry_equiv_pos_site_id
 _symmetry_equiv_pos_as_xyz
  1  'x, y, z'
loop_
 _atom_site_type_symbol
 _atom_site_label
 _atom_site_symmetry_multiplicity
 _atom_site_fract_x
 _atom_site_fract_y
 _atom_site_fract_z
 _atom_site_occupancy
  Li  Li0  1  0.50000000  0.00000000  0.00000000  1
  Li  Li1  1  0.50000000  0.00000000  0.50000000  1
  Li  Li2  1  0.50000000  0.67973100  0.75000000  1
  Li  Li3  1  0.50000000  0.32026900  0.25000000  1
  Li  Li4  1  0.00000000  0.50000000  0.00000000  1
  Li  Li5  1  0.00000000  0.50000000  0.50000000  1
  Li  Li6  1  0.00000000  0.17973100  0.75000000  1
  Li  Li7  1  0.00000000  0.82026900  0.25000000  1
  H  H8  1  0.39931150  0.68849250  0.06973600  1
  H  H9  1  0.39931150  0.68849250  0.43026400  1
  H  H10  1  0.39931150  0.31150750  0.56973600  1
  H  H11  1  0.39931150  0.31150750  0.93026400  1
  H  H12  1  0.60068850  0.68849250  0.06973600  1
  H  H13  1  0.60068850  0.31150750  0.56973600  1
  H  H14  1  0.60068850  0.68849250  0.43026400  1
  H  H15  1  0.60068850  0.31150750  0.93026400  1
  H  H16  1  0.89931150  0.18849250  0.06973600  1
  H  H17  1  0.89931150  0.18849250  0.43026400  1
  H  H18  1  0.89931150  0.81150750  0.56973600  1
  H  H19  1  0.89931150  0.81150750  0.93026400  1
  H  H20  1  0.10068850  0.18849250  0.06973600  1
  H  H21  1  0.10068850  0.81150750  0.56973600  1
  H  H22  1  0.10068850  0.18849250  0.43026400  1
  H  H23  1  0.10068850  0.81150750  0.93026400  1
  Cl  Cl24  1  0.25626050  0.02965350  0.25000000  1
  Cl  Cl25  1  0.25626050  0.97034650  0.75000000  1
  Cl  Cl26  1  0.74373950  0.97034650  0.75000000  1
  Cl  Cl27  1  0.74373950  0.02965350  0.25000000  1
  Cl  Cl28  1  0.75626050  0.52965350  0.25000000  1
  Cl  Cl29  1  0.75626050  0.47034650  0.75000000  1
  Cl  Cl30  1  0.24373950  0.47034650  0.75000000  1
  Cl  Cl31  1  0.24373950  0.52965350  0.25000000  1
  O  O32  1  0.50000000  0.26099300  0.50631700  1
  O  O33  1  0.50000000  0.73900700  0.00631700  1
  O  O34  1  0.50000000  0.73900700  0.49368300  1
  O  O35  1  0.50000000  0.26099300  0.99368300  1
  O  O36  1  0.00000000  0.76099300  0.50631700  1
  O  O37  1  0.00000000  0.23900700  0.00631700  1
  O  O38  1  0.00000000  0.23900700  0.49368300  1
  O  O39  1  0.00000000  0.76099300  0.99368300  1
