# generated using pymatgen
data_La3GaO6
_symmetry_space_group_name_H-M   'P 1'
_cell_length_a   9.47013400
_cell_length_b   11.88181200
_cell_length_c   5.70720500
_cell_angle_alpha   90.00000000
_cell_angle_beta   90.00000000
_cell_angle_gamma   90.00000000
_symmetry_Int_Tables_number   1
_chemical_formula_structural   La3GaO6
_chemical_formula_sum   'La12 Ga4 O24'
_cell_volume   642.18812882
_cell_formula_units_Z   4
loop_
 _symmetry_equiv_pos_site_id
 _symmetry_equiv_pos_as_xyz
  1  'x, y, z'
loop_
 _atom_site_type_symbol
 _atom_site_label
 _atom_site_symmetry_multiplicity
 _atom_site_fract_x
 _atom_site_fract_y
 _atom_site_fract_z
 _atom_site_occupancy
  La  La0  1  0.19343000  0.89310400  0.53285000  1
  La  La1  1  0.19343000  0.10689600  0.03285000  1
  La  La2  1  0.50000000  0.10430200  0.57290300  1
  La  La3  1  0.50000000  0.89569800  0.07290300  1
  La  La4  1  0.80657000  0.89310400  0.53285000  1
  La  La5  1  0.80657000  0.10689600  0.03285000  1
  La  La6  1  0.69343000  0.39310400  0.53285000  1
  La  La7  1  0.69343000  0.60689600  0.03285000  1
  La  La8  1  0.00000000  0.60430200  0.57290300  1
  La  La9  1  0.00000000  0.39569800  0.07290300  1
  La  La10  1  0.30657000  0.39310400  0.53285000  1
  La  La11  1  0.30657000  0.60689600  0.03285000  1
  Ga  Ga12  1  0.50000000  0.30635800  0.99563800  1
  Ga  Ga13  1  0.50000000  0.69364200  0.49563800  1
  Ga  Ga14  1  0.00000000  0.80635800  0.99563800  1
  Ga  Ga15  1  0.00000000  0.19364200  0.49563800  1
  O  O16  1  0.34027100  0.98618700  0.80036900  1
  O  O17  1  0.34027100  0.01381300  0.30036900  1
  O  O18  1  0.34820200  0.76249900  0.33008200  1
  O  O19  1  0.34820200  0.23750100  0.83008200  1
  O  O20  1  0.50000000  0.45381800  0.87118700  1
  O  O21  1  0.50000000  0.28518000  0.31972300  1
  O  O22  1  0.50000000  0.71482000  0.81972300  1
  O  O23  1  0.50000000  0.54618200  0.37118700  1
  O  O24  1  0.65179800  0.76249900  0.33008200  1
  O  O25  1  0.65179800  0.23750100  0.83008200  1
  O  O26  1  0.65972900  0.98618700  0.80036900  1
  O  O27  1  0.65972900  0.01381300  0.30036900  1
  O  O28  1  0.84027100  0.48618700  0.80036900  1
  O  O29  1  0.84027100  0.51381300  0.30036900  1
  O  O30  1  0.84820200  0.26249900  0.33008200  1
  O  O31  1  0.84820200  0.73750100  0.83008200  1
  O  O32  1  0.00000000  0.95381800  0.87118700  1
  O  O33  1  0.00000000  0.78518000  0.31972300  1
  O  O34  1  0.00000000  0.21482000  0.81972300  1
  O  O35  1  0.00000000  0.04618200  0.37118700  1
  O  O36  1  0.15179800  0.26249900  0.33008200  1
  O  O37  1  0.15179800  0.73750100  0.83008200  1
  O  O38  1  0.15972900  0.48618700  0.80036900  1
  O  O39  1  0.15972900  0.51381300  0.30036900  1
