# generated using pymatgen
data_BaYF5
_symmetry_space_group_name_H-M   'P 1'
_cell_length_a   5.73670000
_cell_length_b   10.29858500
_cell_length_c   8.18318488
_cell_angle_alpha   90.00000000
_cell_angle_beta   91.11514585
_cell_angle_gamma   90.00000000
_symmetry_Int_Tables_number   1
_chemical_formula_structural   BaYF5
_chemical_formula_sum   'Ba4 Y4 F20'
_cell_volume   483.37011684
_cell_formula_units_Z   4
loop_
 _symmetry_equiv_pos_site_id
 _symmetry_equiv_pos_as_xyz
  1  'x, y, z'
loop_
 _atom_site_type_symbol
 _atom_site_label
 _atom_site_symmetry_multiplicity
 _atom_site_fract_x
 _atom_site_fract_y
 _atom_site_fract_z
 _atom_site_occupancy
  Ba  Ba0  1  0.98834700  0.98159900  0.82535200  1
  Ba  Ba1  1  0.49850700  0.65788400  0.63770600  1
  Ba  Ba2  1  0.50149300  0.15788400  0.36229400  1
  Ba  Ba3  1  0.01165300  0.48159900  0.17464800  1
  Y  Y4  1  0.99379000  0.37327800  0.61992100  1
  Y  Y5  1  0.49903400  0.78954200  0.09945500  1
  Y  Y6  1  0.50096600  0.28954200  0.90054500  1
  Y  Y7  1  0.00621000  0.87327800  0.38007900  1
  F  F8  1  0.00867500  0.23196000  0.42215600  1
  F  F9  1  0.78061600  0.44656200  0.83740900  1
  F  F10  1  0.83577000  0.71488900  0.23013200  1
  F  F11  1  0.76070500  0.48684900  0.46465600  1
  F  F12  1  0.73298000  0.77917000  0.89259000  1
  F  F13  1  0.74791500  0.96110600  0.54015000  1
  F  F14  1  0.73019600  0.28833800  0.11694600  1
  F  F15  1  0.65666800  0.25187200  0.65123000  1
  F  F16  1  0.72139300  0.95684900  0.20796700  1
  F  F17  1  0.56467300  0.08160300  0.91082300  1
  F  F18  1  0.43532700  0.58160300  0.08917700  1
  F  F19  1  0.27860700  0.45684900  0.79203300  1
  F  F20  1  0.34333200  0.75187200  0.34877000  1
  F  F21  1  0.26980400  0.78833800  0.88305400  1
  F  F22  1  0.25208500  0.46110600  0.45985000  1
  F  F23  1  0.26702000  0.27917000  0.10741000  1
  F  F24  1  0.23929500  0.98684900  0.53534400  1
  F  F25  1  0.16423000  0.21488900  0.76986800  1
  F  F26  1  0.21938400  0.94656200  0.16259100  1
  F  F27  1  0.99132500  0.73196000  0.57784400  1
