# generated using pymatgen
data_MgPH16NO10
_symmetry_space_group_name_H-M   'P 1'
_cell_length_a   6.09364500
_cell_length_b   7.05598700
_cell_length_c   11.28695500
_cell_angle_alpha   90.00000000
_cell_angle_beta   90.00000000
_cell_angle_gamma   90.00000000
_symmetry_Int_Tables_number   1
_chemical_formula_structural   MgPH16NO10
_chemical_formula_sum   'Mg2 P2 H32 N2 O20'
_cell_volume   485.30159121
_cell_formula_units_Z   2
loop_
 _symmetry_equiv_pos_site_id
 _symmetry_equiv_pos_as_xyz
  1  'x, y, z'
loop_
 _atom_site_type_symbol
 _atom_site_label
 _atom_site_symmetry_multiplicity
 _atom_site_fract_x
 _atom_site_fract_y
 _atom_site_fract_z
 _atom_site_occupancy
  Mg  Mg0  1  0.37528900  0.50000000  0.87171000  1
  Mg  Mg1  1  0.62471100  0.00000000  0.37171000  1
  P  P2  1  0.98862600  0.50000000  0.50028000  1
  P  P3  1  0.01137400  0.00000000  0.00028000  1
  H  H4  1  0.71495900  0.50000000  0.69639400  1
  H  H5  1  0.28504100  0.00000000  0.19639400  1
  H  H6  1  0.82407000  0.50000000  0.82617900  1
  H  H7  1  0.17593000  0.00000000  0.32617900  1
  H  H8  1  0.00447200  0.38344100  0.99913200  1
  H  H9  1  0.00447200  0.61655900  0.99913200  1
  H  H10  1  0.99552800  0.11655900  0.49913200  1
  H  H11  1  0.99552800  0.88344100  0.49913200  1
  H  H12  1  0.20271600  0.30267300  0.67790200  1
  H  H13  1  0.20271600  0.69732700  0.67790200  1
  H  H14  1  0.79728400  0.19732700  0.17790200  1
  H  H15  1  0.79728400  0.80267300  0.17790200  1
  H  H16  1  0.16985400  0.18370400  0.79858800  1
  H  H17  1  0.16985400  0.81629600  0.79858800  1
  H  H18  1  0.83014600  0.31629600  0.29858800  1
  H  H19  1  0.83014600  0.68370400  0.29858800  1
  H  H20  1  0.64060600  0.25409600  0.00003100  1
  H  H21  1  0.64060600  0.74590400  0.00003100  1
  H  H22  1  0.35939400  0.24590400  0.50003100  1
  H  H23  1  0.35939400  0.75409600  0.50003100  1
  H  H24  1  0.39468100  0.17903700  0.01118900  1
  H  H25  1  0.39468100  0.82096300  0.01118900  1
  H  H26  1  0.60531900  0.32096300  0.51118900  1
  H  H27  1  0.60531900  0.67903700  0.51118900  1
  H  H28  1  0.21826500  0.50000000  0.28404800  1
  H  H29  1  0.78173500  0.00000000  0.78404800  1
  H  H30  1  0.33675600  0.50000000  0.14361500  1
  H  H31  1  0.66324400  0.00000000  0.64361500  1
  H  H32  1  0.46056900  0.38081100  0.25156200  1
  H  H33  1  0.46056900  0.61918900  0.25156200  1
  H  H34  1  0.53943100  0.11918900  0.75156200  1
  H  H35  1  0.53943100  0.88081100  0.75156200  1
  N  N36  1  0.36595900  0.50000000  0.23394700  1
  N  N37  1  0.63404100  0.00000000  0.73394700  1
  O  O38  1  0.97628600  0.50000000  0.36206800  1
  O  O39  1  0.02371400  0.00000000  0.86206800  1
  O  O40  1  0.75109200  0.50000000  0.55170000  1
  O  O41  1  0.24890800  0.00000000  0.05170000  1
  O  O42  1  0.11044100  0.31870300  0.54398700  1
  O  O43  1  0.11044100  0.68129700  0.54398700  1
  O  O44  1  0.88955900  0.18129700  0.04398700  1
  O  O45  1  0.88955900  0.81870300  0.04398700  1
  O  O46  1  0.68304900  0.50000000  0.78422400  1
  O  O47  1  0.31695100  0.00000000  0.28422400  1
  O  O48  1  0.06593300  0.50000000  0.95981300  1
  O  O49  1  0.93406700  0.00000000  0.45981300  1
  O  O50  1  0.26243100  0.28417400  0.76055800  1
  O  O51  1  0.26243100  0.71582600  0.76055800  1
  O  O52  1  0.73756900  0.21582600  0.26055800  1
  O  O53  1  0.73756900  0.78417400  0.26055800  1
  O  O54  1  0.48443500  0.29381700  0.98881200  1
  O  O55  1  0.48443500  0.70618300  0.98881200  1
  O  O56  1  0.51556500  0.20618300  0.48881200  1
  O  O57  1  0.51556500  0.79381700  0.48881200  1
