# generated using pymatgen
data_BaSrI4
_symmetry_space_group_name_H-M   'P 1'
_cell_length_a   24.27244866
_cell_length_b   24.27244866
_cell_length_c   10.35702602
_cell_angle_alpha   90.00000000
_cell_angle_beta   90.00000000
_cell_angle_gamma   120.00000000
_symmetry_Int_Tables_number   1
_chemical_formula_structural   BaSrI4
_chemical_formula_sum   'Ba18 Sr18 I72'
_cell_volume   5284.36589661
_cell_formula_units_Z   18
loop_
 _symmetry_equiv_pos_site_id
 _symmetry_equiv_pos_as_xyz
  1  'x, y, z'
loop_
 _atom_site_type_symbol
 _atom_site_label
 _atom_site_symmetry_multiplicity
 _atom_site_fract_x
 _atom_site_fract_y
 _atom_site_fract_z
 _atom_site_occupancy
  Ba  Ba0  1  0.53434467  0.89265433  0.74981633  1
  Ba  Ba1  1  0.10734567  0.46565533  0.24981633  1
  Ba  Ba2  1  0.69164300  0.13232200  0.41648300  1
  Ba  Ba3  1  0.86767800  0.30835700  0.91648300  1
  Ba  Ba4  1  0.02497633  0.22598767  0.58314967  1
  Ba  Ba5  1  0.77401233  0.97502367  0.08314967  1
  Ba  Ba6  1  0.20101133  0.22598767  0.08314967  1
  Ba  Ba7  1  0.77401233  0.79898867  0.58314967  1
  Ba  Ba8  1  0.35830967  0.46565533  0.74981633  1
  Ba  Ba9  1  0.53434467  0.64169033  0.24981633  1
  Ba  Ba10  1  0.69164300  0.55932100  0.91648300  1
  Ba  Ba11  1  0.44067900  0.30835700  0.41648300  1
  Ba  Ba12  1  0.86767800  0.55932100  0.41648300  1
  Ba  Ba13  1  0.44067900  0.13232200  0.91648300  1
  Ba  Ba14  1  0.02497633  0.79898867  0.08314967  1
  Ba  Ba15  1  0.20101133  0.97502367  0.58314967  1
  Ba  Ba16  1  0.35830967  0.89265433  0.24981633  1
  Ba  Ba17  1  0.10734567  0.64169033  0.74981633  1
  Sr  Sr18  1  0.98089067  0.19714633  0.11361133  1
  Sr  Sr19  1  0.80285367  0.01910933  0.61361133  1
  Sr  Sr20  1  0.64755733  0.11707767  0.94694467  1
  Sr  Sr21  1  0.88292233  0.35244267  0.44694467  1
  Sr  Sr22  1  0.54958900  0.86381300  0.28027800  1
  Sr  Sr23  1  0.13618700  0.45041100  0.78027800  1
  Sr  Sr24  1  0.64755733  0.53047967  0.44694467  1
  Sr  Sr25  1  0.46952033  0.35244267  0.94694467  1
  Sr  Sr26  1  0.31422400  0.45041100  0.28027800  1
  Sr  Sr27  1  0.54958900  0.68577600  0.78027800  1
  Sr  Sr28  1  0.21625567  0.19714633  0.61361133  1
  Sr  Sr29  1  0.80285367  0.78374433  0.11361133  1
  Sr  Sr30  1  0.31422400  0.86381300  0.78027800  1
  Sr  Sr31  1  0.13618700  0.68577600  0.28027800  1
  Sr  Sr32  1  0.98089067  0.78374433  0.61361133  1
  Sr  Sr33  1  0.21625567  0.01910933  0.11361133  1
  Sr  Sr34  1  0.88292233  0.53047967  0.94694467  1
  Sr  Sr35  1  0.46952033  0.11707767  0.44694467  1
  I  I36  1  0.04877200  0.12082500  0.02965000  1
  I  I37  1  0.95026833  0.31949167  0.20403567  1
  I  I38  1  0.55266300  0.78717200  0.53883600  1
  I  I39  1  0.10892467  0.28868533  0.28402633  1
  I  I40  1  0.71131467  0.89107533  0.78402633  1
  I  I41  1  0.21282800  0.44733700  0.03883600  1
  I  I42  1  0.68050833  0.04973167  0.70403567  1
  I  I43  1  0.70255667  0.98615833  0.37070233  1
  I  I44  1  0.87917500  0.95122800  0.52965000  1
  I  I45  1  0.77559133  0.15357267  0.11735967  1
  I  I46  1  0.71543867  0.26128033  0.86298333  1
  I  I47  1  0.87949467  0.09882433  0.87216933  1
  I  I48  1  0.90117567  0.12050533  0.37216933  1
  I  I49  1  0.73871967  0.28456133  0.36298333  1
  I  I50  1  0.84642733  0.22440867  0.61735967  1
  I  I51  1  0.40538633  0.78749167  0.19631667  1
  I  I52  1  0.01384167  0.29744333  0.87070233  1
  I  I53  1  0.88599633  0.43215767  0.70550267  1
  I  I54  1  0.03589000  0.38306500  0.53736900  1
  I  I55  1  0.51309400  0.95535200  0.45069300  1
  I  I56  1  0.04464800  0.48690600  0.95069300  1
  I  I57  1  0.61693500  0.96411000  0.03736900  1
  I  I58  1  0.56784233  0.11400367  0.20550267  1
  I  I59  1  0.21250833  0.59461367  0.69631667  1
  I  I60  1  0.71543867  0.45415833  0.36298333  1
  I  I61  1  0.61693500  0.65282500  0.53736900  1
  I  I62  1  0.21932967  0.12050533  0.87216933  1
  I  I63  1  0.77559133  0.62201867  0.61735967  1
  I  I64  1  0.37798133  0.22440867  0.11735967  1
  I  I65  1  0.87949467  0.78067033  0.37216933  1
  I  I66  1  0.34717500  0.38306500  0.03736900  1
  I  I67  1  0.36922333  0.31949167  0.70403567  1
  I  I68  1  0.54584167  0.28456133  0.86298333  1
  I  I69  1  0.44225800  0.48690600  0.45069300  1
  I  I70  1  0.38210533  0.59461367  0.19631667  1
  I  I71  1  0.54616133  0.43215767  0.20550267  1
  I  I72  1  0.56784233  0.45383867  0.70550267  1
  I  I73  1  0.40538633  0.61789467  0.69631667  1
  I  I74  1  0.51309400  0.55774200  0.95069300  1
  I  I75  1  0.07205300  0.12082500  0.52965000  1
  I  I76  1  0.68050833  0.63077667  0.20403567  1
  I  I77  1  0.55266300  0.76549100  0.03883600  1
  I  I78  1  0.70255667  0.71639833  0.87070233  1
  I  I79  1  0.17976067  0.28868533  0.78402633  1
  I  I80  1  0.71131467  0.82023933  0.28402633  1
  I  I81  1  0.28360167  0.29744333  0.37070233  1
  I  I82  1  0.23450900  0.44733700  0.53883600  1
  I  I83  1  0.87917500  0.92794700  0.02965000  1
  I  I84  1  0.38210533  0.78749167  0.69631667  1
  I  I85  1  0.28360167  0.98615833  0.87070233  1
  I  I86  1  0.88599633  0.45383867  0.20550267  1
  I  I87  1  0.44225800  0.95535200  0.95069300  1
  I  I88  1  0.04464800  0.55774200  0.45069300  1
  I  I89  1  0.54616133  0.11400367  0.70550267  1
  I  I90  1  0.01384167  0.71639833  0.37070233  1
  I  I91  1  0.03589000  0.65282500  0.03736900  1
  I  I92  1  0.21250833  0.61789467  0.19631667  1
  I  I93  1  0.10892467  0.82023933  0.78402633  1
  I  I94  1  0.04877200  0.92794700  0.52965000  1
  I  I95  1  0.21282800  0.76549100  0.53883600  1
  I  I96  1  0.23450900  0.78717200  0.03883600  1
  I  I97  1  0.07205300  0.95122800  0.02965000  1
  I  I98  1  0.17976067  0.89107533  0.28402633  1
  I  I99  1  0.73871967  0.45415833  0.86298333  1
  I  I100  1  0.34717500  0.96411000  0.53736900  1
  I  I101  1  0.21932967  0.09882433  0.37216933  1
  I  I102  1  0.36922333  0.04973167  0.20403567  1
  I  I103  1  0.84642733  0.62201867  0.11735967  1
  I  I104  1  0.37798133  0.15357267  0.61735967  1
  I  I105  1  0.95026833  0.63077667  0.70403567  1
  I  I106  1  0.90117567  0.78067033  0.87216933  1
  I  I107  1  0.54584167  0.26128033  0.36298333  1
