# generated using pymatgen
data_SmP2H9O11
_symmetry_space_group_name_H-M   'P 1'
_cell_length_a   6.70710900
_cell_length_b   11.63768100
_cell_length_c   13.49775292
_cell_angle_alpha   90.00000000
_cell_angle_beta   118.22069164
_cell_angle_gamma   90.00000000
_symmetry_Int_Tables_number   1
_chemical_formula_structural   SmP2H9O11
_chemical_formula_sum   'Sm4 P8 H36 O44'
_cell_volume   928.33478705
_cell_formula_units_Z   4
loop_
 _symmetry_equiv_pos_site_id
 _symmetry_equiv_pos_as_xyz
  1  'x, y, z'
loop_
 _atom_site_type_symbol
 _atom_site_label
 _atom_site_symmetry_multiplicity
 _atom_site_fract_x
 _atom_site_fract_y
 _atom_site_fract_z
 _atom_site_occupancy
  Sm  Sm0  1  0.08037600  0.08088400  0.33512100  1
  Sm  Sm1  1  0.08037600  0.41911600  0.83512100  1
  Sm  Sm2  1  0.91962400  0.91911600  0.66487900  1
  Sm  Sm3  1  0.91962400  0.58088400  0.16487900  1
  P  P4  1  0.60336600  0.95111200  0.35700600  1
  P  P5  1  0.60336600  0.54888800  0.85700600  1
  P  P6  1  0.39663400  0.04888800  0.64299400  1
  P  P7  1  0.39663400  0.45111200  0.14299400  1
  P  P8  1  0.18162400  0.86557900  0.16183200  1
  P  P9  1  0.18162400  0.63442100  0.66183200  1
  P  P10  1  0.81837600  0.13442100  0.83816800  1
  P  P11  1  0.81837600  0.36557900  0.33816800  1
  H  H12  1  0.25849100  0.00775500  0.07414400  1
  H  H13  1  0.25849100  0.49224500  0.57414400  1
  H  H14  1  0.74150900  0.99224500  0.92585600  1
  H  H15  1  0.74150900  0.50775500  0.42585600  1
  H  H16  1  0.04360600  0.86125700  0.45575900  1
  H  H17  1  0.04360600  0.63874300  0.95575900  1
  H  H18  1  0.95639400  0.13874300  0.54424100  1
  H  H19  1  0.95639400  0.36125700  0.04424100  1
  H  H20  1  0.30794100  0.88268200  0.50377600  1
  H  H21  1  0.30794100  0.61731800  0.00377600  1
  H  H22  1  0.69205900  0.11731800  0.49622400  1
  H  H23  1  0.69205900  0.38268200  0.99622400  1
  H  H24  1  0.82903100  0.24095400  0.12616100  1
  H  H25  1  0.82903100  0.25904600  0.62616100  1
  H  H26  1  0.17096900  0.75904600  0.87383900  1
  H  H27  1  0.17096900  0.74095400  0.37383900  1
  H  H28  1  0.82498200  0.11551200  0.08370000  1
  H  H29  1  0.82498200  0.38448800  0.58370000  1
  H  H30  1  0.17501800  0.88448800  0.91630000  1
  H  H31  1  0.17501800  0.61551200  0.41630000  1
  H  H32  1  0.20506800  0.33404100  0.31649900  1
  H  H33  1  0.20506800  0.16595900  0.81649900  1
  H  H34  1  0.79493200  0.66595900  0.68350100  1
  H  H35  1  0.79493200  0.83404100  0.18350100  1
  H  H36  1  0.38345400  0.25812800  0.30039700  1
  H  H37  1  0.38345400  0.24187200  0.80039700  1
  H  H38  1  0.61654600  0.74187200  0.69960300  1
  H  H39  1  0.61654600  0.75812800  0.19960300  1
  H  H40  1  0.27918700  0.20089100  0.05903600  1
  H  H41  1  0.27918700  0.29910900  0.55903600  1
  H  H42  1  0.72081300  0.79910900  0.94096400  1
  H  H43  1  0.72081300  0.70089100  0.44096400  1
  H  H44  1  0.49547000  0.13695500  0.14753900  1
  H  H45  1  0.49547000  0.36304500  0.64753900  1
  H  H46  1  0.50453000  0.86304500  0.85246100  1
  H  H47  1  0.50453000  0.63695500  0.35246100  1
  O  O48  1  0.45736000  0.04041100  0.37586000  1
  O  O49  1  0.45736000  0.45958900  0.87586000  1
  O  O50  1  0.54264000  0.95958900  0.62414000  1
  O  O51  1  0.54264000  0.54041100  0.12414000  1
  O  O52  1  0.73553400  0.99965800  0.30080900  1
  O  O53  1  0.73553400  0.50034200  0.80080900  1
  O  O54  1  0.26446600  0.00034200  0.69919100  1
  O  O55  1  0.26446600  0.49965800  0.19919100  1
  O  O56  1  0.75525400  0.88255700  0.46382300  1
  O  O57  1  0.75525400  0.61744300  0.96382300  1
  O  O58  1  0.24474600  0.11744300  0.53617700  1
  O  O59  1  0.24474600  0.38255700  0.03617700  1
  O  O60  1  0.22022300  0.92088300  0.06494100  1
  O  O61  1  0.22022300  0.57911700  0.56494100  1
  O  O62  1  0.77977700  0.07911700  0.93505900  1
  O  O63  1  0.77977700  0.42088300  0.43505900  1
  O  O64  1  0.03663100  0.94135300  0.19396900  1
  O  O65  1  0.03663100  0.55864700  0.69396900  1
  O  O66  1  0.96336900  0.05864700  0.80603100  1
  O  O67  1  0.96336900  0.44135300  0.30603100  1
  O  O68  1  0.10234100  0.74391900  0.12954700  1
  O  O69  1  0.10234100  0.75608100  0.62954700  1
  O  O70  1  0.89765900  0.25608100  0.87045300  1
  O  O71  1  0.89765900  0.24391900  0.37045300  1
  O  O72  1  0.43265500  0.85392500  0.26993900  1
  O  O73  1  0.43265500  0.64607500  0.76993900  1
  O  O74  1  0.56734500  0.14607500  0.73006100  1
  O  O75  1  0.56734500  0.35392500  0.23006100  1
  O  O76  1  0.16240400  0.87475600  0.43323000  1
  O  O77  1  0.16240400  0.62524400  0.93323000  1
  O  O78  1  0.83759600  0.12524400  0.56677000  1
  O  O79  1  0.83759600  0.37475600  0.06677000  1
  O  O80  1  0.83090100  0.15902600  0.14762400  1
  O  O81  1  0.83090100  0.34097400  0.64762400  1
  O  O82  1  0.16909900  0.84097400  0.85237600  1
  O  O83  1  0.16909900  0.65902600  0.35237600  1
  O  O84  1  0.27415400  0.25748000  0.32928600  1
  O  O85  1  0.27415400  0.24252000  0.82928600  1
  O  O86  1  0.72584600  0.74252000  0.67071400  1
  O  O87  1  0.72584600  0.75748000  0.17071400  1
  O  O88  1  0.32994400  0.13205200  0.10635500  1
  O  O89  1  0.32994400  0.36794800  0.60635500  1
  O  O90  1  0.67005600  0.86794800  0.89364500  1
  O  O91  1  0.67005600  0.63205200  0.39364500  1
