# generated using pymatgen
data_Y11Ta5O28
_symmetry_space_group_name_H-M   'P 1'
_cell_length_a   7.46711100
_cell_length_b   7.45168500
_cell_length_c   10.53476177
_cell_angle_alpha   90.00000000
_cell_angle_beta   90.43796385
_cell_angle_gamma   90.00000000
_symmetry_Int_Tables_number   1
_chemical_formula_structural   Y11Ta5O28
_chemical_formula_sum   'Y11 Ta5 O28'
_cell_volume   586.16397857
_cell_formula_units_Z   1
loop_
 _symmetry_equiv_pos_site_id
 _symmetry_equiv_pos_as_xyz
  1  'x, y, z'
loop_
 _atom_site_type_symbol
 _atom_site_label
 _atom_site_symmetry_multiplicity
 _atom_site_fract_x
 _atom_site_fract_y
 _atom_site_fract_z
 _atom_site_occupancy
  Y  Y0  1  0.52202700  0.24255300  0.99657200  1
  Y  Y1  1  0.52202700  0.75744700  0.99657200  1
  Y  Y2  1  0.73310800  0.00000000  0.73039400  1
  Y  Y3  1  0.76494600  0.50000000  0.76211900  1
  Y  Y4  1  0.26710700  0.00000000  0.73244700  1
  Y  Y5  1  0.24851400  0.50000000  0.75709900  1
  Y  Y6  1  0.99615800  0.75208000  0.50316900  1
  Y  Y7  1  0.99615800  0.24792000  0.50316900  1
  Y  Y8  1  0.23646600  0.00000000  0.24371900  1
  Y  Y9  1  0.76155000  0.00000000  0.24507600  1
  Y  Y10  1  0.73563800  0.50000000  0.26525700  1
  Ta  Ta11  1  0.00183600  0.25144700  0.00332000  1
  Ta  Ta12  1  0.00183600  0.74855300  0.00332000  1
  Ta  Ta13  1  0.50473600  0.72481100  0.51339200  1
  Ta  Ta14  1  0.50473600  0.27518900  0.51339200  1
  Ta  Ta15  1  0.27009000  0.50000000  0.27352100  1
  O  O16  1  0.80287800  0.21533700  0.87975700  1
  O  O17  1  0.80287800  0.78466300  0.87975700  1
  O  O18  1  0.20202600  0.21930200  0.88621100  1
  O  O19  1  0.20202600  0.78069800  0.88621100  1
  O  O20  1  0.50243900  0.00000000  0.86560800  1
  O  O21  1  0.50641000  0.50000000  0.87871200  1
  O  O22  1  0.99992000  0.00000000  0.63292200  1
  O  O23  1  0.00200000  0.50000000  0.63608200  1
  O  O24  1  0.28598100  0.73270600  0.62093000  1
  O  O25  1  0.28598100  0.26729400  0.62093000  1
  O  O26  1  0.71592500  0.26913800  0.62794000  1
  O  O27  1  0.71592500  0.73086200  0.62794000  1
  O  O28  1  0.49885000  0.00000000  0.56934100  1
  O  O29  1  0.48968300  0.50000000  0.40414800  1
  O  O30  1  0.30234600  0.24671900  0.36402100  1
  O  O31  1  0.30234600  0.75328100  0.36402100  1
  O  O32  1  0.70669600  0.23140200  0.38273200  1
  O  O33  1  0.70669600  0.76859800  0.38273200  1
  O  O34  1  0.00465200  0.00000000  0.36801900  1
  O  O35  1  0.02432200  0.50000000  0.36092600  1
  O  O36  1  0.49304400  0.00000000  0.13381200  1
  O  O37  1  0.47294100  0.50000000  0.15264900  1
  O  O38  1  0.78474800  0.27527900  0.12199700  1
  O  O39  1  0.78474800  0.72472100  0.12199700  1
  O  O40  1  0.16438900  0.31674200  0.14425300  1
  O  O41  1  0.16438900  0.68325800  0.14425300  1
  O  O42  1  0.01674000  0.00000000  0.07632400  1
  O  O43  1  0.99208800  0.50000000  0.93543400  1
