# generated using pymatgen
data_CdBiO3
_symmetry_space_group_name_H-M   'P 1'
_cell_length_a   5.89766630
_cell_length_b   5.89766630
_cell_length_c   15.17280680
_cell_angle_alpha   90.00000000
_cell_angle_beta   90.00000000
_cell_angle_gamma   120.00000000
_symmetry_Int_Tables_number   1
_chemical_formula_structural   CdBiO3
_chemical_formula_sum   'Cd6 Bi6 O18'
_cell_volume   457.04288306
_cell_formula_units_Z   6
loop_
 _symmetry_equiv_pos_site_id
 _symmetry_equiv_pos_as_xyz
  1  'x, y, z'
loop_
 _atom_site_type_symbol
 _atom_site_label
 _atom_site_symmetry_multiplicity
 _atom_site_fract_x
 _atom_site_fract_y
 _atom_site_fract_z
 _atom_site_occupancy
  Cd  Cd0  1  0.33333333  0.66666667  0.30273467  1
  Cd  Cd1  1  0.33333333  0.66666667  0.03178767  1
  Cd  Cd2  1  0.00000000  0.00000000  0.63606800  1
  Cd  Cd3  1  0.00000000  0.00000000  0.36512100  1
  Cd  Cd4  1  0.66666667  0.33333333  0.96940133  1
  Cd  Cd5  1  0.66666667  0.33333333  0.69845433  1
  Bi  Bi6  1  0.66666667  0.33333333  0.19145133  1
  Bi  Bi7  1  0.00000000  0.00000000  0.15033000  1
  Bi  Bi8  1  0.33333333  0.66666667  0.52478467  1
  Bi  Bi9  1  0.66666667  0.33333333  0.48366333  1
  Bi  Bi10  1  0.00000000  0.00000000  0.85811800  1
  Bi  Bi11  1  0.33333333  0.66666667  0.81699667  1
  O  O12  1  0.27244467  0.98541633  0.24516033  1
  O  O13  1  0.01458367  0.28702833  0.24516033  1
  O  O14  1  0.71297167  0.72755533  0.24516033  1
  O  O15  1  0.95296000  0.65212100  0.08510400  1
  O  O16  1  0.69916100  0.04704000  0.08510400  1
  O  O17  1  0.34787900  0.30083900  0.08510400  1
  O  O18  1  0.93911133  0.31874967  0.57849367  1
  O  O19  1  0.68125033  0.62036167  0.57849367  1
  O  O20  1  0.37963833  0.06088867  0.57849367  1
  O  O21  1  0.61962667  0.98545433  0.41843733  1
  O  O22  1  0.36582767  0.38037333  0.41843733  1
  O  O23  1  0.01454567  0.63417233  0.41843733  1
  O  O24  1  0.60577800  0.65208300  0.91182700  1
  O  O25  1  0.34791700  0.95369500  0.91182700  1
  O  O26  1  0.04630500  0.39422200  0.91182700  1
  O  O27  1  0.28629333  0.31878767  0.75177067  1
  O  O28  1  0.03249433  0.71370667  0.75177067  1
  O  O29  1  0.68121233  0.96750567  0.75177067  1
