# generated using pymatgen
data_Li3V5O10
_symmetry_space_group_name_H-M   'P 1'
_cell_length_a   5.09071000
_cell_length_b   15.05116200
_cell_length_c   10.05100582
_cell_angle_alpha   90.00000000
_cell_angle_beta   100.65797642
_cell_angle_gamma   90.00000000
_symmetry_Int_Tables_number   1
_chemical_formula_structural   Li3V5O10
_chemical_formula_sum   'Li12 V20 O40'
_cell_volume   756.83358237
_cell_formula_units_Z   4
loop_
 _symmetry_equiv_pos_site_id
 _symmetry_equiv_pos_as_xyz
  1  'x, y, z'
loop_
 _atom_site_type_symbol
 _atom_site_label
 _atom_site_symmetry_multiplicity
 _atom_site_fract_x
 _atom_site_fract_y
 _atom_site_fract_z
 _atom_site_occupancy
  Li  Li0  1  0.00000000  0.64700700  0.25000000  1
  Li  Li1  1  0.00000000  0.55134200  0.75000000  1
  Li  Li2  1  0.50000000  0.65112900  0.75000000  1
  Li  Li3  1  0.00000000  0.84887100  0.25000000  1
  Li  Li4  1  0.50000000  0.94865800  0.25000000  1
  Li  Li5  1  0.50000000  0.85299300  0.75000000  1
  Li  Li6  1  0.50000000  0.14700700  0.25000000  1
  Li  Li7  1  0.50000000  0.05134200  0.75000000  1
  Li  Li8  1  0.00000000  0.15112900  0.75000000  1
  Li  Li9  1  0.50000000  0.34887100  0.25000000  1
  Li  Li10  1  0.00000000  0.44865800  0.25000000  1
  Li  Li11  1  0.00000000  0.35299300  0.75000000  1
  V  V12  1  0.74766600  0.65086600  0.49257800  1
  V  V13  1  0.73749000  0.54739000  0.99815100  1
  V  V14  1  0.23749000  0.95261000  0.49815100  1
  V  V15  1  0.26251000  0.54739000  0.50184900  1
  V  V16  1  0.25233400  0.65086600  0.00742200  1
  V  V17  1  0.24766600  0.84913400  0.99257800  1
  V  V18  1  0.75233400  0.84913400  0.50742200  1
  V  V19  1  0.76251000  0.95261000  0.00184900  1
  V  V20  1  0.75000000  0.75000000  0.00000000  1
  V  V21  1  0.25000000  0.75000000  0.50000000  1
  V  V22  1  0.24766600  0.15086600  0.49257800  1
  V  V23  1  0.23749000  0.04739000  0.99815100  1
  V  V24  1  0.73749000  0.45261000  0.49815100  1
  V  V25  1  0.76251000  0.04739000  0.50184900  1
  V  V26  1  0.75233400  0.15086600  0.00742200  1
  V  V27  1  0.74766600  0.34913400  0.99257800  1
  V  V28  1  0.25233400  0.34913400  0.50742200  1
  V  V29  1  0.26251000  0.45261000  0.00184900  1
  V  V30  1  0.25000000  0.25000000  0.00000000  1
  V  V31  1  0.75000000  0.25000000  0.50000000  1
  O  O32  1  0.12840800  0.64739300  0.60590700  1
  O  O33  1  0.87159200  0.64739300  0.89409300  1
  O  O34  1  0.39334950  0.95138050  0.89139300  1
  O  O35  1  0.63141100  0.64873600  0.10439300  1
  O  O36  1  0.89334950  0.54861950  0.39139300  1
  O  O37  1  0.62729450  0.55496150  0.61045300  1
  O  O38  1  0.37270550  0.55496150  0.88954700  1
  O  O39  1  0.13141100  0.85126400  0.60439300  1
  O  O40  1  0.36858900  0.64873600  0.39560700  1
  O  O41  1  0.12729450  0.94503850  0.11045300  1
  O  O42  1  0.87270550  0.94503850  0.38954700  1
  O  O43  1  0.86858900  0.85126400  0.89560700  1
  O  O44  1  0.10665050  0.54861950  0.10860700  1
  O  O45  1  0.60665050  0.95138050  0.60860700  1
  O  O46  1  0.09843800  0.75027700  0.10829000  1
  O  O47  1  0.90156200  0.75027700  0.39171000  1
  O  O48  1  0.62840800  0.85260700  0.10590700  1
  O  O49  1  0.59843800  0.74972300  0.60829000  1
  O  O50  1  0.37159200  0.85260700  0.39409300  1
  O  O51  1  0.40156200  0.74972300  0.89171000  1
  O  O52  1  0.62840800  0.14739300  0.60590700  1
  O  O53  1  0.37159200  0.14739300  0.89409300  1
  O  O54  1  0.89334950  0.45138050  0.89139300  1
  O  O55  1  0.13141100  0.14873600  0.10439300  1
  O  O56  1  0.39334950  0.04861950  0.39139300  1
  O  O57  1  0.12729450  0.05496150  0.61045300  1
  O  O58  1  0.87270550  0.05496150  0.88954700  1
  O  O59  1  0.63141100  0.35126400  0.60439300  1
  O  O60  1  0.86858900  0.14873600  0.39560700  1
  O  O61  1  0.62729450  0.44503850  0.11045300  1
  O  O62  1  0.37270550  0.44503850  0.38954700  1
  O  O63  1  0.36858900  0.35126400  0.89560700  1
  O  O64  1  0.60665050  0.04861950  0.10860700  1
  O  O65  1  0.10665050  0.45138050  0.60860700  1
  O  O66  1  0.59843800  0.25027700  0.10829000  1
  O  O67  1  0.40156200  0.25027700  0.39171000  1
  O  O68  1  0.12840800  0.35260700  0.10590700  1
  O  O69  1  0.09843800  0.24972300  0.60829000  1
  O  O70  1  0.87159200  0.35260700  0.39409300  1
  O  O71  1  0.90156200  0.24972300  0.89171000  1
