# generated using pymatgen
data_LiCoSiO4
_symmetry_space_group_name_H-M   'P 1'
_cell_length_a   7.27822000
_cell_length_b   7.36153000
_cell_length_c   6.58061600
_cell_angle_alpha   90.00000000
_cell_angle_beta   90.00000000
_cell_angle_gamma   90.00000000
_symmetry_Int_Tables_number   1
_chemical_formula_structural   LiCoSiO4
_chemical_formula_sum   'Li4 Co4 Si4 O16'
_cell_volume   352.58173805
_cell_formula_units_Z   4
loop_
 _symmetry_equiv_pos_site_id
 _symmetry_equiv_pos_as_xyz
  1  'x, y, z'
loop_
 _atom_site_type_symbol
 _atom_site_label
 _atom_site_symmetry_multiplicity
 _atom_site_fract_x
 _atom_site_fract_y
 _atom_site_fract_z
 _atom_site_occupancy
  Li  Li0  1  0.19081500  0.00000000  0.00000000  1
  Li  Li1  1  0.80918500  0.00000000  0.50000000  1
  Li  Li2  1  0.69081500  0.50000000  0.00000000  1
  Li  Li3  1  0.30918500  0.50000000  0.50000000  1
  Co  Co4  1  0.18677800  0.00000000  0.50000000  1
  Co  Co5  1  0.81322200  0.00000000  0.00000000  1
  Co  Co6  1  0.68677800  0.50000000  0.50000000  1
  Co  Co7  1  0.31322200  0.50000000  0.00000000  1
  Si  Si8  1  0.50000000  0.18665700  0.25000000  1
  Si  Si9  1  0.50000000  0.81334300  0.75000000  1
  Si  Si10  1  0.00000000  0.68665700  0.25000000  1
  Si  Si11  1  0.00000000  0.31334300  0.75000000  1
  O  O12  1  0.48870650  0.31622650  0.04690600  1
  O  O13  1  0.51129350  0.31622650  0.45309400  1
  O  O14  1  0.31497050  0.05794250  0.26485300  1
  O  O15  1  0.31497050  0.94205750  0.73514700  1
  O  O16  1  0.68502950  0.05794250  0.23514700  1
  O  O17  1  0.68502950  0.94205750  0.76485300  1
  O  O18  1  0.48870650  0.68377350  0.95309400  1
  O  O19  1  0.51129350  0.68377350  0.54690600  1
  O  O20  1  0.98870650  0.81622650  0.04690600  1
  O  O21  1  0.01129350  0.81622650  0.45309400  1
  O  O22  1  0.81497050  0.55794250  0.26485300  1
  O  O23  1  0.81497050  0.44205750  0.73514700  1
  O  O24  1  0.18502950  0.55794250  0.23514700  1
  O  O25  1  0.18502950  0.44205750  0.76485300  1
  O  O26  1  0.98870650  0.18377350  0.95309400  1
  O  O27  1  0.01129350  0.18377350  0.54690600  1
