# generated using pymatgen
data_SbOF
_symmetry_space_group_name_H-M   'P 1'
_cell_length_a   3.57274600
_cell_length_b   4.34898900
_cell_length_c   12.57652700
_cell_angle_alpha   90.00000000
_cell_angle_beta   90.00000000
_cell_angle_gamma   90.00000000
_symmetry_Int_Tables_number   1
_chemical_formula_structural   SbOF
_chemical_formula_sum   'Sb4 O4 F4'
_cell_volume   195.41197692
_cell_formula_units_Z   4
loop_
 _symmetry_equiv_pos_site_id
 _symmetry_equiv_pos_as_xyz
  1  'x, y, z'
loop_
 _atom_site_type_symbol
 _atom_site_label
 _atom_site_symmetry_multiplicity
 _atom_site_fract_x
 _atom_site_fract_y
 _atom_site_fract_z
 _atom_site_occupancy
  Sb  Sb0  1  0.25000000  0.33028100  0.15200700  1
  Sb  Sb1  1  0.75000000  0.83028100  0.34799300  1
  Sb  Sb2  1  0.25000000  0.16971900  0.65200700  1
  Sb  Sb3  1  0.75000000  0.66971900  0.84799300  1
  O  O4  1  0.75000000  0.46887200  0.24834200  1
  O  O5  1  0.25000000  0.96887200  0.25165800  1
  O  O6  1  0.75000000  0.03112800  0.74834200  1
  O  O7  1  0.25000000  0.53112800  0.75165800  1
  F  F8  1  0.75000000  0.06903500  0.08860700  1
  F  F9  1  0.25000000  0.56903500  0.41139300  1
  F  F10  1  0.75000000  0.43096500  0.58860700  1
  F  F11  1  0.25000000  0.93096500  0.91139300  1
