# generated using pymatgen
data_Gd2As4O11
_symmetry_space_group_name_H-M   'P 1'
_cell_length_a   12.29608400
_cell_length_b   5.36927800
_cell_length_c   16.42841889
_cell_angle_alpha   90.00000000
_cell_angle_beta   96.73513557
_cell_angle_gamma   90.00000000
_symmetry_Int_Tables_number   1
_chemical_formula_structural   Gd2As4O11
_chemical_formula_sum   'Gd8 As16 O44'
_cell_volume   1077.13710826
_cell_formula_units_Z   4
loop_
 _symmetry_equiv_pos_site_id
 _symmetry_equiv_pos_as_xyz
  1  'x, y, z'
loop_
 _atom_site_type_symbol
 _atom_site_label
 _atom_site_symmetry_multiplicity
 _atom_site_fract_x
 _atom_site_fract_y
 _atom_site_fract_z
 _atom_site_occupancy
  Gd  Gd0  1  0.89656700  0.22324300  0.03084000  1
  Gd  Gd1  1  0.89656700  0.77675700  0.53084000  1
  Gd  Gd2  1  0.60343300  0.72324300  0.46916000  1
  Gd  Gd3  1  0.60343300  0.27675700  0.96916000  1
  Gd  Gd4  1  0.39656700  0.72324300  0.03084000  1
  Gd  Gd5  1  0.39656700  0.27675700  0.53084000  1
  Gd  Gd6  1  0.10343300  0.22324300  0.46916000  1
  Gd  Gd7  1  0.10343300  0.77675700  0.96916000  1
  As  As8  1  0.93737000  0.71363600  0.15699400  1
  As  As9  1  0.82270850  0.31353550  0.38118300  1
  As  As10  1  0.93737000  0.28636400  0.65699400  1
  As  As11  1  0.67729150  0.81353550  0.11881700  1
  As  As12  1  0.82270850  0.68646450  0.88118300  1
  As  As13  1  0.56263000  0.21363600  0.34300600  1
  As  As14  1  0.67729150  0.18646450  0.61881700  1
  As  As15  1  0.56263000  0.78636400  0.84300600  1
  As  As16  1  0.43737000  0.21363600  0.15699400  1
  As  As17  1  0.32270850  0.81353550  0.38118300  1
  As  As18  1  0.43737000  0.78636400  0.65699400  1
  As  As19  1  0.17729150  0.31353550  0.11881700  1
  As  As20  1  0.32270850  0.18646450  0.88118300  1
  As  As21  1  0.06263000  0.71363600  0.34300600  1
  As  As22  1  0.17729150  0.68646450  0.61881700  1
  As  As23  1  0.06263000  0.28636400  0.84300600  1
  O  O24  1  0.56938700  0.52395200  0.33883700  1
  O  O25  1  0.81070550  0.56979350  0.13578400  1
  O  O26  1  0.56938700  0.47604800  0.83883700  1
  O  O27  1  0.77266950  0.52994250  0.45136700  1
  O  O28  1  0.81070550  0.43020650  0.63578400  1
  O  O29  1  0.51056050  0.07821750  0.08515100  1
  O  O30  1  0.59457150  0.61324350  0.05079900  1
  O  O31  1  0.00000000  0.57752800  0.25000000  1
  O  O32  1  0.90542850  0.11324350  0.44920100  1
  O  O33  1  0.77266950  0.47005750  0.95136700  1
  O  O34  1  0.98943950  0.57821750  0.41484900  1
  O  O35  1  0.51056050  0.92178250  0.58515100  1
  O  O36  1  0.72733050  0.02994250  0.04863300  1
  O  O37  1  0.59457150  0.38675650  0.55079900  1
  O  O38  1  0.00000000  0.42247200  0.75000000  1
  O  O39  1  0.90542850  0.88675650  0.94920100  1
  O  O40  1  0.98943950  0.42178250  0.91484900  1
  O  O41  1  0.68929450  0.06979350  0.36421600  1
  O  O42  1  0.72733050  0.97005750  0.54863300  1
  O  O43  1  0.93061300  0.02395200  0.16116300  1
  O  O44  1  0.68929450  0.93020650  0.86421600  1
  O  O45  1  0.93061300  0.97604800  0.66116300  1
  O  O46  1  0.06938700  0.02395200  0.33883700  1
  O  O47  1  0.31070550  0.06979350  0.13578400  1
  O  O48  1  0.06938700  0.97604800  0.83883700  1
  O  O49  1  0.27266950  0.02994250  0.45136700  1
  O  O50  1  0.31070550  0.93020650  0.63578400  1
  O  O51  1  0.01056050  0.57821750  0.08515100  1
  O  O52  1  0.09457150  0.11324350  0.05079900  1
  O  O53  1  0.50000000  0.07752800  0.25000000  1
  O  O54  1  0.40542850  0.61324350  0.44920100  1
  O  O55  1  0.27266950  0.97005750  0.95136700  1
  O  O56  1  0.48943950  0.07821750  0.41484900  1
  O  O57  1  0.01056050  0.42178250  0.58515100  1
  O  O58  1  0.22733050  0.52994250  0.04863300  1
  O  O59  1  0.09457150  0.88675650  0.55079900  1
  O  O60  1  0.50000000  0.92247200  0.75000000  1
  O  O61  1  0.40542850  0.38675650  0.94920100  1
  O  O62  1  0.48943950  0.92178250  0.91484900  1
  O  O63  1  0.18929450  0.56979350  0.36421600  1
  O  O64  1  0.22733050  0.47005750  0.54863300  1
  O  O65  1  0.43061300  0.52395200  0.16116300  1
  O  O66  1  0.18929450  0.43020650  0.86421600  1
  O  O67  1  0.43061300  0.47604800  0.66116300  1
