# generated using pymatgen
data_Na2SiSnCO7
_symmetry_space_group_name_H-M   'P 1'
_cell_length_a   5.35106900
_cell_length_b   6.70497200
_cell_length_c   9.19678025
_cell_angle_alpha   90.00000000
_cell_angle_beta   91.25560394
_cell_angle_gamma   90.00000000
_symmetry_Int_Tables_number   1
_chemical_formula_structural   Na2SiSnCO7
_chemical_formula_sum   'Na4 Si2 Sn2 C2 O14'
_cell_volume   329.88991395
_cell_formula_units_Z   2
loop_
 _symmetry_equiv_pos_site_id
 _symmetry_equiv_pos_as_xyz
  1  'x, y, z'
loop_
 _atom_site_type_symbol
 _atom_site_label
 _atom_site_symmetry_multiplicity
 _atom_site_fract_x
 _atom_site_fract_y
 _atom_site_fract_z
 _atom_site_occupancy
  Na  Na0  1  0.75925200  0.00730800  0.22416700  1
  Na  Na1  1  0.75925200  0.49269200  0.22416700  1
  Na  Na2  1  0.24074800  0.50730800  0.77583300  1
  Na  Na3  1  0.24074800  0.99269200  0.77583300  1
  Si  Si4  1  0.28577000  0.25000000  0.42579200  1
  Si  Si5  1  0.71423000  0.75000000  0.57420800  1
  Sn  Sn6  1  0.20857400  0.75000000  0.36069100  1
  Sn  Sn7  1  0.79142600  0.25000000  0.63930900  1
  C  C8  1  0.27365200  0.75000000  0.07824700  1
  C  C9  1  0.72634800  0.25000000  0.92175300  1
  O  O10  1  0.68589400  0.25000000  0.05542400  1
  O  O11  1  0.05046800  0.75000000  0.13524500  1
  O  O12  1  0.46039400  0.75000000  0.17810400  1
  O  O13  1  0.19654500  0.05368200  0.33282500  1
  O  O14  1  0.19654500  0.44631800  0.33282500  1
  O  O15  1  0.83674300  0.75000000  0.41108900  1
  O  O16  1  0.59617000  0.25000000  0.44628400  1
  O  O17  1  0.40383000  0.75000000  0.55371600  1
  O  O18  1  0.16325700  0.25000000  0.58891100  1
  O  O19  1  0.80345500  0.55368200  0.66717500  1
  O  O20  1  0.80345500  0.94631800  0.66717500  1
  O  O21  1  0.53960600  0.25000000  0.82189600  1
  O  O22  1  0.94953200  0.25000000  0.86475500  1
  O  O23  1  0.31410600  0.75000000  0.94457600  1
