# generated using pymatgen
data_Li3Bi2(PO4)3
_symmetry_space_group_name_H-M   'P 1'
_cell_length_a   8.63853400
_cell_length_b   5.63784200
_cell_length_c   20.74217332
_cell_angle_alpha   90.00000000
_cell_angle_beta   90.52456788
_cell_angle_gamma   90.00000000
_symmetry_Int_Tables_number   1
_chemical_formula_structural   Li3Bi2(PO4)3
_chemical_formula_sum   'Li12 Bi8 P12 O48'
_cell_volume   1010.15729483
_cell_formula_units_Z   4
loop_
 _symmetry_equiv_pos_site_id
 _symmetry_equiv_pos_as_xyz
  1  'x, y, z'
loop_
 _atom_site_type_symbol
 _atom_site_label
 _atom_site_symmetry_multiplicity
 _atom_site_fract_x
 _atom_site_fract_y
 _atom_site_fract_z
 _atom_site_occupancy
  Li  Li0  1  0.99950400  0.00000000  0.34054800  1
  Li  Li1  1  0.65622200  0.00000000  0.59741300  1
  Li  Li2  1  0.66150000  0.00000000  0.27078900  1
  Li  Li3  1  0.00049600  0.00000000  0.65945200  1
  Li  Li4  1  0.33850000  0.00000000  0.72921100  1
  Li  Li5  1  0.34377800  0.00000000  0.40258700  1
  Li  Li6  1  0.49950400  0.50000000  0.34054800  1
  Li  Li7  1  0.15622200  0.50000000  0.59741300  1
  Li  Li8  1  0.16150000  0.50000000  0.27078900  1
  Li  Li9  1  0.50049600  0.50000000  0.65945200  1
  Li  Li10  1  0.83850000  0.50000000  0.72921100  1
  Li  Li11  1  0.84377800  0.50000000  0.40258700  1
  Bi  Bi12  1  0.00000000  0.00000000  0.00000000  1
  Bi  Bi13  1  0.00160100  0.00000000  0.17941400  1
  Bi  Bi14  1  0.99839900  0.00000000  0.82058600  1
  Bi  Bi15  1  0.00000000  0.00000000  0.50000000  1
  Bi  Bi16  1  0.50000000  0.50000000  0.00000000  1
  Bi  Bi17  1  0.50160100  0.50000000  0.17941400  1
  Bi  Bi18  1  0.49839900  0.50000000  0.82058600  1
  Bi  Bi19  1  0.50000000  0.50000000  0.50000000  1
  P  P20  1  0.64550500  0.00000000  0.73833400  1
  P  P21  1  0.64065700  0.00000000  0.09410100  1
  P  P22  1  0.64518800  0.00000000  0.41605400  1
  P  P23  1  0.35934300  0.00000000  0.90589900  1
  P  P24  1  0.35481200  0.00000000  0.58394600  1
  P  P25  1  0.35449500  0.00000000  0.26166600  1
  P  P26  1  0.14550500  0.50000000  0.73833400  1
  P  P27  1  0.14065700  0.50000000  0.09410100  1
  P  P28  1  0.14518800  0.50000000  0.41605400  1
  P  P29  1  0.85934300  0.50000000  0.90589900  1
  P  P30  1  0.85481200  0.50000000  0.58394600  1
  P  P31  1  0.85449500  0.50000000  0.26166600  1
  O  O32  1  0.53412950  0.22737450  0.08929100  1
  O  O33  1  0.53170050  0.22117850  0.73691900  1
  O  O34  1  0.53243200  0.22150700  0.41370600  1
  O  O35  1  0.46587050  0.22737450  0.91070900  1
  O  O36  1  0.46829950  0.22117850  0.26308100  1
  O  O37  1  0.46756800  0.22150700  0.58629400  1
  O  O38  1  0.25166000  0.00000000  0.96413300  1
  O  O39  1  0.24884900  0.00000000  0.31988200  1
  O  O40  1  0.24591200  0.00000000  0.64122500  1
  O  O41  1  0.72056300  0.00000000  0.16113300  1
  O  O42  1  0.73674000  0.00000000  0.80258700  1
  O  O43  1  0.74834000  0.00000000  0.03586700  1
  O  O44  1  0.75115100  0.00000000  0.68011800  1
  O  O45  1  0.26940500  0.00000000  0.51757000  1
  O  O46  1  0.27943700  0.00000000  0.83886700  1
  O  O47  1  0.73059500  0.00000000  0.48243000  1
  O  O48  1  0.75408800  0.00000000  0.35877500  1
  O  O49  1  0.26326000  0.00000000  0.19741300  1
  O  O50  1  0.46587050  0.77262550  0.91070900  1
  O  O51  1  0.46829950  0.77882150  0.26308100  1
  O  O52  1  0.46756800  0.77849300  0.58629400  1
  O  O53  1  0.53412950  0.77262550  0.08929100  1
  O  O54  1  0.53243200  0.77849300  0.41370600  1
  O  O55  1  0.53170050  0.77882150  0.73691900  1
  O  O56  1  0.03412950  0.72737450  0.08929100  1
  O  O57  1  0.03170050  0.72117850  0.73691900  1
  O  O58  1  0.03243200  0.72150700  0.41370600  1
  O  O59  1  0.96587050  0.72737450  0.91070900  1
  O  O60  1  0.96829950  0.72117850  0.26308100  1
  O  O61  1  0.96756800  0.72150700  0.58629400  1
  O  O62  1  0.75166000  0.50000000  0.96413300  1
  O  O63  1  0.74884900  0.50000000  0.31988200  1
  O  O64  1  0.74591200  0.50000000  0.64122500  1
  O  O65  1  0.22056300  0.50000000  0.16113300  1
  O  O66  1  0.23674000  0.50000000  0.80258700  1
  O  O67  1  0.24834000  0.50000000  0.03586700  1
  O  O68  1  0.25115100  0.50000000  0.68011800  1
  O  O69  1  0.76940500  0.50000000  0.51757000  1
  O  O70  1  0.77943700  0.50000000  0.83886700  1
  O  O71  1  0.23059500  0.50000000  0.48243000  1
  O  O72  1  0.25408800  0.50000000  0.35877500  1
  O  O73  1  0.76326000  0.50000000  0.19741300  1
  O  O74  1  0.96587050  0.27262550  0.91070900  1
  O  O75  1  0.96829950  0.27882150  0.26308100  1
  O  O76  1  0.96756800  0.27849300  0.58629400  1
  O  O77  1  0.03412950  0.27262550  0.08929100  1
  O  O78  1  0.03243200  0.27849300  0.41370600  1
  O  O79  1  0.03170050  0.27882150  0.73691900  1
