# generated using pymatgen
data_Li3Cu2SbO6
_symmetry_space_group_name_H-M   'P 1'
_cell_length_a   5.57489000
_cell_length_b   8.72133400
_cell_length_c   9.90253500
_cell_angle_alpha   90.00000000
_cell_angle_beta   93.30287659
_cell_angle_gamma   90.00000000
_symmetry_Int_Tables_number   1
_chemical_formula_structural   Li3Cu2SbO6
_chemical_formula_sum   'Li12 Cu8 Sb4 O24'
_cell_volume   480.66623107
_cell_formula_units_Z   4
loop_
 _symmetry_equiv_pos_site_id
 _symmetry_equiv_pos_as_xyz
  1  'x, y, z'
loop_
 _atom_site_type_symbol
 _atom_site_label
 _atom_site_symmetry_multiplicity
 _atom_site_fract_x
 _atom_site_fract_y
 _atom_site_fract_z
 _atom_site_occupancy
  Li  Li0  1  0.76241800  0.91745900  0.00140400  1
  Li  Li1  1  0.76241800  0.08254100  0.50140400  1
  Li  Li2  1  0.50000000  0.58947400  0.25000000  1
  Li  Li3  1  0.50000000  0.41052600  0.75000000  1
  Li  Li4  1  0.23758200  0.91745900  0.49859600  1
  Li  Li5  1  0.23758200  0.08254100  0.99859600  1
  Li  Li6  1  0.26241800  0.41745900  0.00140400  1
  Li  Li7  1  0.26241800  0.58254100  0.50140400  1
  Li  Li8  1  0.00000000  0.08947400  0.25000000  1
  Li  Li9  1  0.00000000  0.91052600  0.75000000  1
  Li  Li10  1  0.73758200  0.41745900  0.49859600  1
  Li  Li11  1  0.73758200  0.58254100  0.99859600  1
  Cu  Cu12  1  0.75000000  0.25000000  0.00000000  1
  Cu  Cu13  1  0.50000000  0.91226400  0.25000000  1
  Cu  Cu14  1  0.50000000  0.08773600  0.75000000  1
  Cu  Cu15  1  0.75000000  0.75000000  0.50000000  1
  Cu  Cu16  1  0.25000000  0.75000000  0.00000000  1
  Cu  Cu17  1  0.00000000  0.41226400  0.25000000  1
  Cu  Cu18  1  0.00000000  0.58773600  0.75000000  1
  Cu  Cu19  1  0.25000000  0.25000000  0.50000000  1
  Sb  Sb20  1  0.50000000  0.25109800  0.25000000  1
  Sb  Sb21  1  0.50000000  0.74890200  0.75000000  1
  Sb  Sb22  1  0.00000000  0.75109800  0.25000000  1
  Sb  Sb23  1  0.00000000  0.24890200  0.75000000  1
  O  O24  1  0.67417850  0.75404550  0.14858300  1
  O  O25  1  0.61656600  0.08202600  0.12991500  1
  O  O26  1  0.67417850  0.24595450  0.64858300  1
  O  O27  1  0.11028200  0.90218100  0.11421900  1
  O  O28  1  0.61656600  0.91797400  0.62991500  1
  O  O29  1  0.11028200  0.09781900  0.61421900  1
  O  O30  1  0.88971800  0.90218100  0.38578100  1
  O  O31  1  0.38343400  0.08202600  0.37008500  1
  O  O32  1  0.88971800  0.09781900  0.88578100  1
  O  O33  1  0.32582150  0.75404550  0.35141700  1
  O  O34  1  0.38343400  0.91797400  0.87008500  1
  O  O35  1  0.32582150  0.24595450  0.85141700  1
  O  O36  1  0.17417850  0.25404550  0.14858300  1
  O  O37  1  0.11656600  0.58202600  0.12991500  1
  O  O38  1  0.17417850  0.74595450  0.64858300  1
  O  O39  1  0.61028200  0.40218100  0.11421900  1
  O  O40  1  0.11656600  0.41797400  0.62991500  1
  O  O41  1  0.61028200  0.59781900  0.61421900  1
  O  O42  1  0.38971800  0.40218100  0.38578100  1
  O  O43  1  0.88343400  0.58202600  0.37008500  1
  O  O44  1  0.38971800  0.59781900  0.88578100  1
  O  O45  1  0.82582150  0.25404550  0.35141700  1
  O  O46  1  0.88343400  0.41797400  0.87008500  1
  O  O47  1  0.82582150  0.74595450  0.85141700  1
