# generated using pymatgen
data_Ca2Ti6N2O11
_symmetry_space_group_name_H-M   'P 1'
_cell_length_a   14.81017000
_cell_length_b   3.80419400
_cell_length_c   9.39857038
_cell_angle_alpha   90.00000000
_cell_angle_beta   99.74193269
_cell_angle_gamma   90.00000000
_symmetry_Int_Tables_number   1
_chemical_formula_structural   Ca2Ti6N2O11
_chemical_formula_sum   'Ca4 Ti12 N4 O22'
_cell_volume   521.88682483
_cell_formula_units_Z   2
loop_
 _symmetry_equiv_pos_site_id
 _symmetry_equiv_pos_as_xyz
  1  'x, y, z'
loop_
 _atom_site_type_symbol
 _atom_site_label
 _atom_site_symmetry_multiplicity
 _atom_site_fract_x
 _atom_site_fract_y
 _atom_site_fract_z
 _atom_site_occupancy
  Ca  Ca0  1  0.55959600  0.00000000  0.74199000  1
  Ca  Ca1  1  0.95855600  0.50000000  0.20114900  1
  Ca  Ca2  1  0.05959600  0.50000000  0.74199000  1
  Ca  Ca3  1  0.45855600  0.00000000  0.20114900  1
  Ti  Ti4  1  0.62199100  0.50000000  0.07807200  1
  Ti  Ti5  1  0.65746000  0.50000000  0.43490700  1
  Ti  Ti6  1  0.74316600  0.50000000  0.77190000  1
  Ti  Ti7  1  0.77329400  0.00000000  0.24686200  1
  Ti  Ti8  1  0.83503000  0.00000000  0.57923300  1
  Ti  Ti9  1  0.87741300  0.00000000  0.90347600  1
  Ti  Ti10  1  0.12199100  0.00000000  0.07807200  1
  Ti  Ti11  1  0.15746000  0.00000000  0.43490700  1
  Ti  Ti12  1  0.24316600  0.00000000  0.77190000  1
  Ti  Ti13  1  0.27329400  0.50000000  0.24686200  1
  Ti  Ti14  1  0.33503000  0.50000000  0.57923300  1
  Ti  Ti15  1  0.37741300  0.50000000  0.90347600  1
  N  N16  1  0.75958400  0.00000000  0.74646100  1
  N  N17  1  0.85404500  0.50000000  0.90829000  1
  N  N18  1  0.25958400  0.50000000  0.74646100  1
  N  N19  1  0.35404500  0.00000000  0.90829000  1
  O  O20  1  0.55837300  0.50000000  0.29325300  1
  O  O21  1  0.61544200  0.50000000  0.60543400  1
  O  O22  1  0.64807300  0.50000000  0.89115800  1
  O  O23  1  0.64084000  0.00000000  0.11287500  1
  O  O24  1  0.69668200  0.00000000  0.42731400  1
  O  O25  1  0.73918000  0.50000000  0.24517400  1
  O  O26  1  0.80123800  0.50000000  0.57207400  1
  O  O27  1  0.84486000  0.00000000  0.11111500  1
  O  O28  1  0.87439700  0.00000000  0.39563200  1
  O  O29  1  0.94043200  0.00000000  0.71787100  1
  O  O30  1  0.50035000  0.50000000  0.01575800  1
  O  O31  1  0.05837300  0.00000000  0.29325300  1
  O  O32  1  0.11544200  0.00000000  0.60543400  1
  O  O33  1  0.14807300  0.00000000  0.89115800  1
  O  O34  1  0.14084000  0.50000000  0.11287500  1
  O  O35  1  0.19668200  0.50000000  0.42731400  1
  O  O36  1  0.23918000  0.00000000  0.24517400  1
  O  O37  1  0.30123800  0.00000000  0.57207400  1
  O  O38  1  0.34486000  0.50000000  0.11111500  1
  O  O39  1  0.37439700  0.50000000  0.39563200  1
  O  O40  1  0.44043200  0.50000000  0.71787100  1
  O  O41  1  0.00035000  0.00000000  0.01575800  1
