# generated using pymatgen
data_Li3VS4
_symmetry_space_group_name_H-M   'P 1'
_cell_length_a   7.39547200
_cell_length_b   24.85379000
_cell_length_c   25.99939600
_cell_angle_alpha   90.00000000
_cell_angle_beta   90.00000000
_cell_angle_gamma   90.00000000
_symmetry_Int_Tables_number   1
_chemical_formula_structural   Li3VS4
_chemical_formula_sum   'Li96 V32 S128'
_cell_volume   4778.83219048
_cell_formula_units_Z   32
loop_
 _symmetry_equiv_pos_site_id
 _symmetry_equiv_pos_as_xyz
  1  'x, y, z'
loop_
 _atom_site_type_symbol
 _atom_site_label
 _atom_site_symmetry_multiplicity
 _atom_site_fract_x
 _atom_site_fract_y
 _atom_site_fract_z
 _atom_site_occupancy
  Li  Li0  1  0.50624800  0.00000000  0.50000000  1
  Li  Li1  1  0.01973200  0.00000000  0.50000000  1
  Li  Li2  1  0.48181050  0.00307600  0.74583350  1
  Li  Li3  1  0.27716800  0.47516650  0.87675650  1
  Li  Li4  1  0.60027050  0.40501100  0.63997650  1
  Li  Li5  1  0.82019900  0.38742300  0.84301100  1
  Li  Li6  1  0.78355300  0.37864850  0.97195050  1
  Li  Li7  1  0.03355300  0.37135150  0.72195050  1
  Li  Li8  1  0.07019900  0.36257700  0.59301100  1
  Li  Li9  1  0.35027050  0.34498900  0.88997650  1
  Li  Li10  1  0.52716800  0.27483350  0.62675650  1
  Li  Li11  1  0.73181050  0.24692400  0.99583350  1
  Li  Li12  1  0.75624800  0.25000000  0.75000000  1
  Li  Li13  1  0.26973200  0.25000000  0.75000000  1
  Li  Li14  1  0.73181050  0.25307600  0.50416650  1
  Li  Li15  1  0.52716800  0.22516650  0.87324350  1
  Li  Li16  1  0.35027050  0.15501100  0.61002350  1
  Li  Li17  1  0.07019900  0.13742300  0.90698900  1
  Li  Li18  1  0.03355300  0.12864850  0.77804950  1
  Li  Li19  1  0.78355300  0.12135150  0.52804950  1
  Li  Li20  1  0.82019900  0.11257700  0.65698900  1
  Li  Li21  1  0.60027050  0.09498900  0.86002350  1
  Li  Li22  1  0.27716800  0.02483350  0.62324350  1
  Li  Li23  1  0.48181050  0.49692400  0.75416650  1
  Li  Li24  1  0.00624800  0.00000000  0.00000000  1
  Li  Li25  1  0.51973200  0.00000000  0.00000000  1
  Li  Li26  1  0.98181050  0.00307600  0.24583350  1
  Li  Li27  1  0.77716800  0.47516650  0.37675650  1
  Li  Li28  1  0.10027050  0.40501100  0.13997650  1
  Li  Li29  1  0.32019900  0.38742300  0.34301100  1
  Li  Li30  1  0.28355300  0.37864850  0.47195050  1
  Li  Li31  1  0.53355300  0.37135150  0.22195050  1
  Li  Li32  1  0.57019900  0.36257700  0.09301100  1
  Li  Li33  1  0.85027050  0.34498900  0.38997650  1
  Li  Li34  1  0.02716800  0.27483350  0.12675650  1
  Li  Li35  1  0.23181050  0.24692400  0.49583350  1
  Li  Li36  1  0.25624800  0.25000000  0.25000000  1
  Li  Li37  1  0.76973200  0.25000000  0.25000000  1
  Li  Li38  1  0.23181050  0.25307600  0.00416650  1
  Li  Li39  1  0.02716800  0.22516650  0.37324350  1
  Li  Li40  1  0.85027050  0.15501100  0.11002350  1
  Li  Li41  1  0.57019900  0.13742300  0.40698900  1
  Li  Li42  1  0.53355300  0.12864850  0.27804950  1
  Li  Li43  1  0.28355300  0.12135150  0.02804950  1
  Li  Li44  1  0.32019900  0.11257700  0.15698900  1
  Li  Li45  1  0.10027050  0.09498900  0.36002350  1
  Li  Li46  1  0.77716800  0.02483350  0.12324350  1
  Li  Li47  1  0.98181050  0.49692400  0.25416650  1
  Li  Li48  1  0.00624800  0.50000000  0.50000000  1
  Li  Li49  1  0.51973200  0.50000000  0.50000000  1
  Li  Li50  1  0.98181050  0.50307600  0.74583350  1
  Li  Li51  1  0.77716800  0.97516650  0.87675650  1
  Li  Li52  1  0.10027050  0.90501100  0.63997650  1
  Li  Li53  1  0.32019900  0.88742300  0.84301100  1
  Li  Li54  1  0.28355300  0.87864850  0.97195050  1
  Li  Li55  1  0.53355300  0.87135150  0.72195050  1
  Li  Li56  1  0.57019900  0.86257700  0.59301100  1
  Li  Li57  1  0.85027050  0.84498900  0.88997650  1
  Li  Li58  1  0.02716800  0.77483350  0.62675650  1
  Li  Li59  1  0.23181050  0.74692400  0.99583350  1
  Li  Li60  1  0.25624800  0.75000000  0.75000000  1
  Li  Li61  1  0.76973200  0.75000000  0.75000000  1
  Li  Li62  1  0.23181050  0.75307600  0.50416650  1
  Li  Li63  1  0.02716800  0.72516650  0.87324350  1
  Li  Li64  1  0.85027050  0.65501100  0.61002350  1
  Li  Li65  1  0.57019900  0.63742300  0.90698900  1
  Li  Li66  1  0.53355300  0.62864850  0.77804950  1
  Li  Li67  1  0.28355300  0.62135150  0.52804950  1
  Li  Li68  1  0.32019900  0.61257700  0.65698900  1
  Li  Li69  1  0.10027050  0.59498900  0.86002350  1
  Li  Li70  1  0.77716800  0.52483350  0.62324350  1
  Li  Li71  1  0.98181050  0.99692400  0.75416650  1
  Li  Li72  1  0.50624800  0.50000000  0.00000000  1
  Li  Li73  1  0.01973200  0.50000000  0.00000000  1
  Li  Li74  1  0.48181050  0.50307600  0.24583350  1
  Li  Li75  1  0.27716800  0.97516650  0.37675650  1
  Li  Li76  1  0.60027050  0.90501100  0.13997650  1
  Li  Li77  1  0.82019900  0.88742300  0.34301100  1
  Li  Li78  1  0.78355300  0.87864850  0.47195050  1
  Li  Li79  1  0.03355300  0.87135150  0.22195050  1
  Li  Li80  1  0.07019900  0.86257700  0.09301100  1
  Li  Li81  1  0.35027050  0.84498900  0.38997650  1
  Li  Li82  1  0.52716800  0.77483350  0.12675650  1
  Li  Li83  1  0.73181050  0.74692400  0.49583350  1
  Li  Li84  1  0.75624800  0.75000000  0.25000000  1
  Li  Li85  1  0.26973200  0.75000000  0.25000000  1
  Li  Li86  1  0.73181050  0.75307600  0.00416650  1
  Li  Li87  1  0.52716800  0.72516650  0.37324350  1
  Li  Li88  1  0.35027050  0.65501100  0.11002350  1
  Li  Li89  1  0.07019900  0.63742300  0.40698900  1
  Li  Li90  1  0.03355300  0.62864850  0.27804950  1
  Li  Li91  1  0.78355300  0.62135150  0.02804950  1
  Li  Li92  1  0.82019900  0.61257700  0.15698900  1
  Li  Li93  1  0.60027050  0.59498900  0.36002350  1
  Li  Li94  1  0.27716800  0.52483350  0.12324350  1
  Li  Li95  1  0.48181050  0.99692400  0.25416650  1
  V  V96  1  0.19737000  0.49087300  0.61498300  1
  V  V97  1  0.70014900  0.37745000  0.50599600  1
  V  V98  1  0.45014900  0.37255000  0.75599600  1
  V  V99  1  0.94737000  0.25912700  0.86498300  1
  V  V100  1  0.94737000  0.24087300  0.63501700  1
  V  V101  1  0.45014900  0.12745000  0.74400400  1
  V  V102  1  0.70014900  0.12255000  0.99400400  1
  V  V103  1  0.19737000  0.00912700  0.88501700  1
  V  V104  1  0.69737000  0.49087300  0.11498300  1
  V  V105  1  0.20014900  0.37745000  0.00599600  1
  V  V106  1  0.95014900  0.37255000  0.25599600  1
  V  V107  1  0.44737000  0.25912700  0.36498300  1
  V  V108  1  0.44737000  0.24087300  0.13501700  1
  V  V109  1  0.95014900  0.12745000  0.24400400  1
  V  V110  1  0.20014900  0.12255000  0.49400400  1
  V  V111  1  0.69737000  0.00912700  0.38501700  1
  V  V112  1  0.69737000  0.99087300  0.61498300  1
  V  V113  1  0.20014900  0.87745000  0.50599600  1
  V  V114  1  0.95014900  0.87255000  0.75599600  1
  V  V115  1  0.44737000  0.75912700  0.86498300  1
  V  V116  1  0.44737000  0.74087300  0.63501700  1
  V  V117  1  0.95014900  0.62745000  0.74400400  1
  V  V118  1  0.20014900  0.62255000  0.99400400  1
  V  V119  1  0.69737000  0.50912700  0.88501700  1
  V  V120  1  0.19737000  0.99087300  0.11498300  1
  V  V121  1  0.70014900  0.87745000  0.00599600  1
  V  V122  1  0.45014900  0.87255000  0.25599600  1
  V  V123  1  0.94737000  0.75912700  0.36498300  1
  V  V124  1  0.94737000  0.74087300  0.13501700  1
  V  V125  1  0.45014900  0.62745000  0.24400400  1
  V  V126  1  0.70014900  0.62255000  0.49400400  1
  V  V127  1  0.19737000  0.50912700  0.38501700  1
  S  S128  1  0.44717100  0.00130600  0.84383400  1
  S  S129  1  0.99994950  0.45108650  0.66249100  1
  S  S130  1  0.24857500  0.44484600  0.54633400  1
  S  S131  1  0.74488500  0.44755500  0.55334700  1
  S  S132  1  0.58499200  0.43127750  0.90555850  1
  S  S133  1  0.24978000  0.42674350  0.78695650  1
  S  S134  1  0.70006600  0.41678950  0.75031950  1
  S  S135  1  0.10103900  0.40419450  0.93180750  1
  S  S136  1  0.35103900  0.34580550  0.68180750  1
  S  S137  1  0.95006600  0.33321050  0.50031950  1
  S  S138  1  0.49978000  0.32325650  0.53695650  1
  S  S139  1  0.83499200  0.31872250  0.65555850  1
  S  S140  1  0.49488500  0.30244500  0.80334700  1
  S  S141  1  0.99857500  0.30515400  0.79633400  1
  S  S142  1  0.74994950  0.29891350  0.91249100  1
  S  S143  1  0.19717100  0.24869400  0.59383400  1
  S  S144  1  0.19717100  0.25130600  0.90616600  1
  S  S145  1  0.74994950  0.20108650  0.58750900  1
  S  S146  1  0.99857500  0.19484600  0.70366600  1
  S  S147  1  0.49488500  0.19755500  0.69665300  1
  S  S148  1  0.83499200  0.18127750  0.84444150  1
  S  S149  1  0.49978000  0.17674350  0.96304350  1
  S  S150  1  0.95006600  0.16678950  0.99968050  1
  S  S151  1  0.35103900  0.15419450  0.81819250  1
  S  S152  1  0.10103900  0.09580550  0.56819250  1
  S  S153  1  0.70006600  0.08321050  0.74968050  1
  S  S154  1  0.24978000  0.07325650  0.71304350  1
  S  S155  1  0.58499200  0.06872250  0.59444150  1
  S  S156  1  0.74488500  0.05244500  0.94665300  1
  S  S157  1  0.24857500  0.05515400  0.95366600  1
  S  S158  1  0.99994950  0.04891350  0.83750900  1
  S  S159  1  0.44717100  0.49869400  0.65616600  1
  S  S160  1  0.94717100  0.00130600  0.34383400  1
  S  S161  1  0.49994950  0.45108650  0.16249100  1
  S  S162  1  0.74857500  0.44484600  0.04633400  1
  S  S163  1  0.24488500  0.44755500  0.05334700  1
  S  S164  1  0.08499200  0.43127750  0.40555850  1
  S  S165  1  0.74978000  0.42674350  0.28695650  1
  S  S166  1  0.20006600  0.41678950  0.25031950  1
  S  S167  1  0.60103900  0.40419450  0.43180750  1
  S  S168  1  0.85103900  0.34580550  0.18180750  1
  S  S169  1  0.45006600  0.33321050  0.00031950  1
  S  S170  1  0.99978000  0.32325650  0.03695650  1
  S  S171  1  0.33499200  0.31872250  0.15555850  1
  S  S172  1  0.99488500  0.30244500  0.30334700  1
  S  S173  1  0.49857500  0.30515400  0.29633400  1
  S  S174  1  0.24994950  0.29891350  0.41249100  1
  S  S175  1  0.69717100  0.24869400  0.09383400  1
  S  S176  1  0.69717100  0.25130600  0.40616600  1
  S  S177  1  0.24994950  0.20108650  0.08750900  1
  S  S178  1  0.49857500  0.19484600  0.20366600  1
  S  S179  1  0.99488500  0.19755500  0.19665300  1
  S  S180  1  0.33499200  0.18127750  0.34444150  1
  S  S181  1  0.99978000  0.17674350  0.46304350  1
  S  S182  1  0.45006600  0.16678950  0.49968050  1
  S  S183  1  0.85103900  0.15419450  0.31819250  1
  S  S184  1  0.60103900  0.09580550  0.06819250  1
  S  S185  1  0.20006600  0.08321050  0.24968050  1
  S  S186  1  0.74978000  0.07325650  0.21304350  1
  S  S187  1  0.08499200  0.06872250  0.09444150  1
  S  S188  1  0.24488500  0.05244500  0.44665300  1
  S  S189  1  0.74857500  0.05515400  0.45366600  1
  S  S190  1  0.49994950  0.04891350  0.33750900  1
  S  S191  1  0.94717100  0.49869400  0.15616600  1
  S  S192  1  0.94717100  0.50130600  0.84383400  1
  S  S193  1  0.49994950  0.95108650  0.66249100  1
  S  S194  1  0.74857500  0.94484600  0.54633400  1
  S  S195  1  0.24488500  0.94755500  0.55334700  1
  S  S196  1  0.08499200  0.93127750  0.90555850  1
  S  S197  1  0.74978000  0.92674350  0.78695650  1
  S  S198  1  0.20006600  0.91678950  0.75031950  1
  S  S199  1  0.60103900  0.90419450  0.93180750  1
  S  S200  1  0.85103900  0.84580550  0.68180750  1
  S  S201  1  0.45006600  0.83321050  0.50031950  1
  S  S202  1  0.99978000  0.82325650  0.53695650  1
  S  S203  1  0.33499200  0.81872250  0.65555850  1
  S  S204  1  0.99488500  0.80244500  0.80334700  1
  S  S205  1  0.49857500  0.80515400  0.79633400  1
  S  S206  1  0.24994950  0.79891350  0.91249100  1
  S  S207  1  0.69717100  0.74869400  0.59383400  1
  S  S208  1  0.69717100  0.75130600  0.90616600  1
  S  S209  1  0.24994950  0.70108650  0.58750900  1
  S  S210  1  0.49857500  0.69484600  0.70366600  1
  S  S211  1  0.99488500  0.69755500  0.69665300  1
  S  S212  1  0.33499200  0.68127750  0.84444150  1
  S  S213  1  0.99978000  0.67674350  0.96304350  1
  S  S214  1  0.45006600  0.66678950  0.99968050  1
  S  S215  1  0.85103900  0.65419450  0.81819250  1
  S  S216  1  0.60103900  0.59580550  0.56819250  1
  S  S217  1  0.20006600  0.58321050  0.74968050  1
  S  S218  1  0.74978000  0.57325650  0.71304350  1
  S  S219  1  0.08499200  0.56872250  0.59444150  1
  S  S220  1  0.24488500  0.55244500  0.94665300  1
  S  S221  1  0.74857500  0.55515400  0.95366600  1
  S  S222  1  0.49994950  0.54891350  0.83750900  1
  S  S223  1  0.94717100  0.99869400  0.65616600  1
  S  S224  1  0.44717100  0.50130600  0.34383400  1
  S  S225  1  0.99994950  0.95108650  0.16249100  1
  S  S226  1  0.24857500  0.94484600  0.04633400  1
  S  S227  1  0.74488500  0.94755500  0.05334700  1
  S  S228  1  0.58499200  0.93127750  0.40555850  1
  S  S229  1  0.24978000  0.92674350  0.28695650  1
  S  S230  1  0.70006600  0.91678950  0.25031950  1
  S  S231  1  0.10103900  0.90419450  0.43180750  1
  S  S232  1  0.35103900  0.84580550  0.18180750  1
  S  S233  1  0.95006600  0.83321050  0.00031950  1
  S  S234  1  0.49978000  0.82325650  0.03695650  1
  S  S235  1  0.83499200  0.81872250  0.15555850  1
  S  S236  1  0.49488500  0.80244500  0.30334700  1
  S  S237  1  0.99857500  0.80515400  0.29633400  1
  S  S238  1  0.74994950  0.79891350  0.41249100  1
  S  S239  1  0.19717100  0.74869400  0.09383400  1
  S  S240  1  0.19717100  0.75130600  0.40616600  1
  S  S241  1  0.74994950  0.70108650  0.08750900  1
  S  S242  1  0.99857500  0.69484600  0.20366600  1
  S  S243  1  0.49488500  0.69755500  0.19665300  1
  S  S244  1  0.83499200  0.68127750  0.34444150  1
  S  S245  1  0.49978000  0.67674350  0.46304350  1
  S  S246  1  0.95006600  0.66678950  0.49968050  1
  S  S247  1  0.35103900  0.65419450  0.31819250  1
  S  S248  1  0.10103900  0.59580550  0.06819250  1
  S  S249  1  0.70006600  0.58321050  0.24968050  1
  S  S250  1  0.24978000  0.57325650  0.21304350  1
  S  S251  1  0.58499200  0.56872250  0.09444150  1
  S  S252  1  0.74488500  0.55244500  0.44665300  1
  S  S253  1  0.24857500  0.55515400  0.45366600  1
  S  S254  1  0.99994950  0.54891350  0.33750900  1
  S  S255  1  0.44717100  0.99869400  0.15616600  1
