# generated using pymatgen
data_LiCoOF2
_symmetry_space_group_name_H-M   'P 1'
_cell_length_a   8.89102502
_cell_length_b   5.09979900
_cell_length_c   12.61631719
_cell_angle_alpha   90.00000000
_cell_angle_beta   131.62503281
_cell_angle_gamma   90.00000000
_symmetry_Int_Tables_number   1
_chemical_formula_structural   LiCoOF2
_chemical_formula_sum   'Li8 Co8 O8 F16'
_cell_volume   427.61536794
_cell_formula_units_Z   8
loop_
 _symmetry_equiv_pos_site_id
 _symmetry_equiv_pos_as_xyz
  1  'x, y, z'
loop_
 _atom_site_type_symbol
 _atom_site_label
 _atom_site_symmetry_multiplicity
 _atom_site_fract_x
 _atom_site_fract_y
 _atom_site_fract_z
 _atom_site_occupancy
  Li  Li0  1  0.83108500  0.06970200  0.99666400  1
  Li  Li1  1  0.96807900  0.08964000  0.79760500  1
  Li  Li2  1  0.96807900  0.91036000  0.29760500  1
  Li  Li3  1  0.83108500  0.93029800  0.49666400  1
  Li  Li4  1  0.63561700  0.57549300  0.99206900  1
  Li  Li5  1  0.13370500  0.58502800  0.79508100  1
  Li  Li6  1  0.13370500  0.41497200  0.29508100  1
  Li  Li7  1  0.63561700  0.42450700  0.49206900  1
  Co  Co8  1  0.33087900  0.05065500  0.80037900  1
  Co  Co9  1  0.45449400  0.02242800  0.58775000  1
  Co  Co10  1  0.45449400  0.97757200  0.08775000  1
  Co  Co11  1  0.33087900  0.94934500  0.30037900  1
  Co  Co12  1  0.78447100  0.59493700  0.80056100  1
  Co  Co13  1  0.22919400  0.59588300  0.56649700  1
  Co  Co14  1  0.22919400  0.40411700  0.06649700  1
  Co  Co15  1  0.78447100  0.40506300  0.30056100  1
  O  O16  1  0.41105900  0.18484900  0.43400900  1
  O  O17  1  0.26060800  0.24499500  0.95372100  1
  O  O18  1  0.34577800  0.09347600  0.17156800  1
  O  O19  1  0.70194400  0.11181200  0.20373800  1
  O  O20  1  0.70194400  0.88818800  0.70373800  1
  O  O21  1  0.34577800  0.90652400  0.67156800  1
  O  O22  1  0.26060800  0.75500500  0.45372100  1
  O  O23  1  0.41105900  0.81515100  0.93400900  1
  F  F24  1  0.59074800  0.23311000  0.92466000  1
  F  F25  1  0.03963300  0.06912100  0.19479300  1
  F  F26  1  0.03963300  0.93087900  0.69479300  1
  F  F27  1  0.59074800  0.76689000  0.42466000  1
  F  F28  1  0.76780200  0.72182000  0.93758100  1
  F  F29  1  0.92729300  0.72145300  0.42733000  1
  F  F30  1  0.08987800  0.70740200  0.93251300  1
  F  F31  1  0.51897000  0.60391100  0.17961700  1
  F  F32  1  0.85268600  0.58079400  0.19441700  1
  F  F33  1  0.21485600  0.58841200  0.19822500  1
  F  F34  1  0.21485600  0.41158800  0.69822500  1
  F  F35  1  0.85268600  0.41920600  0.69441700  1
  F  F36  1  0.51897000  0.39608900  0.67961700  1
  F  F37  1  0.08987800  0.29259800  0.43251300  1
  F  F38  1  0.92729300  0.27854700  0.92733000  1
  F  F39  1  0.76780200  0.27818000  0.43758100  1
