# generated using pymatgen
data_Li3VF6
_symmetry_space_group_name_H-M   'P 1'
_cell_length_a   8.68400180
_cell_length_b   8.68400180
_cell_length_c   10.25263739
_cell_angle_alpha   90.00000000
_cell_angle_beta   90.00000000
_cell_angle_gamma   120.00000000
_symmetry_Int_Tables_number   1
_chemical_formula_structural   Li3VF6
_chemical_formula_sum   'Li18 V6 F36'
_cell_volume   669.58549862
_cell_formula_units_Z   6
loop_
 _symmetry_equiv_pos_site_id
 _symmetry_equiv_pos_as_xyz
  1  'x, y, z'
loop_
 _atom_site_type_symbol
 _atom_site_label
 _atom_site_symmetry_multiplicity
 _atom_site_fract_x
 _atom_site_fract_y
 _atom_site_fract_z
 _atom_site_occupancy
  Li  Li0  1  0.03735700  0.26461800  0.71208900  1
  Li  Li1  1  0.77273900  0.03735700  0.28791100  1
  Li  Li2  1  0.26461800  0.22726100  0.28791100  1
  Li  Li3  1  0.73538200  0.77273900  0.71208900  1
  Li  Li4  1  0.22726100  0.96264300  0.71208900  1
  Li  Li5  1  0.96264300  0.73538200  0.28791100  1
  Li  Li6  1  0.70402367  0.59795133  0.04542233  1
  Li  Li7  1  0.43940567  0.37069033  0.62124433  1
  Li  Li8  1  0.93128467  0.56059433  0.62124433  1
  Li  Li9  1  0.40204867  0.10607233  0.04542233  1
  Li  Li10  1  0.89392767  0.29597633  0.04542233  1
  Li  Li11  1  0.62930967  0.06871533  0.62124433  1
  Li  Li12  1  0.37069033  0.93128467  0.37875567  1
  Li  Li13  1  0.10607233  0.70402367  0.95457767  1
  Li  Li14  1  0.59795133  0.89392767  0.95457767  1
  Li  Li15  1  0.06871533  0.43940567  0.37875567  1
  Li  Li16  1  0.56059433  0.62930967  0.37875567  1
  Li  Li17  1  0.29597633  0.40204867  0.95457767  1
  V  V18  1  0.00000000  0.00000000  0.50000000  1
  V  V19  1  0.00000000  0.00000000  0.00000000  1
  V  V20  1  0.66666667  0.33333333  0.83333333  1
  V  V21  1  0.66666667  0.33333333  0.33333333  1
  V  V22  1  0.33333333  0.66666667  0.16666667  1
  V  V23  1  0.33333333  0.66666667  0.66666667  1
  F  F24  1  0.13137700  0.48855300  0.56272600  1
  F  F25  1  0.64282400  0.13137700  0.43727400  1
  F  F26  1  0.01888833  0.18609467  0.37986567  1
  F  F27  1  0.48855300  0.35717600  0.43727400  1
  F  F28  1  0.83279367  0.01888833  0.62013433  1
  F  F29  1  0.18609467  0.16720633  0.62013433  1
  F  F30  1  0.81390533  0.83279367  0.37986567  1
  F  F31  1  0.16720633  0.98111167  0.37986567  1
  F  F32  1  0.51144700  0.64282400  0.56272600  1
  F  F33  1  0.98111167  0.81390533  0.62013433  1
  F  F34  1  0.35717600  0.86862300  0.56272600  1
  F  F35  1  0.86862300  0.51144700  0.43727400  1
  F  F36  1  0.79804367  0.82188633  0.89605933  1
  F  F37  1  0.30949067  0.46471033  0.77060733  1
  F  F38  1  0.68555500  0.51942800  0.71319900  1
  F  F39  1  0.15521967  0.69050933  0.77060733  1
  F  F40  1  0.49946033  0.35222167  0.95346767  1
  F  F41  1  0.85276133  0.50053967  0.95346767  1
  F  F42  1  0.48057200  0.16612700  0.71319900  1
  F  F43  1  0.83387300  0.31444500  0.71319900  1
  F  F44  1  0.17811367  0.97615733  0.89605933  1
  F  F45  1  0.64777833  0.14723867  0.95346767  1
  F  F46  1  0.02384267  0.20195633  0.89605933  1
  F  F47  1  0.53528967  0.84478033  0.77060733  1
  F  F48  1  0.46471033  0.15521967  0.22939267  1
  F  F49  1  0.97615733  0.79804367  0.10394067  1
  F  F50  1  0.35222167  0.85276133  0.04653233  1
  F  F51  1  0.82188633  0.02384267  0.10394067  1
  F  F52  1  0.16612700  0.68555500  0.28680100  1
  F  F53  1  0.51942800  0.83387300  0.28680100  1
  F  F54  1  0.14723867  0.49946033  0.04653233  1
  F  F55  1  0.50053967  0.64777833  0.04653233  1
  F  F56  1  0.84478033  0.30949067  0.22939267  1
  F  F57  1  0.31444500  0.48057200  0.28680100  1
  F  F58  1  0.69050933  0.53528967  0.22939267  1
  F  F59  1  0.20195633  0.17811367  0.10394067  1
