# generated using pymatgen
data_Gd3SbO7
_symmetry_space_group_name_H-M   'P 1'
_cell_length_a   7.58101200
_cell_length_b   10.71103200
_cell_length_c   7.60446000
_cell_angle_alpha   90.00000000
_cell_angle_beta   90.00000000
_cell_angle_gamma   90.00000000
_symmetry_Int_Tables_number   1
_chemical_formula_structural   Gd3SbO7
_chemical_formula_sum   'Gd12 Sb4 O28'
_cell_volume   617.48566621
_cell_formula_units_Z   4
loop_
 _symmetry_equiv_pos_site_id
 _symmetry_equiv_pos_as_xyz
  1  'x, y, z'
loop_
 _atom_site_type_symbol
 _atom_site_label
 _atom_site_symmetry_multiplicity
 _atom_site_fract_x
 _atom_site_fract_y
 _atom_site_fract_z
 _atom_site_occupancy
  Gd  Gd0  1  0.23456250  0.76572150  0.25199400  1
  Gd  Gd1  1  0.76543750  0.76572150  0.24800600  1
  Gd  Gd2  1  0.48846400  0.00000000  0.00000000  1
  Gd  Gd3  1  0.51153600  0.00000000  0.50000000  1
  Gd  Gd4  1  0.76543750  0.23427850  0.75199400  1
  Gd  Gd5  1  0.23456250  0.23427850  0.74800600  1
  Gd  Gd6  1  0.73456250  0.26572150  0.25199400  1
  Gd  Gd7  1  0.26543750  0.26572150  0.24800600  1
  Gd  Gd8  1  0.98846400  0.50000000  0.00000000  1
  Gd  Gd9  1  0.01153600  0.50000000  0.50000000  1
  Gd  Gd10  1  0.26543750  0.73427850  0.75199400  1
  Gd  Gd11  1  0.73456250  0.73427850  0.74800600  1
  Sb  Sb12  1  0.99929700  0.00000000  0.50000000  1
  Sb  Sb13  1  0.00070300  0.00000000  0.00000000  1
  Sb  Sb14  1  0.49929700  0.50000000  0.50000000  1
  Sb  Sb15  1  0.50070300  0.50000000  0.00000000  1
  O  O16  1  0.50000000  0.56704900  0.75000000  1
  O  O17  1  0.50000000  0.86294300  0.75000000  1
  O  O18  1  0.18924800  0.87419000  0.53200200  1
  O  O19  1  0.81075200  0.87419000  0.96799800  1
  O  O20  1  0.50000000  0.87096400  0.25000000  1
  O  O21  1  0.80124300  0.87738000  0.52746000  1
  O  O22  1  0.19875700  0.87738000  0.97254000  1
  O  O23  1  0.19875700  0.12262000  0.02746000  1
  O  O24  1  0.80124300  0.12262000  0.47254000  1
  O  O25  1  0.50000000  0.12903600  0.75000000  1
  O  O26  1  0.81075200  0.12581000  0.03200200  1
  O  O27  1  0.18924800  0.12581000  0.46799800  1
  O  O28  1  0.50000000  0.13705700  0.25000000  1
  O  O29  1  0.50000000  0.43295100  0.25000000  1
  O  O30  1  0.00000000  0.06704900  0.75000000  1
  O  O31  1  0.00000000  0.36294300  0.75000000  1
  O  O32  1  0.68924800  0.37419000  0.53200200  1
  O  O33  1  0.31075200  0.37419000  0.96799800  1
  O  O34  1  0.00000000  0.37096400  0.25000000  1
  O  O35  1  0.30124300  0.37738000  0.52746000  1
  O  O36  1  0.69875700  0.37738000  0.97254000  1
  O  O37  1  0.69875700  0.62262000  0.02746000  1
  O  O38  1  0.30124300  0.62262000  0.47254000  1
  O  O39  1  0.00000000  0.62903600  0.75000000  1
  O  O40  1  0.31075200  0.62581000  0.03200200  1
  O  O41  1  0.68924800  0.62581000  0.46799800  1
  O  O42  1  0.00000000  0.63705700  0.25000000  1
  O  O43  1  0.00000000  0.93295100  0.25000000  1
