# generated using pymatgen
data_ZrP2(HO4)2
_symmetry_space_group_name_H-M   'P 1'
_cell_length_a   11.50374200
_cell_length_b   11.50374200
_cell_length_c   10.91004000
_cell_angle_alpha   90.00000000
_cell_angle_beta   90.00000000
_cell_angle_gamma   90.00000000
_symmetry_Int_Tables_number   1
_chemical_formula_structural   ZrP2(HO4)2
_chemical_formula_sum   'Zr8 P16 H16 O64'
_cell_volume   1443.79192627
_cell_formula_units_Z   8
loop_
 _symmetry_equiv_pos_site_id
 _symmetry_equiv_pos_as_xyz
  1  'x, y, z'
loop_
 _atom_site_type_symbol
 _atom_site_label
 _atom_site_symmetry_multiplicity
 _atom_site_fract_x
 _atom_site_fract_y
 _atom_site_fract_z
 _atom_site_occupancy
  Zr  Zr0  1  0.00000000  0.00000000  0.25500300  1
  Zr  Zr1  1  0.50000000  0.50000000  0.25500300  1
  Zr  Zr2  1  0.50000000  0.00000000  0.50500300  1
  Zr  Zr3  1  0.50000000  0.00000000  0.00500300  1
  Zr  Zr4  1  0.50000000  0.50000000  0.75500300  1
  Zr  Zr5  1  0.00000000  0.00000000  0.75500300  1
  Zr  Zr6  1  0.00000000  0.50000000  0.00500300  1
  Zr  Zr7  1  0.00000000  0.50000000  0.50500300  1
  P  P8  1  0.46252600  0.30459200  0.50251000  1
  P  P9  1  0.96252600  0.19540800  0.50251000  1
  P  P10  1  0.69540800  0.96252600  0.25251000  1
  P  P11  1  0.80459200  0.46252600  0.25251000  1
  P  P12  1  0.03747400  0.19540800  0.00251000  1
  P  P13  1  0.53747400  0.30459200  0.00251000  1
  P  P14  1  0.80459200  0.53747400  0.75251000  1
  P  P15  1  0.69540800  0.03747400  0.75251000  1
  P  P16  1  0.96252600  0.80459200  0.00251000  1
  P  P17  1  0.46252600  0.69540800  0.00251000  1
  P  P18  1  0.19540800  0.46252600  0.75251000  1
  P  P19  1  0.30459200  0.96252600  0.75251000  1
  P  P20  1  0.53747400  0.69540800  0.50251000  1
  P  P21  1  0.03747400  0.80459200  0.50251000  1
  P  P22  1  0.30459200  0.03747400  0.25251000  1
  P  P23  1  0.19540800  0.53747400  0.25251000  1
  H  H24  1  0.29523100  0.25686000  0.42314900  1
  H  H25  1  0.79523100  0.24314000  0.42314900  1
  H  H26  1  0.24314000  0.29523100  0.67314900  1
  H  H27  1  0.75686000  0.29523100  0.17314900  1
  H  H28  1  0.20476900  0.24314000  0.92314900  1
  H  H29  1  0.70476900  0.25686000  0.92314900  1
  H  H30  1  0.25686000  0.20476900  0.17314900  1
  H  H31  1  0.74314000  0.20476900  0.67314900  1
  H  H32  1  0.79523100  0.75686000  0.92314900  1
  H  H33  1  0.29523100  0.74314000  0.92314900  1
  H  H34  1  0.74314000  0.79523100  0.17314900  1
  H  H35  1  0.25686000  0.79523100  0.67314900  1
  H  H36  1  0.70476900  0.74314000  0.42314900  1
  H  H37  1  0.20476900  0.75686000  0.42314900  1
  H  H38  1  0.75686000  0.70476900  0.67314900  1
  H  H39  1  0.24314000  0.70476900  0.17314900  1
  O  O40  1  0.32326650  0.29370750  0.49896850  1
  O  O41  1  0.82326650  0.20629250  0.49896850  1
  O  O42  1  0.70629250  0.82326650  0.24896850  1
  O  O43  1  0.79370750  0.32326650  0.24896850  1
  O  O44  1  0.17673350  0.20629250  0.99896850  1
  O  O45  1  0.67673350  0.29370750  0.99896850  1
  O  O46  1  0.79370750  0.67673350  0.74896850  1
  O  O47  1  0.70629250  0.17673350  0.74896850  1
  O  O48  1  0.48633700  0.37115500  0.62046800  1
  O  O49  1  0.48633700  0.62884500  0.12046800  1
  O  O50  1  0.62884500  0.98633700  0.37046800  1
  O  O51  1  0.87115500  0.48633700  0.37046800  1
  O  O52  1  0.01366300  0.12884500  0.12046800  1
  O  O53  1  0.51366300  0.37115500  0.12046800  1
  O  O54  1  0.87115500  0.51366300  0.87046800  1
  O  O55  1  0.62884500  0.01366300  0.87046800  1
  O  O56  1  0.81782900  0.01466700  0.25535100  1
  O  O57  1  0.31782900  0.48533300  0.25535100  1
  O  O58  1  0.98533300  0.31782900  0.00535100  1
  O  O59  1  0.51466700  0.81782900  0.00535100  1
  O  O60  1  0.18217100  0.98533300  0.25535100  1
  O  O61  1  0.68217100  0.51466700  0.25535100  1
  O  O62  1  0.51466700  0.18217100  0.50535100  1
  O  O63  1  0.98533300  0.68217100  0.50535100  1
  O  O64  1  0.00464750  0.12954950  0.38925150  1
  O  O65  1  0.50464750  0.37045050  0.38925150  1
  O  O66  1  0.87045050  0.50464750  0.13925150  1
  O  O67  1  0.62954950  0.00464750  0.13925150  1
  O  O68  1  0.99535250  0.87045050  0.38925150  1
  O  O69  1  0.99535250  0.12954950  0.88925150  1
  O  O70  1  0.62954950  0.99535250  0.63925150  1
  O  O71  1  0.87045050  0.49535250  0.63925150  1
  O  O72  1  0.82326650  0.79370750  0.99896850  1
  O  O73  1  0.32326650  0.70629250  0.99896850  1
  O  O74  1  0.20629250  0.32326650  0.74896850  1
  O  O75  1  0.29370750  0.82326650  0.74896850  1
  O  O76  1  0.67673350  0.70629250  0.49896850  1
  O  O77  1  0.17673350  0.79370750  0.49896850  1
  O  O78  1  0.29370750  0.17673350  0.24896850  1
  O  O79  1  0.20629250  0.67673350  0.24896850  1
  O  O80  1  0.98633700  0.87115500  0.12046800  1
  O  O81  1  0.98633700  0.12884500  0.62046800  1
  O  O82  1  0.12884500  0.48633700  0.87046800  1
  O  O83  1  0.37115500  0.98633700  0.87046800  1
  O  O84  1  0.51366300  0.62884500  0.62046800  1
  O  O85  1  0.01366300  0.87115500  0.62046800  1
  O  O86  1  0.37115500  0.01366300  0.37046800  1
  O  O87  1  0.12884500  0.51366300  0.37046800  1
  O  O88  1  0.31782900  0.51466700  0.75535100  1
  O  O89  1  0.81782900  0.98533300  0.75535100  1
  O  O90  1  0.48533300  0.81782900  0.50535100  1
  O  O91  1  0.01466700  0.31782900  0.50535100  1
  O  O92  1  0.68217100  0.48533300  0.75535100  1
  O  O93  1  0.18217100  0.01466700  0.75535100  1
  O  O94  1  0.01466700  0.68217100  0.00535100  1
  O  O95  1  0.48533300  0.18217100  0.00535100  1
  O  O96  1  0.50464750  0.62954950  0.88925150  1
  O  O97  1  0.00464750  0.87045050  0.88925150  1
  O  O98  1  0.37045050  0.00464750  0.63925150  1
  O  O99  1  0.12954950  0.50464750  0.63925150  1
  O  O100  1  0.49535250  0.37045050  0.88925150  1
  O  O101  1  0.49535250  0.62954950  0.38925150  1
  O  O102  1  0.12954950  0.49535250  0.13925150  1
  O  O103  1  0.37045050  0.99535250  0.13925150  1
