# generated using pymatgen
data_LiCu5(PO4)2
_symmetry_space_group_name_H-M   'P 1'
_cell_length_a   5.66216600
_cell_length_b   6.20527300
_cell_length_c   10.34157461
_cell_angle_alpha   90.00000000
_cell_angle_beta   90.75406125
_cell_angle_gamma   90.00000000
_symmetry_Int_Tables_number   1
_chemical_formula_structural   LiCu5(PO4)2
_chemical_formula_sum   'Li2 Cu10 P4 O16'
_cell_volume   363.32271204
_cell_formula_units_Z   2
loop_
 _symmetry_equiv_pos_site_id
 _symmetry_equiv_pos_as_xyz
  1  'x, y, z'
loop_
 _atom_site_type_symbol
 _atom_site_label
 _atom_site_symmetry_multiplicity
 _atom_site_fract_x
 _atom_site_fract_y
 _atom_site_fract_z
 _atom_site_occupancy
  Li  Li0  1  0.14148600  0.00000000  0.75363800  1
  Li  Li1  1  0.85413000  0.50000000  0.50437900  1
  Cu  Cu2  1  0.25008200  0.00000000  0.26649300  1
  Cu  Cu3  1  0.35022900  0.20004500  0.51099200  1
  Cu  Cu4  1  0.35810300  0.28600000  0.99993800  1
  Cu  Cu5  1  0.63704200  0.28497300  0.76349500  1
  Cu  Cu6  1  0.65027100  0.25664100  0.24847400  1
  Cu  Cu7  1  0.74083000  0.50000000  0.01093500  1
  Cu  Cu8  1  0.65027100  0.74335900  0.24847400  1
  Cu  Cu9  1  0.63704200  0.71502700  0.76349500  1
  Cu  Cu10  1  0.35022900  0.79995500  0.51099200  1
  Cu  Cu11  1  0.35810300  0.71400000  0.99993800  1
  P  P12  1  0.85663500  0.00000000  0.99420700  1
  P  P13  1  0.82446900  0.00000000  0.50026500  1
  P  P14  1  0.16499700  0.50000000  0.74072400  1
  P  P15  1  0.15932700  0.50000000  0.25204700  1
  O  O16  1  0.84024100  0.00000000  0.35049200  1
  O  O17  1  0.07693000  0.00000000  0.56521800  1
  O  O18  1  0.83539000  0.00000000  0.84370300  1
  O  O19  1  0.11540300  0.00000000  0.04240500  1
  O  O20  1  0.69886500  0.21114500  0.54845900  1
  O  O21  1  0.71509000  0.19697400  0.04985700  1
  O  O22  1  0.28828200  0.28924400  0.79394300  1
  O  O23  1  0.30502200  0.30086500  0.30216600  1
  O  O24  1  0.14338300  0.50000000  0.10192100  1
  O  O25  1  0.91136400  0.50000000  0.31385400  1
  O  O26  1  0.17112400  0.50000000  0.59048500  1
  O  O27  1  0.90839800  0.50000000  0.79199500  1
  O  O28  1  0.30502200  0.69913500  0.30216600  1
  O  O29  1  0.28828200  0.71075600  0.79394300  1
  O  O30  1  0.69886500  0.78885500  0.54845900  1
  O  O31  1  0.71509000  0.80302600  0.04985700  1
