# generated using pymatgen
data_Sr5La2Cl16
_symmetry_space_group_name_H-M   'P 1'
_cell_length_a   10.08917800
_cell_length_b   15.00352000
_cell_length_c   19.16308000
_cell_angle_alpha   90.00000000
_cell_angle_beta   90.00000000
_cell_angle_gamma   90.00000000
_symmetry_Int_Tables_number   1
_chemical_formula_structural   Sr5La2Cl16
_chemical_formula_sum   'Sr20 La8 Cl64'
_cell_volume   2900.77643306
_cell_formula_units_Z   4
loop_
 _symmetry_equiv_pos_site_id
 _symmetry_equiv_pos_as_xyz
  1  'x, y, z'
loop_
 _atom_site_type_symbol
 _atom_site_label
 _atom_site_symmetry_multiplicity
 _atom_site_fract_x
 _atom_site_fract_y
 _atom_site_fract_z
 _atom_site_occupancy
  Sr  Sr0  1  0.25000000  0.25000000  0.13334300  1
  Sr  Sr1  1  0.25000000  0.25000000  0.63334300  1
  Sr  Sr2  1  0.50000000  0.00000000  0.22899800  1
  Sr  Sr3  1  0.50000000  0.00000000  0.77100200  1
  Sr  Sr4  1  0.00000000  0.00000000  0.27100200  1
  Sr  Sr5  1  0.50000000  0.00000000  0.50000000  1
  Sr  Sr6  1  0.00000000  0.00000000  0.72899800  1
  Sr  Sr7  1  0.00000000  0.00000000  0.00000000  1
  Sr  Sr8  1  0.25000000  0.75000000  0.86665700  1
  Sr  Sr9  1  0.25000000  0.75000000  0.36665700  1
  Sr  Sr10  1  0.75000000  0.75000000  0.13334300  1
  Sr  Sr11  1  0.75000000  0.75000000  0.63334300  1
  Sr  Sr12  1  0.00000000  0.50000000  0.22899800  1
  Sr  Sr13  1  0.00000000  0.50000000  0.77100200  1
  Sr  Sr14  1  0.50000000  0.50000000  0.27100200  1
  Sr  Sr15  1  0.00000000  0.50000000  0.50000000  1
  Sr  Sr16  1  0.50000000  0.50000000  0.72899800  1
  Sr  Sr17  1  0.50000000  0.50000000  0.00000000  1
  Sr  Sr18  1  0.75000000  0.25000000  0.86665700  1
  Sr  Sr19  1  0.75000000  0.25000000  0.36665700  1
  La  La20  1  0.25000000  0.25000000  0.88250100  1
  La  La21  1  0.25000000  0.25000000  0.38250100  1
  La  La22  1  0.25000000  0.75000000  0.11749900  1
  La  La23  1  0.25000000  0.75000000  0.61749900  1
  La  La24  1  0.75000000  0.75000000  0.88250100  1
  La  La25  1  0.75000000  0.75000000  0.38250100  1
  La  La26  1  0.75000000  0.25000000  0.11749900  1
  La  La27  1  0.75000000  0.25000000  0.61749900  1
  Cl  Cl28  1  0.63430550  0.66587750  0.77102200  1
  Cl  Cl29  1  0.63430550  0.83412250  0.27102200  1
  Cl  Cl30  1  0.67681500  0.85089800  0.49555500  1
  Cl  Cl31  1  0.17681500  0.14910200  0.99555500  1
  Cl  Cl32  1  0.33428300  0.94500600  0.34685200  1
  Cl  Cl33  1  0.33428300  0.05499400  0.65314800  1
  Cl  Cl34  1  0.83428300  0.94500600  0.15314800  1
  Cl  Cl35  1  0.83428300  0.05499400  0.84685200  1
  Cl  Cl36  1  0.82318500  0.85089800  0.99555500  1
  Cl  Cl37  1  0.32318500  0.14910200  0.49555500  1
  Cl  Cl38  1  0.36569450  0.33412250  0.77102200  1
  Cl  Cl39  1  0.36569450  0.16587750  0.27102200  1
  Cl  Cl40  1  0.48459200  0.85252900  0.11450900  1
  Cl  Cl41  1  0.48459200  0.14747100  0.88549100  1
  Cl  Cl42  1  0.48459200  0.35252900  0.38549100  1
  Cl  Cl43  1  0.48459200  0.64747100  0.61450900  1
  Cl  Cl44  1  0.51540800  0.85252900  0.88549100  1
  Cl  Cl45  1  0.51540800  0.14747100  0.11450900  1
  Cl  Cl46  1  0.51540800  0.64747100  0.38549100  1
  Cl  Cl47  1  0.51540800  0.35252900  0.61450900  1
  Cl  Cl48  1  0.63430550  0.33412250  0.22897800  1
  Cl  Cl49  1  0.63430550  0.16587750  0.72897800  1
  Cl  Cl50  1  0.67681500  0.14910200  0.50444500  1
  Cl  Cl51  1  0.17681500  0.85089800  0.00444500  1
  Cl  Cl52  1  0.16571700  0.94500600  0.84685200  1
  Cl  Cl53  1  0.66571700  0.94500600  0.65314800  1
  Cl  Cl54  1  0.16571700  0.05499400  0.15314800  1
  Cl  Cl55  1  0.66571700  0.05499400  0.34685200  1
  Cl  Cl56  1  0.32318500  0.85089800  0.50444500  1
  Cl  Cl57  1  0.82318500  0.14910200  0.00444500  1
  Cl  Cl58  1  0.36569450  0.66587750  0.22897800  1
  Cl  Cl59  1  0.36569450  0.83412250  0.72897800  1
  Cl  Cl60  1  0.13430550  0.16587750  0.77102200  1
  Cl  Cl61  1  0.13430550  0.33412250  0.27102200  1
  Cl  Cl62  1  0.17681500  0.35089800  0.49555500  1
  Cl  Cl63  1  0.67681500  0.64910200  0.99555500  1
  Cl  Cl64  1  0.83428300  0.44500600  0.34685200  1
  Cl  Cl65  1  0.83428300  0.55499400  0.65314800  1
  Cl  Cl66  1  0.33428300  0.44500600  0.15314800  1
  Cl  Cl67  1  0.33428300  0.55499400  0.84685200  1
  Cl  Cl68  1  0.32318500  0.35089800  0.99555500  1
  Cl  Cl69  1  0.82318500  0.64910200  0.49555500  1
  Cl  Cl70  1  0.86569450  0.83412250  0.77102200  1
  Cl  Cl71  1  0.86569450  0.66587750  0.27102200  1
  Cl  Cl72  1  0.98459200  0.35252900  0.11450900  1
  Cl  Cl73  1  0.98459200  0.64747100  0.88549100  1
  Cl  Cl74  1  0.98459200  0.85252900  0.38549100  1
  Cl  Cl75  1  0.98459200  0.14747100  0.61450900  1
  Cl  Cl76  1  0.01540800  0.35252900  0.88549100  1
  Cl  Cl77  1  0.01540800  0.64747100  0.11450900  1
  Cl  Cl78  1  0.01540800  0.14747100  0.38549100  1
  Cl  Cl79  1  0.01540800  0.85252900  0.61450900  1
  Cl  Cl80  1  0.13430550  0.83412250  0.22897800  1
  Cl  Cl81  1  0.13430550  0.66587750  0.72897800  1
  Cl  Cl82  1  0.17681500  0.64910200  0.50444500  1
  Cl  Cl83  1  0.67681500  0.35089800  0.00444500  1
  Cl  Cl84  1  0.66571700  0.44500600  0.84685200  1
  Cl  Cl85  1  0.16571700  0.44500600  0.65314800  1
  Cl  Cl86  1  0.66571700  0.55499400  0.15314800  1
  Cl  Cl87  1  0.16571700  0.55499400  0.34685200  1
  Cl  Cl88  1  0.82318500  0.35089800  0.50444500  1
  Cl  Cl89  1  0.32318500  0.64910200  0.00444500  1
  Cl  Cl90  1  0.86569450  0.16587750  0.22897800  1
  Cl  Cl91  1  0.86569450  0.33412250  0.72897800  1
