# generated using pymatgen
data_Ta2O5
_symmetry_space_group_name_H-M   'P 1'
_cell_length_a   12.76790800
_cell_length_b   7.07392200
_cell_length_c   7.23191022
_cell_angle_alpha   90.00000000
_cell_angle_beta   121.80373816
_cell_angle_gamma   90.00000000
_symmetry_Int_Tables_number   1
_chemical_formula_structural   Ta2O5
_chemical_formula_sum   'Ta12 O30'
_cell_volume   555.11065442
_cell_formula_units_Z   6
loop_
 _symmetry_equiv_pos_site_id
 _symmetry_equiv_pos_as_xyz
  1  'x, y, z'
loop_
 _atom_site_type_symbol
 _atom_site_label
 _atom_site_symmetry_multiplicity
 _atom_site_fract_x
 _atom_site_fract_y
 _atom_site_fract_z
 _atom_site_occupancy
  Ta  Ta0  1  0.00290250  0.23595650  0.99522000  1
  Ta  Ta1  1  0.30177800  0.00000000  0.58212100  1
  Ta  Ta2  1  0.00290250  0.76404350  0.99522000  1
  Ta  Ta3  1  0.23447800  0.00000000  0.98793100  1
  Ta  Ta4  1  0.27230000  0.50000000  0.02378800  1
  Ta  Ta5  1  0.23346500  0.50000000  0.47874300  1
  Ta  Ta6  1  0.50290250  0.73595650  0.99522000  1
  Ta  Ta7  1  0.80177800  0.50000000  0.58212100  1
  Ta  Ta8  1  0.50290250  0.26404350  0.99522000  1
  Ta  Ta9  1  0.73447800  0.50000000  0.98793100  1
  Ta  Ta10  1  0.77230000  0.00000000  0.02378800  1
  Ta  Ta11  1  0.73346500  0.00000000  0.47874300  1
  O  O12  1  0.35440800  0.73059100  0.65731300  1
  O  O13  1  0.15220850  0.28965350  0.96742200  1
  O  O14  1  0.46383800  0.00000000  0.87252500  1
  O  O15  1  0.20349100  0.50000000  0.70866800  1
  O  O16  1  0.27377400  0.00000000  0.29624400  1
  O  O17  1  0.15220850  0.71034650  0.96742200  1
  O  O18  1  0.35440800  0.26940900  0.65731300  1
  O  O19  1  0.18627500  0.00000000  0.66818700  1
  O  O20  1  0.05128300  0.00000000  0.89814000  1
  O  O21  1  0.32098100  0.50000000  0.32293700  1
  O  O22  1  0.44764000  0.50000000  0.08408300  1
  O  O23  1  0.35473600  0.80088800  0.03794500  1
  O  O24  1  0.11544800  0.30598900  0.29470500  1
  O  O25  1  0.11544800  0.69401100  0.29470500  1
  O  O26  1  0.35473600  0.19911200  0.03794500  1
  O  O27  1  0.85440800  0.23059100  0.65731300  1
  O  O28  1  0.65220850  0.78965350  0.96742200  1
  O  O29  1  0.96383800  0.50000000  0.87252500  1
  O  O30  1  0.70349100  0.00000000  0.70866800  1
  O  O31  1  0.77377400  0.50000000  0.29624400  1
  O  O32  1  0.65220850  0.21034650  0.96742200  1
  O  O33  1  0.85440800  0.76940900  0.65731300  1
  O  O34  1  0.68627500  0.50000000  0.66818700  1
  O  O35  1  0.55128300  0.50000000  0.89814000  1
  O  O36  1  0.82098100  0.00000000  0.32293700  1
  O  O37  1  0.94764000  0.00000000  0.08408300  1
  O  O38  1  0.85473600  0.30088800  0.03794500  1
  O  O39  1  0.61544800  0.80598900  0.29470500  1
  O  O40  1  0.61544800  0.19401100  0.29470500  1
  O  O41  1  0.85473600  0.69911200  0.03794500  1
