# generated using pymatgen
data_CrH12Pd(NO)4
_symmetry_space_group_name_H-M   'P 1'
_cell_length_a   7.38826400
_cell_length_b   7.38826400
_cell_length_c   15.31601200
_cell_angle_alpha   90.00000000
_cell_angle_beta   90.00000000
_cell_angle_gamma   90.00000000
_symmetry_Int_Tables_number   1
_chemical_formula_structural   CrH12Pd(NO)4
_chemical_formula_sum   'Cr4 H48 Pd4 N16 O16'
_cell_volume   836.04664564
_cell_formula_units_Z   4
loop_
 _symmetry_equiv_pos_site_id
 _symmetry_equiv_pos_as_xyz
  1  'x, y, z'
loop_
 _atom_site_type_symbol
 _atom_site_label
 _atom_site_symmetry_multiplicity
 _atom_site_fract_x
 _atom_site_fract_y
 _atom_site_fract_z
 _atom_site_occupancy
  Cr  Cr0  1  0.00000000  0.50000000  0.25000000  1
  Cr  Cr1  1  0.00000000  0.00000000  0.00000000  1
  Cr  Cr2  1  0.50000000  0.00000000  0.75000000  1
  Cr  Cr3  1  0.50000000  0.50000000  0.50000000  1
  H  H4  1  0.18426900  0.00000000  0.18346500  1
  H  H5  1  0.00000000  0.68426900  0.43346500  1
  H  H6  1  0.00000000  0.31573100  0.43346500  1
  H  H7  1  0.81573100  0.00000000  0.18346500  1
  H  H8  1  0.81573100  0.50000000  0.06653500  1
  H  H9  1  0.50000000  0.31573100  0.31653500  1
  H  H10  1  0.50000000  0.68426900  0.31653500  1
  H  H11  1  0.18426900  0.50000000  0.06653500  1
  H  H12  1  0.16456850  0.11287450  0.27799350  1
  H  H13  1  0.16456850  0.88712550  0.27799350  1
  H  H14  1  0.61287450  0.16456850  0.02799350  1
  H  H15  1  0.61287450  0.83543150  0.02799350  1
  H  H16  1  0.83543150  0.11287450  0.27799350  1
  H  H17  1  0.83543150  0.88712550  0.27799350  1
  H  H18  1  0.38712550  0.16456850  0.02799350  1
  H  H19  1  0.38712550  0.83543150  0.02799350  1
  H  H20  1  0.33543150  0.88712550  0.47200650  1
  H  H21  1  0.33543150  0.11287450  0.47200650  1
  H  H22  1  0.38712550  0.33543150  0.22200650  1
  H  H23  1  0.38712550  0.66456850  0.22200650  1
  H  H24  1  0.66456850  0.88712550  0.47200650  1
  H  H25  1  0.66456850  0.11287450  0.47200650  1
  H  H26  1  0.61287450  0.33543150  0.22200650  1
  H  H27  1  0.61287450  0.66456850  0.22200650  1
  H  H28  1  0.68426900  0.50000000  0.68346500  1
  H  H29  1  0.50000000  0.18426900  0.93346500  1
  H  H30  1  0.50000000  0.81573100  0.93346500  1
  H  H31  1  0.31573100  0.50000000  0.68346500  1
  H  H32  1  0.31573100  0.00000000  0.56653500  1
  H  H33  1  0.00000000  0.81573100  0.81653500  1
  H  H34  1  0.00000000  0.18426900  0.81653500  1
  H  H35  1  0.68426900  0.00000000  0.56653500  1
  H  H36  1  0.66456850  0.61287450  0.77799350  1
  H  H37  1  0.66456850  0.38712550  0.77799350  1
  H  H38  1  0.11287450  0.66456850  0.52799350  1
  H  H39  1  0.11287450  0.33543150  0.52799350  1
  H  H40  1  0.33543150  0.61287450  0.77799350  1
  H  H41  1  0.33543150  0.38712550  0.77799350  1
  H  H42  1  0.88712550  0.66456850  0.52799350  1
  H  H43  1  0.88712550  0.33543150  0.52799350  1
  H  H44  1  0.83543150  0.38712550  0.97200650  1
  H  H45  1  0.83543150  0.61287450  0.97200650  1
  H  H46  1  0.88712550  0.83543150  0.72200650  1
  H  H47  1  0.88712550  0.16456850  0.72200650  1
  H  H48  1  0.16456850  0.38712550  0.97200650  1
  H  H49  1  0.16456850  0.61287450  0.97200650  1
  H  H50  1  0.11287450  0.83543150  0.72200650  1
  H  H51  1  0.11287450  0.16456850  0.72200650  1
  Pd  Pd52  1  0.50000000  0.50000000  0.00000000  1
  Pd  Pd53  1  0.50000000  0.00000000  0.25000000  1
  Pd  Pd54  1  0.00000000  0.00000000  0.50000000  1
  Pd  Pd55  1  0.00000000  0.50000000  0.75000000  1
  N  N56  1  0.22105650  0.00000000  0.24887150  1
  N  N57  1  0.00000000  0.72105650  0.49887150  1
  N  N58  1  0.00000000  0.27894350  0.49887150  1
  N  N59  1  0.77894350  0.00000000  0.24887150  1
  N  N60  1  0.77894350  0.50000000  0.00112850  1
  N  N61  1  0.50000000  0.27894350  0.25112850  1
  N  N62  1  0.50000000  0.72105650  0.25112850  1
  N  N63  1  0.22105650  0.50000000  0.00112850  1
  N  N64  1  0.72105650  0.50000000  0.74887150  1
  N  N65  1  0.50000000  0.22105650  0.99887150  1
  N  N66  1  0.50000000  0.77894350  0.99887150  1
  N  N67  1  0.27894350  0.50000000  0.74887150  1
  N  N68  1  0.27894350  0.00000000  0.50112850  1
  N  N69  1  0.00000000  0.77894350  0.75112850  1
  N  N70  1  0.00000000  0.22105650  0.75112850  1
  N  N71  1  0.72105650  0.00000000  0.50112850  1
  O  O72  1  0.18550300  0.00000000  0.06235900  1
  O  O73  1  0.00000000  0.68550300  0.31235900  1
  O  O74  1  0.00000000  0.31449700  0.31235900  1
  O  O75  1  0.81449700  0.00000000  0.06235900  1
  O  O76  1  0.81449700  0.50000000  0.18764100  1
  O  O77  1  0.50000000  0.31449700  0.43764100  1
  O  O78  1  0.50000000  0.68550300  0.43764100  1
  O  O79  1  0.18550300  0.50000000  0.18764100  1
  O  O80  1  0.68550300  0.50000000  0.56235900  1
  O  O81  1  0.50000000  0.18550300  0.81235900  1
  O  O82  1  0.50000000  0.81449700  0.81235900  1
  O  O83  1  0.31449700  0.50000000  0.56235900  1
  O  O84  1  0.31449700  0.00000000  0.68764100  1
  O  O85  1  0.00000000  0.81449700  0.93764100  1
  O  O86  1  0.00000000  0.18550300  0.93764100  1
  O  O87  1  0.68550300  0.00000000  0.68764100  1
