# generated using pymatgen
data_Gd3NbO7
_symmetry_space_group_name_H-M   'P 1'
_cell_length_a   7.59145200
_cell_length_b   10.71058200
_cell_length_c   7.61974500
_cell_angle_alpha   90.00000000
_cell_angle_beta   90.00000000
_cell_angle_gamma   90.00000000
_symmetry_Int_Tables_number   1
_chemical_formula_structural   Gd3NbO7
_chemical_formula_sum   'Gd12 Nb4 O28'
_cell_volume   619.55284912
_cell_formula_units_Z   4
loop_
 _symmetry_equiv_pos_site_id
 _symmetry_equiv_pos_as_xyz
  1  'x, y, z'
loop_
 _atom_site_type_symbol
 _atom_site_label
 _atom_site_symmetry_multiplicity
 _atom_site_fract_x
 _atom_site_fract_y
 _atom_site_fract_z
 _atom_site_occupancy
  Gd  Gd0  1  0.23263350  0.76760750  0.25348000  1
  Gd  Gd1  1  0.76736650  0.76760750  0.24652000  1
  Gd  Gd2  1  0.47681900  0.00000000  0.00000000  1
  Gd  Gd3  1  0.52318100  0.00000000  0.50000000  1
  Gd  Gd4  1  0.76736650  0.23239250  0.75348000  1
  Gd  Gd5  1  0.23263350  0.23239250  0.74652000  1
  Gd  Gd6  1  0.73263350  0.26760750  0.25348000  1
  Gd  Gd7  1  0.26736650  0.26760750  0.24652000  1
  Gd  Gd8  1  0.97681900  0.50000000  0.00000000  1
  Gd  Gd9  1  0.02318100  0.50000000  0.50000000  1
  Gd  Gd10  1  0.26736650  0.73239250  0.75348000  1
  Gd  Gd11  1  0.73263350  0.73239250  0.74652000  1
  Nb  Nb12  1  0.00280900  0.00000000  0.50000000  1
  Nb  Nb13  1  0.99719100  0.00000000  0.00000000  1
  Nb  Nb14  1  0.50280900  0.50000000  0.50000000  1
  Nb  Nb15  1  0.49719100  0.50000000  0.00000000  1
  O  O16  1  0.50000000  0.56620500  0.75000000  1
  O  O17  1  0.50000000  0.86253000  0.75000000  1
  O  O18  1  0.18729850  0.87371550  0.53729900  1
  O  O19  1  0.81270150  0.87371550  0.96270100  1
  O  O20  1  0.50000000  0.87121600  0.25000000  1
  O  O21  1  0.79719650  0.87718350  0.52794400  1
  O  O22  1  0.20280350  0.87718350  0.97205600  1
  O  O23  1  0.20280350  0.12281650  0.02794400  1
  O  O24  1  0.79719650  0.12281650  0.47205600  1
  O  O25  1  0.50000000  0.12878400  0.75000000  1
  O  O26  1  0.81270150  0.12628450  0.03729900  1
  O  O27  1  0.18729850  0.12628450  0.46270100  1
  O  O28  1  0.50000000  0.13747000  0.25000000  1
  O  O29  1  0.50000000  0.43379500  0.25000000  1
  O  O30  1  0.00000000  0.06620500  0.75000000  1
  O  O31  1  0.00000000  0.36253000  0.75000000  1
  O  O32  1  0.68729850  0.37371550  0.53729900  1
  O  O33  1  0.31270150  0.37371550  0.96270100  1
  O  O34  1  0.00000000  0.37121600  0.25000000  1
  O  O35  1  0.29719650  0.37718350  0.52794400  1
  O  O36  1  0.70280350  0.37718350  0.97205600  1
  O  O37  1  0.70280350  0.62281650  0.02794400  1
  O  O38  1  0.29719650  0.62281650  0.47205600  1
  O  O39  1  0.00000000  0.62878400  0.75000000  1
  O  O40  1  0.31270150  0.62628450  0.03729900  1
  O  O41  1  0.68729850  0.62628450  0.46270100  1
  O  O42  1  0.00000000  0.63747000  0.25000000  1
  O  O43  1  0.00000000  0.93379500  0.25000000  1
