# generated using pymatgen
data_Na4Al3Ge3NO14
_symmetry_space_group_name_H-M   'P 1'
_cell_length_a   13.01204200
_cell_length_b   13.01371800
_cell_length_c   9.18401126
_cell_angle_alpha   90.00000000
_cell_angle_beta   90.09362338
_cell_angle_gamma   90.00000000
_symmetry_Int_Tables_number   1
_chemical_formula_structural   Na4Al3Ge3NO14
_chemical_formula_sum   'Na16 Al12 Ge12 N4 O56'
_cell_volume   1555.17288571
_cell_formula_units_Z   4
loop_
 _symmetry_equiv_pos_site_id
 _symmetry_equiv_pos_as_xyz
  1  'x, y, z'
loop_
 _atom_site_type_symbol
 _atom_site_label
 _atom_site_symmetry_multiplicity
 _atom_site_fract_x
 _atom_site_fract_y
 _atom_site_fract_z
 _atom_site_occupancy
  Na  Na0  1  0.74985150  0.06976950  0.18078700  1
  Na  Na1  1  0.56930700  0.24982100  0.81877500  1
  Na  Na2  1  0.74985150  0.93023050  0.68078700  1
  Na  Na3  1  0.42994900  0.24898200  0.31988400  1
  Na  Na4  1  0.56930700  0.75017900  0.31877500  1
  Na  Na5  1  0.25104600  0.06972700  0.68047900  1
  Na  Na6  1  0.42994900  0.75101800  0.81988400  1
  Na  Na7  1  0.25104600  0.93027300  0.18047900  1
  Na  Na8  1  0.24985150  0.56976950  0.18078700  1
  Na  Na9  1  0.06930700  0.74982100  0.81877500  1
  Na  Na10  1  0.24985150  0.43023050  0.68078700  1
  Na  Na11  1  0.92994900  0.74898200  0.31988400  1
  Na  Na12  1  0.06930700  0.25017900  0.31877500  1
  Na  Na13  1  0.75104600  0.56972700  0.68047900  1
  Na  Na14  1  0.92994900  0.25101800  0.81988400  1
  Na  Na15  1  0.75104600  0.43027300  0.18047900  1
  Al  Al16  1  0.50007050  0.50024050  0.24999600  1
  Al  Al17  1  0.62498150  0.12506750  0.50011100  1
  Al  Al18  1  0.37488750  0.12501050  0.99988300  1
  Al  Al19  1  0.62498150  0.87493250  0.00011100  1
  Al  Al20  1  0.37488750  0.87498950  0.49988300  1
  Al  Al21  1  0.50007050  0.49975950  0.74999600  1
  Al  Al22  1  0.00007050  0.00024050  0.24999600  1
  Al  Al23  1  0.12498150  0.62506750  0.50011100  1
  Al  Al24  1  0.87488750  0.62501050  0.99988300  1
  Al  Al25  1  0.12498150  0.37493250  0.00011100  1
  Al  Al26  1  0.87488750  0.37498950  0.49988300  1
  Al  Al27  1  0.00007050  0.99975950  0.74999600  1
  Ge  Ge28  1  0.37486300  0.62519400  0.49959800  1
  Ge  Ge29  1  0.37486300  0.37480600  0.99959800  1
  Ge  Ge30  1  0.49980850  0.00012050  0.75000200  1
  Ge  Ge31  1  0.49980850  0.99987950  0.25000200  1
  Ge  Ge32  1  0.12521050  0.12514750  0.00038900  1
  Ge  Ge33  1  0.12521050  0.87485250  0.50038900  1
  Ge  Ge34  1  0.87486300  0.12519400  0.49959800  1
  Ge  Ge35  1  0.87486300  0.87480600  0.99959800  1
  Ge  Ge36  1  0.99980850  0.50012050  0.75000200  1
  Ge  Ge37  1  0.99980850  0.49987950  0.25000200  1
  Ge  Ge38  1  0.62521050  0.62514750  0.00038900  1
  Ge  Ge39  1  0.62521050  0.37485250  0.50038900  1
  N  N40  1  0.73429550  0.23371250  0.00009100  1
  N  N41  1  0.73429550  0.76628750  0.50009100  1
  N  N42  1  0.23429550  0.73371250  0.00009100  1
  N  N43  1  0.23429550  0.26628750  0.50009100  1
  O  O44  1  0.89250050  0.03813450  0.64511600  1
  O  O45  1  0.53774550  0.39236950  0.35488800  1
  O  O46  1  0.89250050  0.96186550  0.14511600  1
  O  O47  1  0.46241250  0.39286050  0.85564100  1
  O  O48  1  0.74999050  0.10435650  0.43112000  1
  O  O49  1  0.60469650  0.25008550  0.56886200  1
  O  O50  1  0.60726850  0.03770650  0.64550200  1
  O  O51  1  0.53786900  0.10729500  0.35433500  1
  O  O52  1  0.74999050  0.89564350  0.93112000  1
  O  O53  1  0.39545300  0.25018500  0.06950700  1
  O  O54  1  0.60726850  0.96229350  0.14550200  1
  O  O55  1  0.46252400  0.10707200  0.85522600  1
  O  O56  1  0.29984500  0.25793800  0.60209000  1
  O  O57  1  0.24155250  0.20009550  0.39779900  1
  O  O58  1  0.53786900  0.89270500  0.85433500  1
  O  O59  1  0.39291400  0.03765700  0.14498800  1
  O  O60  1  0.60469650  0.74991450  0.06886200  1
  O  O61  1  0.24969750  0.10489350  0.93055000  1
  O  O62  1  0.46252400  0.89292800  0.35522600  1
  O  O63  1  0.39291400  0.96234300  0.64498800  1
  O  O64  1  0.39545300  0.74981500  0.56950700  1
  O  O65  1  0.24969750  0.89510650  0.43055000  1
  O  O66  1  0.10726000  0.03722700  0.14437900  1
  O  O67  1  0.53774550  0.60763050  0.85488800  1
  O  O68  1  0.46241250  0.60713950  0.35564100  1
  O  O69  1  0.10726000  0.96277300  0.64437900  1
  O  O70  1  0.24155250  0.79990450  0.89779900  1
  O  O71  1  0.29984500  0.74206200  0.10209000  1
  O  O72  1  0.39250050  0.53813450  0.64511600  1
  O  O73  1  0.03774550  0.89236950  0.35488800  1
  O  O74  1  0.39250050  0.46186550  0.14511600  1
  O  O75  1  0.96241250  0.89286050  0.85564100  1
  O  O76  1  0.24999050  0.60435650  0.43112000  1
  O  O77  1  0.10469650  0.75008550  0.56886200  1
  O  O78  1  0.10726850  0.53770650  0.64550200  1
  O  O79  1  0.03786900  0.60729500  0.35433500  1
  O  O80  1  0.24999050  0.39564350  0.93112000  1
  O  O81  1  0.89545300  0.75018500  0.06950700  1
  O  O82  1  0.10726850  0.46229350  0.14550200  1
  O  O83  1  0.96252400  0.60707200  0.85522600  1
  O  O84  1  0.79984500  0.75793800  0.60209000  1
  O  O85  1  0.74155250  0.70009550  0.39779900  1
  O  O86  1  0.03786900  0.39270500  0.85433500  1
  O  O87  1  0.89291400  0.53765700  0.14498800  1
  O  O88  1  0.10469650  0.24991450  0.06886200  1
  O  O89  1  0.74969750  0.60489350  0.93055000  1
  O  O90  1  0.96252400  0.39292800  0.35522600  1
  O  O91  1  0.89291400  0.46234300  0.64498800  1
  O  O92  1  0.89545300  0.24981500  0.56950700  1
  O  O93  1  0.74969750  0.39510650  0.43055000  1
  O  O94  1  0.60726000  0.53722700  0.14437900  1
  O  O95  1  0.03774550  0.10763050  0.85488800  1
  O  O96  1  0.96241250  0.10713950  0.35564100  1
  O  O97  1  0.60726000  0.46277300  0.64437900  1
  O  O98  1  0.74155250  0.29990450  0.89779900  1
  O  O99  1  0.79984500  0.24206200  0.10209000  1
