# generated using pymatgen
data_Na3B5(HO5)2
_symmetry_space_group_name_H-M   'P 1'
_cell_length_a   6.09852400
_cell_length_b   11.22993300
_cell_length_c   11.33900100
_cell_angle_alpha   90.00000000
_cell_angle_beta   90.00000000
_cell_angle_gamma   90.00000000
_symmetry_Int_Tables_number   1
_chemical_formula_structural   Na3B5(HO5)2
_chemical_formula_sum   'Na12 B20 H8 O40'
_cell_volume   776.56300299
_cell_formula_units_Z   4
loop_
 _symmetry_equiv_pos_site_id
 _symmetry_equiv_pos_as_xyz
  1  'x, y, z'
loop_
 _atom_site_type_symbol
 _atom_site_label
 _atom_site_symmetry_multiplicity
 _atom_site_fract_x
 _atom_site_fract_y
 _atom_site_fract_z
 _atom_site_occupancy
  Na  Na0  1  0.91857900  0.25009800  0.86125800  1
  Na  Na1  1  0.08142100  0.75009800  0.13874200  1
  Na  Na2  1  0.91857900  0.75009800  0.63874200  1
  Na  Na3  1  0.08142100  0.25009800  0.36125800  1
  Na  Na4  1  0.47488500  0.25609500  0.06587000  1
  Na  Na5  1  0.52511500  0.75609500  0.93413000  1
  Na  Na6  1  0.47488500  0.75609500  0.43413000  1
  Na  Na7  1  0.52511500  0.25609500  0.56587000  1
  Na  Na8  1  0.65152500  0.50526700  0.74382600  1
  Na  Na9  1  0.34847500  0.00526700  0.25617400  1
  Na  Na10  1  0.65152500  0.00526700  0.75617400  1
  Na  Na11  1  0.34847500  0.50526700  0.24382600  1
  B  B12  1  0.86273900  0.51282000  0.24717000  1
  B  B13  1  0.13726100  0.01282000  0.75283000  1
  B  B14  1  0.86273900  0.01282000  0.25283000  1
  B  B15  1  0.13726100  0.51282000  0.74717000  1
  B  B16  1  0.72289800  0.50854600  0.45804500  1
  B  B17  1  0.27710200  0.00854600  0.54195500  1
  B  B18  1  0.72289800  0.00854600  0.04195500  1
  B  B19  1  0.27710200  0.50854600  0.95804500  1
  B  B20  1  0.96127600  0.34874800  0.10469900  1
  B  B21  1  0.03872400  0.84874800  0.89530100  1
  B  B22  1  0.96127600  0.84874800  0.39530100  1
  B  B23  1  0.03872400  0.34874800  0.60469900  1
  B  B24  1  0.06376700  0.62740900  0.41163900  1
  B  B25  1  0.93623300  0.12740900  0.58836100  1
  B  B26  1  0.06376700  0.12740900  0.08836100  1
  B  B27  1  0.93623300  0.62740900  0.91163900  1
  B  B28  1  0.67268900  0.49714800  0.03986300  1
  B  B29  1  0.32731100  0.99714800  0.96013700  1
  B  B30  1  0.67268900  0.99714800  0.46013700  1
  B  B31  1  0.32731100  0.49714800  0.53986300  1
  H  H32  1  0.41504200  0.17765300  0.81979800  1
  H  H33  1  0.58495800  0.67765300  0.18020200  1
  H  H34  1  0.41504200  0.67765300  0.68020200  1
  H  H35  1  0.58495800  0.17765300  0.31979800  1
  H  H36  1  0.41295000  0.32045900  0.81596400  1
  H  H37  1  0.58705000  0.82045900  0.18403600  1
  H  H38  1  0.41295000  0.82045900  0.68403600  1
  H  H39  1  0.58705000  0.32045900  0.31596400  1
  O  O40  1  0.00103300  0.40756900  0.20888100  1
  O  O41  1  0.99896700  0.90756900  0.79111900  1
  O  O42  1  0.00103300  0.90756900  0.29111900  1
  O  O43  1  0.99896700  0.40756900  0.70888100  1
  O  O44  1  0.00333100  0.60833100  0.28823100  1
  O  O45  1  0.99666900  0.10833100  0.71176900  1
  O  O46  1  0.00333100  0.10833100  0.21176900  1
  O  O47  1  0.99666900  0.60833100  0.78823100  1
  O  O48  1  0.72231900  0.55642700  0.15223400  1
  O  O49  1  0.27768100  0.05642700  0.84776600  1
  O  O50  1  0.72231900  0.05642700  0.34776600  1
  O  O51  1  0.27768100  0.55642700  0.65223400  1
  O  O52  1  0.71576100  0.46435800  0.34455500  1
  O  O53  1  0.28423900  0.96435800  0.65544500  1
  O  O54  1  0.71576100  0.96435800  0.15544500  1
  O  O55  1  0.28423900  0.46435800  0.84455500  1
  O  O56  1  0.57026900  0.47122500  0.54088300  1
  O  O57  1  0.42973100  0.97122500  0.45911700  1
  O  O58  1  0.57026900  0.97122500  0.95911700  1
  O  O59  1  0.42973100  0.47122500  0.04088300  1
  O  O60  1  0.88057500  0.58923700  0.49200300  1
  O  O61  1  0.11942500  0.08923700  0.50799700  1
  O  O62  1  0.88057500  0.08923700  0.00799700  1
  O  O63  1  0.11942500  0.58923700  0.99200300  1
  O  O64  1  0.09813900  0.25810000  0.06737100  1
  O  O65  1  0.90186100  0.75810000  0.93262900  1
  O  O66  1  0.09813900  0.75810000  0.43262900  1
  O  O67  1  0.90186100  0.25810000  0.56737100  1
  O  O68  1  0.78718100  0.37847800  0.03251900  1
  O  O69  1  0.21281900  0.87847800  0.96748100  1
  O  O70  1  0.78718100  0.87847800  0.46748100  1
  O  O71  1  0.21281900  0.37847800  0.53251900  1
  O  O72  1  0.72395100  0.56994500  0.93789200  1
  O  O73  1  0.27604900  0.06994500  0.06210800  1
  O  O74  1  0.72395100  0.06994500  0.56210800  1
  O  O75  1  0.27604900  0.56994500  0.43789200  1
  O  O76  1  0.50700800  0.25038500  0.79964400  1
  O  O77  1  0.49299200  0.75038500  0.20035600  1
  O  O78  1  0.50700800  0.75038500  0.70035600  1
  O  O79  1  0.49299200  0.25038500  0.29964400  1
