# generated using pymatgen
data_Hf2N2O
_symmetry_space_group_name_H-M   'P 1'
_cell_length_a   8.72168600
_cell_length_b   8.72604038
_cell_length_c   8.74267970
_cell_angle_alpha   109.47083481
_cell_angle_beta   109.55385872
_cell_angle_gamma   109.28551651
_symmetry_Int_Tables_number   1
_chemical_formula_structural   Hf2N2O
_chemical_formula_sum   'Hf16 N16 O8'
_cell_volume   512.85159675
_cell_formula_units_Z   8
loop_
 _symmetry_equiv_pos_site_id
 _symmetry_equiv_pos_as_xyz
  1  'x, y, z'
loop_
 _atom_site_type_symbol
 _atom_site_label
 _atom_site_symmetry_multiplicity
 _atom_site_fract_x
 _atom_site_fract_y
 _atom_site_fract_z
 _atom_site_occupancy
  Hf  Hf0  1  0.00366000  0.00809700  0.51209700  1
  Hf  Hf1  1  0.78129000  0.03119700  0.74056000  1
  Hf  Hf2  1  0.24624700  0.27832200  0.02741500  1
  Hf  Hf3  1  0.75554700  0.21826800  0.46024200  1
  Hf  Hf4  1  0.96916500  0.74683900  0.71872800  1
  Hf  Hf5  1  0.46062700  0.74727400  0.21617800  1
  Hf  Hf6  1  0.71429200  0.45552000  0.24623800  1
  Hf  Hf7  1  0.01164800  0.51617100  0.00927700  1
  Hf  Hf8  1  0.49759000  0.00363400  0.98845300  1
  Hf  Hf9  1  0.28017500  0.53143700  0.74546200  1
  Hf  Hf10  1  0.49149700  0.48806800  0.49853300  1
  Hf  Hf11  1  0.53190300  0.25069300  0.78693800  1
  Hf  Hf12  1  0.04021500  0.25870900  0.29260500  1
  Hf  Hf13  1  0.74906300  0.70428200  0.96455800  1
  Hf  Hf14  1  0.25650500  0.78965100  0.53919200  1
  Hf  Hf15  1  0.21370200  0.96762200  0.25342200  1
  N  N16  1  0.72369100  0.95244900  0.46461200  1
  N  N17  1  0.74002600  0.46721600  0.51382600  1
  N  N18  1  0.77092700  0.23426300  0.22432000  1
  N  N19  1  0.22967000  0.48749300  0.95632300  1
  N  N20  1  0.53765900  0.98934700  0.76277400  1
  N  N21  1  0.77709600  0.51399600  0.05024500  1
  N  N22  1  0.27228400  0.22556100  0.25880600  1
  N  N23  1  0.03368300  0.27068000  0.54324300  1
  N  N24  1  0.22806500  0.76214600  0.77355800  1
  N  N25  1  0.00660500  0.73963200  0.96652100  1
  N  N26  1  0.45511600  0.22916800  0.99063200  1
  N  N27  1  0.25940700  0.53296700  0.48243300  1
  N  N28  1  0.24224000  0.72911500  0.27262300  1
  N  N29  1  0.04209000  0.03086100  0.77224900  1
  N  N30  1  0.49300400  0.46095000  0.72985200  1
  N  N31  1  0.26943500  0.04696800  0.53299900  1
  O  O32  1  0.51461300  0.54912600  0.27579300  1
  O  O33  1  0.94987400  0.96274200  0.22567000  1
  O  O34  1  0.76431500  0.27218300  0.72923000  1
  O  O35  1  0.55220600  0.77889100  0.01889500  1
  O  O36  1  0.98274300  0.25937400  0.03046800  1
  O  O37  1  0.72427800  0.77478600  0.73808400  1
  O  O38  1  0.96423900  0.72719700  0.45185200  1
  O  O39  1  0.46360700  0.00710800  0.23509400  1
