# generated using pymatgen
data_Lu2TiO5
_symmetry_space_group_name_H-M   'P 1'
_cell_length_a   4.03596400
_cell_length_b   10.74253000
_cell_length_c   10.36085500
_cell_angle_alpha   90.00000000
_cell_angle_beta   90.00000000
_cell_angle_gamma   90.00000000
_symmetry_Int_Tables_number   1
_chemical_formula_structural   Lu2TiO5
_chemical_formula_sum   'Lu8 Ti4 O20'
_cell_volume   449.21004043
_cell_formula_units_Z   4
loop_
 _symmetry_equiv_pos_site_id
 _symmetry_equiv_pos_as_xyz
  1  'x, y, z'
loop_
 _atom_site_type_symbol
 _atom_site_label
 _atom_site_symmetry_multiplicity
 _atom_site_fract_x
 _atom_site_fract_y
 _atom_site_fract_z
 _atom_site_occupancy
  Lu  Lu0  1  0.50000000  0.35745900  0.93172300  1
  Lu  Lu1  1  0.50000000  0.35745900  0.56827700  1
  Lu  Lu2  1  0.00000000  0.14254100  0.06827700  1
  Lu  Lu3  1  0.00000000  0.14254100  0.43172300  1
  Lu  Lu4  1  0.00000000  0.85745900  0.93172300  1
  Lu  Lu5  1  0.00000000  0.85745900  0.56827700  1
  Lu  Lu6  1  0.50000000  0.64254100  0.06827700  1
  Lu  Lu7  1  0.50000000  0.64254100  0.43172300  1
  Ti  Ti8  1  0.50000000  0.32444900  0.25000000  1
  Ti  Ti9  1  0.00000000  0.17555100  0.75000000  1
  Ti  Ti10  1  0.00000000  0.82444900  0.25000000  1
  Ti  Ti11  1  0.50000000  0.67555100  0.75000000  1
  O  O12  1  0.50000000  0.44882700  0.37705500  1
  O  O13  1  0.50000000  0.44882700  0.12294500  1
  O  O14  1  0.00000000  0.29447000  0.91210200  1
  O  O15  1  0.00000000  0.29447000  0.58789800  1
  O  O16  1  0.50000000  0.23224000  0.75000000  1
  O  O17  1  0.00000000  0.26776000  0.25000000  1
  O  O18  1  0.50000000  0.20553000  0.08789800  1
  O  O19  1  0.50000000  0.20553000  0.41210200  1
  O  O20  1  0.00000000  0.05117300  0.62294500  1
  O  O21  1  0.00000000  0.05117300  0.87705500  1
  O  O22  1  0.00000000  0.94882700  0.37705500  1
  O  O23  1  0.00000000  0.94882700  0.12294500  1
  O  O24  1  0.50000000  0.79447000  0.91210200  1
  O  O25  1  0.50000000  0.79447000  0.58789800  1
  O  O26  1  0.00000000  0.73224000  0.75000000  1
  O  O27  1  0.50000000  0.76776000  0.25000000  1
  O  O28  1  0.00000000  0.70553000  0.08789800  1
  O  O29  1  0.00000000  0.70553000  0.41210200  1
  O  O30  1  0.50000000  0.55117300  0.62294500  1
  O  O31  1  0.50000000  0.55117300  0.87705500  1
