# generated using pymatgen
data_Li2TiCoO4
_symmetry_space_group_name_H-M   'P 1'
_cell_length_a   4.06914086
_cell_length_b   4.06914086
_cell_length_c   8.78090466
_cell_angle_alpha   90.00000000
_cell_angle_beta   90.00000000
_cell_angle_gamma   90.00000000
_symmetry_Int_Tables_number   1
_chemical_formula_structural   Li2TiCoO4
_chemical_formula_sum   'Li4 Ti2 Co2 O8'
_cell_volume   145.39340550
_cell_formula_units_Z   2
loop_
 _symmetry_equiv_pos_site_id
 _symmetry_equiv_pos_as_xyz
  1  'x, y, z'
loop_
 _atom_site_type_symbol
 _atom_site_label
 _atom_site_symmetry_multiplicity
 _atom_site_fract_x
 _atom_site_fract_y
 _atom_site_fract_z
 _atom_site_occupancy
  Li  Li0  1  0.00000000  0.50000000  0.25000000  1
  Li  Li1  1  0.00000000  0.00000000  0.00000000  1
  Li  Li2  1  0.50000000  0.00000000  0.75000000  1
  Li  Li3  1  0.50000000  0.50000000  0.50000000  1
  Ti  Ti4  1  0.50000000  0.00000000  0.25000000  1
  Ti  Ti5  1  0.00000000  0.50000000  0.75000000  1
  Co  Co6  1  0.50000000  0.50000000  0.00000000  1
  Co  Co7  1  0.00000000  0.00000000  0.50000000  1
  O  O8  1  0.50000000  0.00000000  0.47300650  1
  O  O9  1  0.50000000  0.00000000  0.02699350  1
  O  O10  1  0.50000000  0.50000000  0.25098600  1
  O  O11  1  0.00000000  0.00000000  0.24901400  1
  O  O12  1  0.00000000  0.50000000  0.97300650  1
  O  O13  1  0.00000000  0.50000000  0.52699350  1
  O  O14  1  0.00000000  0.00000000  0.75098600  1
  O  O15  1  0.50000000  0.50000000  0.74901400  1
