# generated using pymatgen
data_Na4Cr2C4SO16
_symmetry_space_group_name_H-M   'P 1'
_cell_length_a   13.68355200
_cell_length_b   13.79374200
_cell_length_c   14.26854000
_cell_angle_alpha   90.00000000
_cell_angle_beta   90.00000000
_cell_angle_gamma   90.00000000
_symmetry_Int_Tables_number   1
_chemical_formula_structural   Na4Cr2C4SO16
_chemical_formula_sum   'Na32 Cr16 C32 S8 O128'
_cell_volume   2693.14962606
_cell_formula_units_Z   8
loop_
 _symmetry_equiv_pos_site_id
 _symmetry_equiv_pos_as_xyz
  1  'x, y, z'
loop_
 _atom_site_type_symbol
 _atom_site_label
 _atom_site_symmetry_multiplicity
 _atom_site_fract_x
 _atom_site_fract_y
 _atom_site_fract_z
 _atom_site_occupancy
  Na  Na0  1  0.75000000  0.04119300  0.25000000  1
  Na  Na1  1  0.54062450  0.25000000  0.25000000  1
  Na  Na2  1  0.79062450  0.00000000  0.50000000  1
  Na  Na3  1  0.50000000  0.79119300  0.00000000  1
  Na  Na4  1  0.75000000  0.45880700  0.25000000  1
  Na  Na5  1  0.95937550  0.25000000  0.25000000  1
  Na  Na6  1  0.70937550  0.00000000  0.00000000  1
  Na  Na7  1  0.50000000  0.20880700  0.00000000  1
  Na  Na8  1  0.75000000  0.54119300  0.75000000  1
  Na  Na9  1  0.54062450  0.75000000  0.75000000  1
  Na  Na10  1  0.79062450  0.50000000  0.00000000  1
  Na  Na11  1  0.50000000  0.29119300  0.50000000  1
  Na  Na12  1  0.75000000  0.95880700  0.75000000  1
  Na  Na13  1  0.95937550  0.75000000  0.75000000  1
  Na  Na14  1  0.70937550  0.50000000  0.50000000  1
  Na  Na15  1  0.50000000  0.70880700  0.50000000  1
  Na  Na16  1  0.25000000  0.04119300  0.75000000  1
  Na  Na17  1  0.04062450  0.25000000  0.75000000  1
  Na  Na18  1  0.29062450  0.00000000  0.00000000  1
  Na  Na19  1  0.00000000  0.79119300  0.50000000  1
  Na  Na20  1  0.25000000  0.45880700  0.75000000  1
  Na  Na21  1  0.45937550  0.25000000  0.75000000  1
  Na  Na22  1  0.20937550  0.00000000  0.50000000  1
  Na  Na23  1  0.00000000  0.20880700  0.50000000  1
  Na  Na24  1  0.25000000  0.54119300  0.25000000  1
  Na  Na25  1  0.04062450  0.75000000  0.25000000  1
  Na  Na26  1  0.29062450  0.50000000  0.50000000  1
  Na  Na27  1  0.00000000  0.29119300  0.00000000  1
  Na  Na28  1  0.25000000  0.95880700  0.25000000  1
  Na  Na29  1  0.45937550  0.75000000  0.25000000  1
  Na  Na30  1  0.20937550  0.50000000  0.00000000  1
  Na  Na31  1  0.00000000  0.70880700  0.00000000  1
  Cr  Cr32  1  0.87500000  0.87500000  0.12500000  1
  Cr  Cr33  1  0.62500000  0.62500000  0.12500000  1
  Cr  Cr34  1  0.62500000  0.87500000  0.37500000  1
  Cr  Cr35  1  0.87500000  0.62500000  0.37500000  1
  Cr  Cr36  1  0.87500000  0.37500000  0.62500000  1
  Cr  Cr37  1  0.62500000  0.12500000  0.62500000  1
  Cr  Cr38  1  0.62500000  0.37500000  0.87500000  1
  Cr  Cr39  1  0.87500000  0.12500000  0.87500000  1
  Cr  Cr40  1  0.37500000  0.87500000  0.62500000  1
  Cr  Cr41  1  0.12500000  0.62500000  0.62500000  1
  Cr  Cr42  1  0.12500000  0.87500000  0.87500000  1
  Cr  Cr43  1  0.37500000  0.62500000  0.87500000  1
  Cr  Cr44  1  0.37500000  0.37500000  0.12500000  1
  Cr  Cr45  1  0.12500000  0.12500000  0.12500000  1
  Cr  Cr46  1  0.12500000  0.37500000  0.37500000  1
  Cr  Cr47  1  0.37500000  0.12500000  0.37500000  1
  C  C48  1  0.59020300  0.08888850  0.41548650  1
  C  C49  1  0.84020300  0.83888850  0.33451350  1
  C  C50  1  0.90979700  0.08888850  0.08451350  1
  C  C51  1  0.59020300  0.41111150  0.08451350  1
  C  C52  1  0.65979700  0.83888850  0.16548650  1
  C  C53  1  0.34020300  0.16111150  0.16548650  1
  C  C54  1  0.90979700  0.41111150  0.41548650  1
  C  C55  1  0.15979700  0.16111150  0.33451350  1
  C  C56  1  0.59020300  0.58888850  0.91548650  1
  C  C57  1  0.84020300  0.33888850  0.83451350  1
  C  C58  1  0.90979700  0.58888850  0.58451350  1
  C  C59  1  0.59020300  0.91111150  0.58451350  1
  C  C60  1  0.65979700  0.33888850  0.66548650  1
  C  C61  1  0.34020300  0.66111150  0.66548650  1
  C  C62  1  0.90979700  0.91111150  0.91548650  1
  C  C63  1  0.15979700  0.66111150  0.83451350  1
  C  C64  1  0.09020300  0.08888850  0.91548650  1
  C  C65  1  0.34020300  0.83888850  0.83451350  1
  C  C66  1  0.40979700  0.08888850  0.58451350  1
  C  C67  1  0.09020300  0.41111150  0.58451350  1
  C  C68  1  0.15979700  0.83888850  0.66548650  1
  C  C69  1  0.84020300  0.16111150  0.66548650  1
  C  C70  1  0.40979700  0.41111150  0.91548650  1
  C  C71  1  0.65979700  0.16111150  0.83451350  1
  C  C72  1  0.09020300  0.58888850  0.41548650  1
  C  C73  1  0.34020300  0.33888850  0.33451350  1
  C  C74  1  0.40979700  0.58888850  0.08451350  1
  C  C75  1  0.09020300  0.91111150  0.08451350  1
  C  C76  1  0.15979700  0.33888850  0.16548650  1
  C  C77  1  0.84020300  0.66111150  0.16548650  1
  C  C78  1  0.40979700  0.91111150  0.41548650  1
  C  C79  1  0.65979700  0.66111150  0.33451350  1
  S  S80  1  0.50000000  0.00000000  0.00000000  1
  S  S81  1  0.75000000  0.25000000  0.25000000  1
  S  S82  1  0.50000000  0.50000000  0.50000000  1
  S  S83  1  0.75000000  0.75000000  0.75000000  1
  S  S84  1  0.00000000  0.00000000  0.50000000  1
  S  S85  1  0.25000000  0.25000000  0.75000000  1
  S  S86  1  0.00000000  0.50000000  0.00000000  1
  S  S87  1  0.25000000  0.75000000  0.25000000  1
  O  O88  1  0.60592800  0.01948000  0.35644600  1
  O  O89  1  0.93614750  0.06352650  0.44073300  1
  O  O90  1  0.64680350  0.10046000  0.48689950  1
  O  O91  1  0.89680350  0.85046000  0.26310050  1
  O  O92  1  0.85319650  0.10046000  0.01310050  1
  O  O93  1  0.76938400  0.90016050  0.34998050  1
  O  O94  1  0.56385250  0.06352650  0.05926700  1
  O  O95  1  0.06385250  0.93647350  0.44073300  1
  O  O96  1  0.26938400  0.09983950  0.15001950  1
  O  O97  1  0.14680350  0.89954000  0.01310050  1
  O  O98  1  0.85592800  0.76948000  0.39355400  1
  O  O99  1  0.43614750  0.93647350  0.05926700  1
  O  O100  1  0.89407200  0.01948000  0.14355400  1
  O  O101  1  0.10592800  0.98052000  0.14355400  1
  O  O102  1  0.01938400  0.65016050  0.40001950  1
  O  O103  1  0.73061600  0.90016050  0.15001950  1
  O  O104  1  0.51938400  0.34983950  0.09998050  1
  O  O105  1  0.23061600  0.09983950  0.34998050  1
  O  O106  1  0.64407200  0.76948000  0.10644600  1
  O  O107  1  0.35592800  0.23052000  0.10644600  1
  O  O108  1  0.81385250  0.31352650  0.19073300  1
  O  O109  1  0.39407200  0.98052000  0.35644600  1
  O  O110  1  0.60319650  0.85046000  0.23689950  1
  O  O111  1  0.48061600  0.65016050  0.09998050  1
  O  O112  1  0.68614750  0.31352650  0.30926700  1
  O  O113  1  0.68614750  0.18647350  0.19073300  1
  O  O114  1  0.98061600  0.34983950  0.40001950  1
  O  O115  1  0.39680350  0.14954000  0.23689950  1
  O  O116  1  0.35319650  0.89954000  0.48689950  1
  O  O117  1  0.10319650  0.14954000  0.26310050  1
  O  O118  1  0.81385250  0.18647350  0.30926700  1
  O  O119  1  0.14407200  0.23052000  0.39355400  1
  O  O120  1  0.60592800  0.51948000  0.85644600  1
  O  O121  1  0.93614750  0.56352650  0.94073300  1
  O  O122  1  0.64680350  0.60046000  0.98689950  1
  O  O123  1  0.89680350  0.35046000  0.76310050  1
  O  O124  1  0.85319650  0.60046000  0.51310050  1
  O  O125  1  0.76938400  0.40016050  0.84998050  1
  O  O126  1  0.56385250  0.56352650  0.55926700  1
  O  O127  1  0.06385250  0.43647350  0.94073300  1
  O  O128  1  0.26938400  0.59983950  0.65001950  1
  O  O129  1  0.14680350  0.39954000  0.51310050  1
  O  O130  1  0.85592800  0.26948000  0.89355400  1
  O  O131  1  0.43614750  0.43647350  0.55926700  1
  O  O132  1  0.89407200  0.51948000  0.64355400  1
  O  O133  1  0.10592800  0.48052000  0.64355400  1
  O  O134  1  0.01938400  0.15016050  0.90001950  1
  O  O135  1  0.73061600  0.40016050  0.65001950  1
  O  O136  1  0.51938400  0.84983950  0.59998050  1
  O  O137  1  0.23061600  0.59983950  0.84998050  1
  O  O138  1  0.64407200  0.26948000  0.60644600  1
  O  O139  1  0.35592800  0.73052000  0.60644600  1
  O  O140  1  0.81385250  0.81352650  0.69073300  1
  O  O141  1  0.39407200  0.48052000  0.85644600  1
  O  O142  1  0.60319650  0.35046000  0.73689950  1
  O  O143  1  0.48061600  0.15016050  0.59998050  1
  O  O144  1  0.68614750  0.81352650  0.80926700  1
  O  O145  1  0.68614750  0.68647350  0.69073300  1
  O  O146  1  0.98061600  0.84983950  0.90001950  1
  O  O147  1  0.39680350  0.64954000  0.73689950  1
  O  O148  1  0.35319650  0.39954000  0.98689950  1
  O  O149  1  0.10319650  0.64954000  0.76310050  1
  O  O150  1  0.81385250  0.68647350  0.80926700  1
  O  O151  1  0.14407200  0.73052000  0.89355400  1
  O  O152  1  0.10592800  0.01948000  0.85644600  1
  O  O153  1  0.43614750  0.06352650  0.94073300  1
  O  O154  1  0.14680350  0.10046000  0.98689950  1
  O  O155  1  0.39680350  0.85046000  0.76310050  1
  O  O156  1  0.35319650  0.10046000  0.51310050  1
  O  O157  1  0.26938400  0.90016050  0.84998050  1
  O  O158  1  0.06385250  0.06352650  0.55926700  1
  O  O159  1  0.56385250  0.93647350  0.94073300  1
  O  O160  1  0.76938400  0.09983950  0.65001950  1
  O  O161  1  0.64680350  0.89954000  0.51310050  1
  O  O162  1  0.35592800  0.76948000  0.89355400  1
  O  O163  1  0.93614750  0.93647350  0.55926700  1
  O  O164  1  0.39407200  0.01948000  0.64355400  1
  O  O165  1  0.60592800  0.98052000  0.64355400  1
  O  O166  1  0.51938400  0.65016050  0.90001950  1
  O  O167  1  0.23061600  0.90016050  0.65001950  1
  O  O168  1  0.01938400  0.34983950  0.59998050  1
  O  O169  1  0.73061600  0.09983950  0.84998050  1
  O  O170  1  0.14407200  0.76948000  0.60644600  1
  O  O171  1  0.85592800  0.23052000  0.60644600  1
  O  O172  1  0.31385250  0.31352650  0.69073300  1
  O  O173  1  0.89407200  0.98052000  0.85644600  1
  O  O174  1  0.10319650  0.85046000  0.73689950  1
  O  O175  1  0.98061600  0.65016050  0.59998050  1
  O  O176  1  0.18614750  0.31352650  0.80926700  1
  O  O177  1  0.18614750  0.18647350  0.69073300  1
  O  O178  1  0.48061600  0.34983950  0.90001950  1
  O  O179  1  0.89680350  0.14954000  0.73689950  1
  O  O180  1  0.85319650  0.89954000  0.98689950  1
  O  O181  1  0.60319650  0.14954000  0.76310050  1
  O  O182  1  0.31385250  0.18647350  0.80926700  1
  O  O183  1  0.64407200  0.23052000  0.89355400  1
  O  O184  1  0.10592800  0.51948000  0.35644600  1
  O  O185  1  0.43614750  0.56352650  0.44073300  1
  O  O186  1  0.14680350  0.60046000  0.48689950  1
  O  O187  1  0.39680350  0.35046000  0.26310050  1
  O  O188  1  0.35319650  0.60046000  0.01310050  1
  O  O189  1  0.26938400  0.40016050  0.34998050  1
  O  O190  1  0.06385250  0.56352650  0.05926700  1
  O  O191  1  0.56385250  0.43647350  0.44073300  1
  O  O192  1  0.76938400  0.59983950  0.15001950  1
  O  O193  1  0.64680350  0.39954000  0.01310050  1
  O  O194  1  0.35592800  0.26948000  0.39355400  1
  O  O195  1  0.93614750  0.43647350  0.05926700  1
  O  O196  1  0.39407200  0.51948000  0.14355400  1
  O  O197  1  0.60592800  0.48052000  0.14355400  1
  O  O198  1  0.51938400  0.15016050  0.40001950  1
  O  O199  1  0.23061600  0.40016050  0.15001950  1
  O  O200  1  0.01938400  0.84983950  0.09998050  1
  O  O201  1  0.73061600  0.59983950  0.34998050  1
  O  O202  1  0.14407200  0.26948000  0.10644600  1
  O  O203  1  0.85592800  0.73052000  0.10644600  1
  O  O204  1  0.31385250  0.81352650  0.19073300  1
  O  O205  1  0.89407200  0.48052000  0.35644600  1
  O  O206  1  0.10319650  0.35046000  0.23689950  1
  O  O207  1  0.98061600  0.15016050  0.09998050  1
  O  O208  1  0.18614750  0.81352650  0.30926700  1
  O  O209  1  0.18614750  0.68647350  0.19073300  1
  O  O210  1  0.48061600  0.84983950  0.40001950  1
  O  O211  1  0.89680350  0.64954000  0.23689950  1
  O  O212  1  0.85319650  0.39954000  0.48689950  1
  O  O213  1  0.60319650  0.64954000  0.26310050  1
  O  O214  1  0.31385250  0.68647350  0.30926700  1
  O  O215  1  0.64407200  0.73052000  0.39355400  1
