# generated using pymatgen
data_TaCuO3
_symmetry_space_group_name_H-M   'P 1'
_cell_length_a   9.57509600
_cell_length_b   8.61201000
_cell_length_c   6.82324828
_cell_angle_alpha   90.00000000
_cell_angle_beta   90.23270222
_cell_angle_gamma   90.00000000
_symmetry_Int_Tables_number   1
_chemical_formula_structural   TaCuO3
_chemical_formula_sum   'Ta8 Cu8 O24'
_cell_volume   562.64602442
_cell_formula_units_Z   8
loop_
 _symmetry_equiv_pos_site_id
 _symmetry_equiv_pos_as_xyz
  1  'x, y, z'
loop_
 _atom_site_type_symbol
 _atom_site_label
 _atom_site_symmetry_multiplicity
 _atom_site_fract_x
 _atom_site_fract_y
 _atom_site_fract_z
 _atom_site_occupancy
  Ta  Ta0  1  0.25285400  0.00000000  0.73379650  1
  Ta  Ta1  1  0.50000000  0.70032500  0.50000000  1
  Ta  Ta2  1  0.50000000  0.29967500  0.50000000  1
  Ta  Ta3  1  0.74714600  0.00000000  0.26620350  1
  Ta  Ta4  1  0.75285400  0.50000000  0.73379650  1
  Ta  Ta5  1  0.00000000  0.20032500  0.50000000  1
  Ta  Ta6  1  0.00000000  0.79967500  0.50000000  1
  Ta  Ta7  1  0.24714600  0.50000000  0.26620350  1
  Cu  Cu8  1  0.22253500  0.00000000  0.20794650  1
  Cu  Cu9  1  0.50000000  0.65711400  0.00000000  1
  Cu  Cu10  1  0.50000000  0.34288600  0.00000000  1
  Cu  Cu11  1  0.77746500  0.00000000  0.79205350  1
  Cu  Cu12  1  0.72253500  0.50000000  0.20794650  1
  Cu  Cu13  1  0.00000000  0.15711400  0.00000000  1
  Cu  Cu14  1  0.00000000  0.84288600  0.00000000  1
  Cu  Cu15  1  0.27746500  0.50000000  0.79205350  1
  O  O16  1  0.12923300  0.00000000  0.44495250  1
  O  O17  1  0.32235800  0.00000000  0.98335750  1
  O  O18  1  0.37061600  0.83981000  0.61138650  1
  O  O19  1  0.37061600  0.16019000  0.61138650  1
  O  O20  1  0.40252150  0.66448950  0.24048950  1
  O  O21  1  0.40252150  0.33551050  0.24048950  1
  O  O22  1  0.59747850  0.33551050  0.75951050  1
  O  O23  1  0.59747850  0.66448950  0.75951050  1
  O  O24  1  0.62938400  0.16019000  0.38861350  1
  O  O25  1  0.62938400  0.83981000  0.38861350  1
  O  O26  1  0.67764200  0.00000000  0.01664250  1
  O  O27  1  0.87076700  0.00000000  0.55504750  1
  O  O28  1  0.62923300  0.50000000  0.44495250  1
  O  O29  1  0.82235800  0.50000000  0.98335750  1
  O  O30  1  0.87061600  0.33981000  0.61138650  1
  O  O31  1  0.87061600  0.66019000  0.61138650  1
  O  O32  1  0.90252150  0.16448950  0.24048950  1
  O  O33  1  0.90252150  0.83551050  0.24048950  1
  O  O34  1  0.09747850  0.83551050  0.75951050  1
  O  O35  1  0.09747850  0.16448950  0.75951050  1
  O  O36  1  0.12938400  0.66019000  0.38861350  1
  O  O37  1  0.12938400  0.33981000  0.38861350  1
  O  O38  1  0.17764200  0.50000000  0.01664250  1
  O  O39  1  0.37076700  0.50000000  0.55504750  1
