# generated using pymatgen
data_CaEr15Si8Se11ClO28
_symmetry_space_group_name_H-M   'P 1'
_cell_length_a   18.21742800
_cell_length_b   11.86377600
_cell_length_c   11.85805854
_cell_angle_alpha   90.00000000
_cell_angle_beta   130.53886122
_cell_angle_gamma   90.00000000
_symmetry_Int_Tables_number   1
_chemical_formula_structural   CaEr15Si8Se11ClO28
_chemical_formula_sum   'Ca2 Er30 Si16 Se22 Cl2 O56'
_cell_volume   1947.67886703
_cell_formula_units_Z   2
loop_
 _symmetry_equiv_pos_site_id
 _symmetry_equiv_pos_as_xyz
  1  'x, y, z'
loop_
 _atom_site_type_symbol
 _atom_site_label
 _atom_site_symmetry_multiplicity
 _atom_site_fract_x
 _atom_site_fract_y
 _atom_site_fract_z
 _atom_site_occupancy
  Ca  Ca0  1  0.33106300  0.00000000  0.81855500  1
  Ca  Ca1  1  0.83106300  0.50000000  0.81855500  1
  Er  Er2  1  0.42065000  0.76466600  0.67050500  1
  Er  Er3  1  0.12603450  0.82627650  0.69877200  1
  Er  Er4  1  0.33046000  0.00000000  0.34172700  1
  Er  Er5  1  0.37411650  0.67430850  0.95264200  1
  Er  Er6  1  0.87579550  0.82839250  0.29613500  1
  Er  Er7  1  0.42065000  0.23533400  0.67050500  1
  Er  Er8  1  0.12455350  0.17724250  0.05073700  1
  Er  Er9  1  0.16902300  0.50000000  0.18102600  1
  Er  Er10  1  0.37411650  0.32569150  0.95264200  1
  Er  Er11  1  0.08072950  0.26398350  0.33041100  1
  Er  Er12  1  0.12455350  0.82275750  0.05073700  1
  Er  Er13  1  0.62603450  0.67372350  0.69877200  1
  Er  Er14  1  0.16974800  0.50000000  0.65831700  1
  Er  Er15  1  0.37579550  0.67160750  0.29613500  1
  Er  Er16  1  0.08072950  0.73601650  0.33041100  1
  Er  Er17  1  0.92065000  0.26466600  0.67050500  1
  Er  Er18  1  0.62603450  0.32627650  0.69877200  1
  Er  Er19  1  0.83046000  0.50000000  0.34172700  1
  Er  Er20  1  0.87411650  0.17430850  0.95264200  1
  Er  Er21  1  0.37579550  0.32839250  0.29613500  1
  Er  Er22  1  0.92065000  0.73533400  0.67050500  1
  Er  Er23  1  0.62455350  0.67724250  0.05073700  1
  Er  Er24  1  0.66902300  0.00000000  0.18102600  1
  Er  Er25  1  0.87411650  0.82569150  0.95264200  1
  Er  Er26  1  0.58072950  0.76398350  0.33041100  1
  Er  Er27  1  0.62455350  0.32275750  0.05073700  1
  Er  Er28  1  0.12603450  0.17372350  0.69877200  1
  Er  Er29  1  0.66974800  0.00000000  0.65831700  1
  Er  Er30  1  0.87579550  0.17160750  0.29613500  1
  Er  Er31  1  0.58072950  0.23601650  0.33041100  1
  Si  Si32  1  0.66061650  0.87583250  0.90989000  1
  Si  Si33  1  0.66061650  0.12416750  0.90989000  1
  Si  Si34  1  0.08976500  0.00000000  0.21533700  1
  Si  Si35  1  0.40932100  0.50000000  0.53613400  1
  Si  Si36  1  0.08946200  0.00000000  0.46391900  1
  Si  Si37  1  0.40893900  0.50000000  0.78305600  1
  Si  Si38  1  0.83934150  0.37567550  0.08988200  1
  Si  Si39  1  0.83934150  0.62432450  0.08988200  1
  Si  Si40  1  0.16061650  0.37583250  0.90989000  1
  Si  Si41  1  0.16061650  0.62416750  0.90989000  1
  Si  Si42  1  0.58976500  0.50000000  0.21533700  1
  Si  Si43  1  0.90932100  0.00000000  0.53613400  1
  Si  Si44  1  0.58946200  0.50000000  0.46391900  1
  Si  Si45  1  0.90893900  0.00000000  0.78305600  1
  Si  Si46  1  0.33934150  0.87567550  0.08988200  1
  Si  Si47  1  0.33934150  0.12432450  0.08988200  1
  Se  Se48  1  0.99946850  0.64540550  0.49828100  1
  Se  Se49  1  0.37740400  0.00000000  0.62114600  1
  Se  Se50  1  0.37635700  0.50000000  0.12484700  1
  Se  Se51  1  0.24936500  0.74675500  0.64198300  1
  Se  Se52  1  0.75106850  0.75058950  0.35651400  1
  Se  Se53  1  0.74936500  0.75324500  0.64198300  1
  Se  Se54  1  0.00301150  0.35410450  0.00489500  1
  Se  Se55  1  0.12580100  0.50000000  0.37579400  1
  Se  Se56  1  0.00301150  0.64589550  0.00489500  1
  Se  Se57  1  0.49946850  0.85459450  0.49828100  1
  Se  Se58  1  0.25106850  0.74941050  0.35651400  1
  Se  Se59  1  0.49946850  0.14540550  0.49828100  1
  Se  Se60  1  0.87740400  0.50000000  0.62114600  1
  Se  Se61  1  0.87635700  0.00000000  0.12484700  1
  Se  Se62  1  0.74936500  0.24675500  0.64198300  1
  Se  Se63  1  0.25106850  0.25058950  0.35651400  1
  Se  Se64  1  0.24936500  0.25324500  0.64198300  1
  Se  Se65  1  0.50301150  0.85410450  0.00489500  1
  Se  Se66  1  0.62580100  0.00000000  0.37579400  1
  Se  Se67  1  0.50301150  0.14589550  0.00489500  1
  Se  Se68  1  0.99946850  0.35459450  0.49828100  1
  Se  Se69  1  0.75106850  0.24941050  0.35651400  1
  Cl  Cl70  1  0.12528100  0.00000000  0.87576600  1
  Cl  Cl71  1  0.62528100  0.50000000  0.87576600  1
  O  O72  1  0.58541400  0.76570300  0.83531400  1
  O  O73  1  0.21258600  0.63865400  0.83822300  1
  O  O74  1  0.46611050  0.62163550  0.85295600  1
  O  O75  1  0.60787000  0.00000000  0.85677200  1
  O  O76  1  0.03716250  0.87626450  0.42592000  1
  O  O77  1  0.78384350  0.63832350  0.15425600  1
  O  O78  1  0.58541400  0.23429700  0.83531400  1
  O  O79  1  0.16495400  0.00000000  0.17996500  1
  O  O80  1  0.96572100  0.87946700  0.58101300  1
  O  O81  1  0.21331400  0.36099500  0.08616500  1
  O  O82  1  0.14293200  0.00000000  0.39274100  1
  O  O83  1  0.33399300  0.50000000  0.35161300  1
  O  O84  1  0.28145000  0.85697900  0.91382800  1
  O  O85  1  0.46611050  0.37836450  0.85295600  1
  O  O86  1  0.03694350  0.12411550  0.14744500  1
  O  O87  1  0.21331400  0.63900500  0.08616500  1
  O  O88  1  0.16045700  0.00000000  0.64761000  1
  O  O89  1  0.35552600  0.50000000  0.60585900  1
  O  O90  1  0.28145000  0.14302100  0.91382800  1
  O  O91  1  0.53716250  0.62373550  0.42592000  1
  O  O92  1  0.33383500  0.50000000  0.81684100  1
  O  O93  1  0.91670150  0.26821750  0.16791400  1
  O  O94  1  0.71258600  0.86134600  0.83822300  1
  O  O95  1  0.46572100  0.62053300  0.58101300  1
  O  O96  1  0.89228000  0.50000000  0.14302100  1
  O  O97  1  0.03694350  0.87588450  0.14744500  1
  O  O98  1  0.28384350  0.86167650  0.15425600  1
  O  O99  1  0.91670150  0.73178250  0.16791400  1
  O  O100  1  0.08541400  0.26570300  0.83531400  1
  O  O101  1  0.71258600  0.13865400  0.83822300  1
  O  O102  1  0.96611050  0.12163550  0.85295600  1
  O  O103  1  0.10787000  0.50000000  0.85677200  1
  O  O104  1  0.53716250  0.37626450  0.42592000  1
  O  O105  1  0.28384350  0.13832350  0.15425600  1
  O  O106  1  0.08541400  0.73429700  0.83531400  1
  O  O107  1  0.66495400  0.50000000  0.17996500  1
  O  O108  1  0.46572100  0.37946700  0.58101300  1
  O  O109  1  0.71331400  0.86099500  0.08616500  1
  O  O110  1  0.64293200  0.50000000  0.39274100  1
  O  O111  1  0.83399300  0.00000000  0.35161300  1
  O  O112  1  0.78145000  0.35697900  0.91382800  1
  O  O113  1  0.96611050  0.87836450  0.85295600  1
  O  O114  1  0.53694350  0.62411550  0.14744500  1
  O  O115  1  0.71331400  0.13900500  0.08616500  1
  O  O116  1  0.66045700  0.50000000  0.64761000  1
  O  O117  1  0.85552600  0.00000000  0.60585900  1
  O  O118  1  0.78145000  0.64302100  0.91382800  1
  O  O119  1  0.03716250  0.12373550  0.42592000  1
  O  O120  1  0.83383500  0.00000000  0.81684100  1
  O  O121  1  0.41670150  0.76821750  0.16791400  1
  O  O122  1  0.21258600  0.36134600  0.83822300  1
  O  O123  1  0.96572100  0.12053300  0.58101300  1
  O  O124  1  0.39228000  0.00000000  0.14302100  1
  O  O125  1  0.53694350  0.37588450  0.14744500  1
  O  O126  1  0.78384350  0.36167650  0.15425600  1
  O  O127  1  0.41670150  0.23178250  0.16791400  1
