# generated using pymatgen
data_LuTa7O19
_symmetry_space_group_name_H-M   'P 1'
_cell_length_a   6.24806164
_cell_length_b   6.24806164
_cell_length_c   20.03968800
_cell_angle_alpha   90.00000000
_cell_angle_beta   90.00000000
_cell_angle_gamma   120.00000000
_symmetry_Int_Tables_number   1
_chemical_formula_structural   LuTa7O19
_chemical_formula_sum   'Lu2 Ta14 O38'
_cell_volume   677.50452175
_cell_formula_units_Z   2
loop_
 _symmetry_equiv_pos_site_id
 _symmetry_equiv_pos_as_xyz
  1  'x, y, z'
loop_
 _atom_site_type_symbol
 _atom_site_label
 _atom_site_symmetry_multiplicity
 _atom_site_fract_x
 _atom_site_fract_y
 _atom_site_fract_z
 _atom_site_occupancy
  Lu  Lu0  1  0.66666667  0.33333333  0.00000000  1
  Lu  Lu1  1  0.66666667  0.33333333  0.50000000  1
  Ta  Ta2  1  0.69373267  0.02753633  0.34483400  1
  Ta  Ta3  1  0.69373267  0.02753633  0.15516600  1
  Ta  Ta4  1  0.97246367  0.30626733  0.84483400  1
  Ta  Ta5  1  0.97246367  0.30626733  0.65516600  1
  Ta  Ta6  1  0.69373267  0.66619633  0.84483400  1
  Ta  Ta7  1  0.69373267  0.66619633  0.65516600  1
  Ta  Ta8  1  0.00000000  0.00000000  0.50000000  1
  Ta  Ta9  1  0.00000000  0.00000000  0.00000000  1
  Ta  Ta10  1  0.97246367  0.66619633  0.15516600  1
  Ta  Ta11  1  0.97246367  0.66619633  0.34483400  1
  Ta  Ta12  1  0.33380367  0.30626733  0.15516600  1
  Ta  Ta13  1  0.33380367  0.30626733  0.34483400  1
  Ta  Ta14  1  0.33380367  0.02753633  0.84483400  1
  Ta  Ta15  1  0.33380367  0.02753633  0.65516600  1
  O  O16  1  0.33286667  0.41891033  0.65305500  1
  O  O17  1  0.33286667  0.41891033  0.84694500  1
  O  O18  1  0.37634467  0.29321033  0.25000000  1
  O  O19  1  0.58108967  0.66713333  0.34694500  1
  O  O20  1  0.58108967  0.66713333  0.15305500  1
  O  O21  1  0.37634467  0.08313433  0.75000000  1
  O  O22  1  0.33286667  0.91395633  0.15305500  1
  O  O23  1  0.33286667  0.91395633  0.34694500  1
  O  O24  1  0.70678967  0.62365533  0.75000000  1
  O  O25  1  0.66666667  0.33333333  0.13051400  1
  O  O26  1  0.66666667  0.33333333  0.86948600  1
  O  O27  1  0.66666667  0.33333333  0.63051400  1
  O  O28  1  0.66666667  0.33333333  0.36948600  1
  O  O29  1  0.91686567  0.62365533  0.25000000  1
  O  O30  1  0.58108967  0.91395633  0.65305500  1
  O  O31  1  0.58108967  0.91395633  0.84694500  1
  O  O32  1  0.70678967  0.08313433  0.25000000  1
  O  O33  1  0.75990267  0.05318833  0.05487900  1
  O  O34  1  0.75990267  0.05318833  0.44512100  1
  O  O35  1  0.08604367  0.66713333  0.65305500  1
  O  O36  1  0.08604367  0.66713333  0.84694500  1
  O  O37  1  0.91686567  0.29321033  0.75000000  1
  O  O38  1  0.94681167  0.24009733  0.94512100  1
  O  O39  1  0.94681167  0.24009733  0.55487900  1
  O  O40  1  0.08604367  0.41891033  0.34694500  1
  O  O41  1  0.08604367  0.41891033  0.15305500  1
  O  O42  1  0.75990267  0.70671433  0.55487900  1
  O  O43  1  0.75990267  0.70671433  0.94512100  1
  O  O44  1  0.00000000  0.00000000  0.33413900  1
  O  O45  1  0.00000000  0.00000000  0.83413900  1
  O  O46  1  0.00000000  0.00000000  0.66586100  1
  O  O47  1  0.00000000  0.00000000  0.16586100  1
  O  O48  1  0.94681167  0.70671433  0.05487900  1
  O  O49  1  0.94681167  0.70671433  0.44512100  1
  O  O50  1  0.29328567  0.24009733  0.05487900  1
  O  O51  1  0.29328567  0.24009733  0.44512100  1
  O  O52  1  0.29328567  0.05318833  0.94512100  1
  O  O53  1  0.29328567  0.05318833  0.55487900  1
