# generated using pymatgen
data_Tb3SbO7
_symmetry_space_group_name_H-M   'P 1'
_cell_length_a   7.45908400
_cell_length_b   10.61685400
_cell_length_c   7.54435300
_cell_angle_alpha   90.00000000
_cell_angle_beta   90.00000000
_cell_angle_gamma   90.00000000
_symmetry_Int_Tables_number   1
_chemical_formula_structural   Tb3SbO7
_chemical_formula_sum   'Tb12 Sb4 O28'
_cell_volume   597.45244655
_cell_formula_units_Z   4
loop_
 _symmetry_equiv_pos_site_id
 _symmetry_equiv_pos_as_xyz
  1  'x, y, z'
loop_
 _atom_site_type_symbol
 _atom_site_label
 _atom_site_symmetry_multiplicity
 _atom_site_fract_x
 _atom_site_fract_y
 _atom_site_fract_z
 _atom_site_occupancy
  Tb  Tb0  1  0.28364450  0.22925350  0.25000000  1
  Tb  Tb1  1  0.71635550  0.22925350  0.75000000  1
  Tb  Tb2  1  0.00000000  0.00000000  0.00000000  1
  Tb  Tb3  1  0.00000000  0.00000000  0.50000000  1
  Tb  Tb4  1  0.71635550  0.77074650  0.75000000  1
  Tb  Tb5  1  0.28364450  0.77074650  0.25000000  1
  Tb  Tb6  1  0.78364450  0.72925350  0.25000000  1
  Tb  Tb7  1  0.21635550  0.72925350  0.75000000  1
  Tb  Tb8  1  0.50000000  0.50000000  0.00000000  1
  Tb  Tb9  1  0.50000000  0.50000000  0.50000000  1
  Tb  Tb10  1  0.21635550  0.27074650  0.75000000  1
  Tb  Tb11  1  0.78364450  0.27074650  0.25000000  1
  Sb  Sb12  1  0.50000000  0.00000000  0.50000000  1
  Sb  Sb13  1  0.50000000  0.00000000  0.00000000  1
  Sb  Sb14  1  0.00000000  0.50000000  0.50000000  1
  Sb  Sb15  1  0.00000000  0.50000000  0.00000000  1
  O  O16  1  0.48258150  0.36657650  0.75000000  1
  O  O17  1  0.51741850  0.36657650  0.25000000  1
  O  O18  1  0.30832900  0.12898200  0.53310100  1
  O  O19  1  0.69167100  0.12898200  0.03310100  1
  O  O20  1  0.69167100  0.12898200  0.46689900  1
  O  O21  1  0.30832900  0.12898200  0.96689900  1
  O  O22  1  0.58764500  0.00000000  0.75000000  1
  O  O23  1  0.41235500  0.00000000  0.25000000  1
  O  O24  1  0.69167100  0.87101800  0.03310100  1
  O  O25  1  0.30832900  0.87101800  0.53310100  1
  O  O26  1  0.69167100  0.87101800  0.46689900  1
  O  O27  1  0.30832900  0.87101800  0.96689900  1
  O  O28  1  0.48258150  0.63342350  0.75000000  1
  O  O29  1  0.51741850  0.63342350  0.25000000  1
  O  O30  1  0.98258150  0.86657650  0.75000000  1
  O  O31  1  0.01741850  0.86657650  0.25000000  1
  O  O32  1  0.80832900  0.62898200  0.53310100  1
  O  O33  1  0.19167100  0.62898200  0.03310100  1
  O  O34  1  0.19167100  0.62898200  0.46689900  1
  O  O35  1  0.80832900  0.62898200  0.96689900  1
  O  O36  1  0.08764500  0.50000000  0.75000000  1
  O  O37  1  0.91235500  0.50000000  0.25000000  1
  O  O38  1  0.19167100  0.37101800  0.03310100  1
  O  O39  1  0.80832900  0.37101800  0.53310100  1
  O  O40  1  0.19167100  0.37101800  0.46689900  1
  O  O41  1  0.80832900  0.37101800  0.96689900  1
  O  O42  1  0.98258150  0.13342350  0.75000000  1
  O  O43  1  0.01741850  0.13342350  0.25000000  1
