# generated using pymatgen
data_Ta3(OF)5
_symmetry_space_group_name_H-M   'P 1'
_cell_length_a   3.94082600
_cell_length_b   4.01440400
_cell_length_c   25.01511200
_cell_angle_alpha   90.00000000
_cell_angle_beta   90.00000000
_cell_angle_gamma   90.00000000
_symmetry_Int_Tables_number   1
_chemical_formula_structural   Ta3(OF)5
_chemical_formula_sum   'Ta6 O10 F10'
_cell_volume   395.74076431
_cell_formula_units_Z   2
loop_
 _symmetry_equiv_pos_site_id
 _symmetry_equiv_pos_as_xyz
  1  'x, y, z'
loop_
 _atom_site_type_symbol
 _atom_site_label
 _atom_site_symmetry_multiplicity
 _atom_site_fract_x
 _atom_site_fract_y
 _atom_site_fract_z
 _atom_site_occupancy
  Ta  Ta0  1  0.00000000  0.00000000  0.00000000  1
  Ta  Ta1  1  0.50000000  0.50000000  0.65514700  1
  Ta  Ta2  1  0.00000000  0.00000000  0.84485300  1
  Ta  Ta3  1  0.50000000  0.50000000  0.50000000  1
  Ta  Ta4  1  0.00000000  0.00000000  0.15514700  1
  Ta  Ta5  1  0.50000000  0.50000000  0.34485300  1
  O  O6  1  0.50000000  0.00000000  0.84583700  1
  O  O7  1  0.00000000  0.50000000  0.00000000  1
  O  O8  1  0.50000000  0.50000000  0.57766200  1
  O  O9  1  0.00000000  0.00000000  0.92233800  1
  O  O10  1  0.00000000  0.50000000  0.65416300  1
  O  O11  1  0.00000000  0.50000000  0.34583700  1
  O  O12  1  0.50000000  0.00000000  0.50000000  1
  O  O13  1  0.00000000  0.00000000  0.07766200  1
  O  O14  1  0.50000000  0.50000000  0.42233800  1
  O  O15  1  0.50000000  0.00000000  0.15416300  1
  F  F16  1  0.50000000  0.00000000  0.65638500  1
  F  F17  1  0.50000000  0.50000000  0.73141000  1
  F  F18  1  0.00000000  0.00000000  0.76859000  1
  F  F19  1  0.50000000  0.00000000  0.00000000  1
  F  F20  1  0.00000000  0.50000000  0.84361500  1
  F  F21  1  0.00000000  0.50000000  0.15638500  1
  F  F22  1  0.00000000  0.00000000  0.23141000  1
  F  F23  1  0.50000000  0.50000000  0.26859000  1
  F  F24  1  0.00000000  0.50000000  0.50000000  1
  F  F25  1  0.50000000  0.00000000  0.34361500  1
