# generated using pymatgen
data_Dy2TeO6
_symmetry_space_group_name_H-M   'P 1'
_cell_length_a   9.18209926
_cell_length_b   9.18209926
_cell_length_c   5.21642700
_cell_angle_alpha   90.00000000
_cell_angle_beta   90.00000000
_cell_angle_gamma   120.00000000
_symmetry_Int_Tables_number   1
_chemical_formula_structural   Dy2TeO6
_chemical_formula_sum   'Dy6 Te3 O18'
_cell_volume   380.87961710
_cell_formula_units_Z   3
loop_
 _symmetry_equiv_pos_site_id
 _symmetry_equiv_pos_as_xyz
  1  'x, y, z'
loop_
 _atom_site_type_symbol
 _atom_site_label
 _atom_site_symmetry_multiplicity
 _atom_site_fract_x
 _atom_site_fract_y
 _atom_site_fract_z
 _atom_site_occupancy
  Dy  Dy0  1  0.00000000  0.62086350  0.00000000  1
  Dy  Dy1  1  0.00000000  0.28333450  0.50000000  1
  Dy  Dy2  1  0.37913650  0.37913650  0.00000000  1
  Dy  Dy3  1  0.28333450  0.00000000  0.50000000  1
  Dy  Dy4  1  0.71666550  0.71666550  0.50000000  1
  Dy  Dy5  1  0.62086350  0.00000000  0.00000000  1
  Te  Te6  1  0.33333333  0.66666667  0.50400700  1
  Te  Te7  1  0.00000000  0.00000000  0.00000000  1
  Te  Te8  1  0.66666667  0.33333333  0.49599300  1
  O  O9  1  0.07930933  0.87910167  0.78936900  1
  O  O10  1  0.22334033  0.75914567  0.29022400  1
  O  O11  1  0.13315033  0.54301167  0.71757500  1
  O  O12  1  0.40986133  0.86684967  0.71757500  1
  O  O13  1  0.24085433  0.46419467  0.29022400  1
  O  O14  1  0.12089833  0.20020767  0.78936900  1
  O  O15  1  0.20020767  0.12089833  0.21063100  1
  O  O16  1  0.53580533  0.77665967  0.29022400  1
  O  O17  1  0.45698833  0.59013867  0.71757500  1
  O  O18  1  0.79979233  0.92069067  0.78936900  1
  O  O19  1  0.46419467  0.24085433  0.70977600  1
  O  O20  1  0.59013867  0.45698833  0.28242500  1
  O  O21  1  0.54301167  0.13315033  0.28242500  1
  O  O22  1  0.77665967  0.53580533  0.70977600  1
  O  O23  1  0.92069067  0.79979233  0.21063100  1
  O  O24  1  0.75914567  0.22334033  0.70977600  1
  O  O25  1  0.86684967  0.40986133  0.28242500  1
  O  O26  1  0.87910167  0.07930933  0.21063100  1
