# generated using pymatgen
data_Li6Cr3Sb3O16
_symmetry_space_group_name_H-M   'P 1'
_cell_length_a   10.45746200
_cell_length_b   6.07552000
_cell_length_c   10.02636895
_cell_angle_alpha   90.00000000
_cell_angle_beta   90.17346991
_cell_angle_gamma   90.00000000
_symmetry_Int_Tables_number   1
_chemical_formula_structural   Li6Cr3Sb3O16
_chemical_formula_sum   'Li12 Cr6 Sb6 O32'
_cell_volume   637.01761446
_cell_formula_units_Z   2
loop_
 _symmetry_equiv_pos_site_id
 _symmetry_equiv_pos_as_xyz
  1  'x, y, z'
loop_
 _atom_site_type_symbol
 _atom_site_label
 _atom_site_symmetry_multiplicity
 _atom_site_fract_x
 _atom_site_fract_y
 _atom_site_fract_z
 _atom_site_occupancy
  Li  Li0  1  0.66000800  0.00000000  0.49915100  1
  Li  Li1  1  0.67063300  0.00000000  0.11131900  1
  Li  Li2  1  0.01014100  0.00000000  0.99603800  1
  Li  Li3  1  0.01116500  0.00000000  0.50305700  1
  Li  Li4  1  0.33004600  0.00000000  0.99984700  1
  Li  Li5  1  0.33278500  0.00000000  0.62012400  1
  Li  Li6  1  0.16000800  0.50000000  0.49915100  1
  Li  Li7  1  0.17063300  0.50000000  0.11131900  1
  Li  Li8  1  0.51014100  0.50000000  0.99603800  1
  Li  Li9  1  0.51116500  0.50000000  0.50305700  1
  Li  Li10  1  0.83004600  0.50000000  0.99984700  1
  Li  Li11  1  0.83278500  0.50000000  0.62012400  1
  Cr  Cr12  1  0.58246900  0.75190200  0.78452600  1
  Cr  Cr13  1  0.58246900  0.24809800  0.78452600  1
  Cr  Cr14  1  0.16734600  0.00000000  0.28384000  1
  Cr  Cr15  1  0.08246900  0.25190200  0.78452600  1
  Cr  Cr16  1  0.08246900  0.74809800  0.78452600  1
  Cr  Cr17  1  0.66734600  0.50000000  0.28384000  1
  Sb  Sb18  1  0.82972600  0.00000000  0.78470700  1
  Sb  Sb19  1  0.41501500  0.75235700  0.28400600  1
  Sb  Sb20  1  0.41501500  0.24764300  0.28400600  1
  Sb  Sb21  1  0.32972600  0.50000000  0.78470700  1
  Sb  Sb22  1  0.91501500  0.25235700  0.28400600  1
  Sb  Sb23  1  0.91501500  0.74764300  0.28400600  1
  O  O24  1  0.57328000  0.73395600  0.39090600  1
  O  O25  1  0.51584600  0.00000000  0.68823500  1
  O  O26  1  0.66597200  0.00000000  0.89512200  1
  O  O27  1  0.99847600  0.00000000  0.68225700  1
  O  O28  1  0.99979400  0.00000000  0.17727100  1
  O  O29  1  0.57328000  0.26604400  0.39090600  1
  O  O30  1  0.73819400  0.77057300  0.67702600  1
  O  O31  1  0.73819400  0.22942700  0.67702600  1
  O  O32  1  0.15231000  0.00000000  0.87963100  1
  O  O33  1  0.84535300  0.00000000  0.39620700  1
  O  O34  1  0.25943850  0.76913050  0.17520200  1
  O  O35  1  0.25943850  0.23086950  0.17520200  1
  O  O36  1  0.33265400  0.00000000  0.39763300  1
  O  O37  1  0.42640950  0.73010150  0.89105000  1
  O  O38  1  0.48793000  0.00000000  0.17228400  1
  O  O39  1  0.42640950  0.26989850  0.89105000  1
  O  O40  1  0.07328000  0.23395600  0.39090600  1
  O  O41  1  0.01584600  0.50000000  0.68823500  1
  O  O42  1  0.16597200  0.50000000  0.89512200  1
  O  O43  1  0.49847600  0.50000000  0.68225700  1
  O  O44  1  0.49979400  0.50000000  0.17727100  1
  O  O45  1  0.07328000  0.76604400  0.39090600  1
  O  O46  1  0.23819400  0.27057300  0.67702600  1
  O  O47  1  0.23819400  0.72942700  0.67702600  1
  O  O48  1  0.65231000  0.50000000  0.87963100  1
  O  O49  1  0.34535300  0.50000000  0.39620700  1
  O  O50  1  0.75943850  0.26913050  0.17520200  1
  O  O51  1  0.75943850  0.73086950  0.17520200  1
  O  O52  1  0.83265400  0.50000000  0.39763300  1
  O  O53  1  0.92640950  0.23010150  0.89105000  1
  O  O54  1  0.98793000  0.50000000  0.17228400  1
  O  O55  1  0.92640950  0.76989850  0.89105000  1
