# generated using pymatgen
data_La2Mo2O9
_symmetry_space_group_name_H-M   'P 1'
_cell_length_a   7.27095500
_cell_length_b   7.28962914
_cell_length_c   7.34939515
_cell_angle_alpha   89.47068859
_cell_angle_beta   88.35481316
_cell_angle_gamma   87.76302989
_symmetry_Int_Tables_number   1
_chemical_formula_structural   La2Mo2O9
_chemical_formula_sum   'La4 Mo4 O18'
_cell_volume   389.06664654
_cell_formula_units_Z   2
loop_
 _symmetry_equiv_pos_site_id
 _symmetry_equiv_pos_as_xyz
  1  'x, y, z'
loop_
 _atom_site_type_symbol
 _atom_site_label
 _atom_site_symmetry_multiplicity
 _atom_site_fract_x
 _atom_site_fract_y
 _atom_site_fract_z
 _atom_site_occupancy
  La  La0  1  0.16627900  0.38891600  0.33816700  1
  La  La1  1  0.33135000  0.84764100  0.65792400  1
  La  La2  1  0.64399500  0.63915100  0.15827200  1
  La  La3  1  0.85631200  0.14258800  0.90811400  1
  Mo  Mo4  1  0.18046900  0.82621700  0.12347600  1
  Mo  Mo5  1  0.33066700  0.32313400  0.80444300  1
  Mo  Mo6  1  0.65686000  0.17426200  0.34308200  1
  Mo  Mo7  1  0.82317700  0.66632600  0.67588100  1
  O  O8  1  0.05462900  0.65429300  0.57900900  1
  O  O9  1  0.13259200  0.05611400  0.20503400  1
  O  O10  1  0.07951800  0.88717900  0.88268000  1
  O  O11  1  0.14939700  0.21000100  0.68902600  1
  O  O12  1  0.32341800  0.72423900  0.31570300  1
  O  O13  1  0.39256600  0.51262500  0.66521500  1
  O  O14  1  0.39683800  0.77219600  0.97482700  1
  O  O15  1  0.23759600  0.40101000  0.01799200  1
  O  O16  1  0.45295000  0.07564300  0.46285500  1
  O  O17  1  0.48827000  0.38005800  0.29269700  1
  O  O18  1  0.51906400  0.16513800  0.84164000  1
  O  O19  1  0.67836500  0.66562800  0.48513400  1
  O  O20  1  0.70441400  0.98491900  0.18073500  1
  O  O21  1  0.72382300  0.85527200  0.80359000  1
  O  O22  1  0.82031300  0.32835400  0.18115800  1
  O  O23  1  0.78565300  0.47353100  0.82469300  1
  O  O24  1  0.81290500  0.17340300  0.52637700  1
  O  O25  1  0.99538000  0.66696000  0.18007800  1
