# generated using pymatgen
data_CoP3H16N4O11
_symmetry_space_group_name_H-M   'P 1'
_cell_length_a   7.39224700
_cell_length_b   14.28005600
_cell_length_c   14.13269412
_cell_angle_alpha   90.00000000
_cell_angle_beta   117.58293238
_cell_angle_gamma   90.00000000
_symmetry_Int_Tables_number   1
_chemical_formula_structural   CoP3H16N4O11
_chemical_formula_sum   'Co4 P12 H64 N16 O44'
_cell_volume   1322.30745961
_cell_formula_units_Z   4
loop_
 _symmetry_equiv_pos_site_id
 _symmetry_equiv_pos_as_xyz
  1  'x, y, z'
loop_
 _atom_site_type_symbol
 _atom_site_label
 _atom_site_symmetry_multiplicity
 _atom_site_fract_x
 _atom_site_fract_y
 _atom_site_fract_z
 _atom_site_occupancy
  Co  Co0  1  0.53302700  0.89622700  0.28783400  1
  Co  Co1  1  0.53302700  0.60377300  0.78783400  1
  Co  Co2  1  0.46697300  0.10377300  0.71216600  1
  Co  Co3  1  0.46697300  0.39622700  0.21216600  1
  P  P4  1  0.65004400  0.82463600  0.53985300  1
  P  P5  1  0.65004400  0.67536400  0.03985300  1
  P  P6  1  0.34995600  0.17536400  0.46014700  1
  P  P7  1  0.34995600  0.32463600  0.96014700  1
  P  P8  1  0.81561100  0.65864000  0.47419200  1
  P  P9  1  0.81561100  0.84136000  0.97419200  1
  P  P10  1  0.18438900  0.34136000  0.52580800  1
  P  P11  1  0.18438900  0.15864000  0.02580800  1
  P  P12  1  0.97906200  0.79084300  0.37189200  1
  P  P13  1  0.97906200  0.70915700  0.87189200  1
  P  P14  1  0.02093800  0.20915700  0.62810800  1
  P  P15  1  0.02093800  0.29084300  0.12810800  1
  H  H16  1  0.48551100  0.86246000  0.09608500  1
  H  H17  1  0.48551100  0.63754000  0.59608500  1
  H  H18  1  0.51448900  0.13754000  0.90391500  1
  H  H19  1  0.51448900  0.36246000  0.40391500  1
  H  H20  1  0.51024300  0.97699400  0.11451000  1
  H  H21  1  0.51024300  0.52300600  0.61451000  1
  H  H22  1  0.48975700  0.02300600  0.88549000  1
  H  H23  1  0.48975700  0.47699400  0.38549000  1
  H  H24  1  0.28735000  0.92644600  0.08338200  1
  H  H25  1  0.28735000  0.57355400  0.58338200  1
  H  H26  1  0.71265000  0.07355400  0.91661800  1
  H  H27  1  0.71265000  0.42644600  0.41661800  1
  H  H28  1  0.28834600  0.77171500  0.16814000  1
  H  H29  1  0.28834600  0.72828500  0.66814000  1
  H  H30  1  0.71165400  0.22828500  0.83186000  1
  H  H31  1  0.71165400  0.27171500  0.33186000  1
  H  H32  1  0.28510700  0.76618600  0.28417500  1
  H  H33  1  0.28510700  0.73381400  0.78417500  1
  H  H34  1  0.71489300  0.23381400  0.71582500  1
  H  H35  1  0.71489300  0.26618600  0.21582500  1
  H  H36  1  0.48577600  0.72405400  0.27293100  1
  H  H37  1  0.48577600  0.77594600  0.77293100  1
  H  H38  1  0.51422400  0.27594600  0.72706900  1
  H  H39  1  0.51422400  0.22405400  0.22706900  1
  H  H40  1  0.27540800  0.97523700  0.33938800  1
  H  H41  1  0.27540800  0.52476300  0.83938800  1
  H  H42  1  0.72459200  0.02476300  0.66061200  1
  H  H43  1  0.72459200  0.47523700  0.16061200  1
  H  H44  1  0.14889500  0.93856400  0.21335200  1
  H  H45  1  0.14889500  0.56143600  0.71335200  1
  H  H46  1  0.85110500  0.06143600  0.78664800  1
  H  H47  1  0.85110500  0.43856400  0.28664800  1
  H  H48  1  0.28371000  0.03546300  0.23928800  1
  H  H49  1  0.28371000  0.46453700  0.73928800  1
  H  H50  1  0.71629000  0.96453700  0.76071200  1
  H  H51  1  0.71629000  0.53546300  0.26071200  1
  H  H52  1  0.61987600  0.06688100  0.33852000  1
  H  H53  1  0.61987600  0.43311900  0.83852000  1
  H  H54  1  0.38012400  0.93311900  0.66148000  1
  H  H55  1  0.38012400  0.56688100  0.16148000  1
  H  H56  1  0.74073100  0.02928500  0.26943400  1
  H  H57  1  0.74073100  0.47071500  0.76943400  1
  H  H58  1  0.25926900  0.97071500  0.73056600  1
  H  H59  1  0.25926900  0.52928500  0.23056600  1
  H  H60  1  0.82437700  0.99972900  0.39763000  1
  H  H61  1  0.82437700  0.50027100  0.89763000  1
  H  H62  1  0.17562300  0.00027100  0.60237000  1
  H  H63  1  0.17562300  0.49972900  0.10237000  1
  H  H64  1  0.16806800  0.99911800  0.89107300  1
  H  H65  1  0.16806800  0.50088200  0.39107300  1
  H  H66  1  0.83193200  0.00088200  0.10892700  1
  H  H67  1  0.83193200  0.49911800  0.60892700  1
  H  H68  1  0.17568500  0.89270200  0.85906100  1
  H  H69  1  0.17568500  0.60729800  0.35906100  1
  H  H70  1  0.82431500  0.10729800  0.14093900  1
  H  H71  1  0.82431500  0.39270200  0.64093900  1
  H  H72  1  0.92289800  0.81710300  0.70499200  1
  H  H73  1  0.92289800  0.68289700  0.20499200  1
  H  H74  1  0.07710200  0.18289700  0.29500800  1
  H  H75  1  0.07710200  0.31710300  0.79500800  1
  H  H76  1  0.26958700  0.85757100  0.48504900  1
  H  H77  1  0.26958700  0.64242900  0.98504900  1
  H  H78  1  0.73041300  0.14242900  0.51495100  1
  H  H79  1  0.73041300  0.35757100  0.01495100  1
  N  N80  1  0.44215400  0.91832200  0.12614300  1
  N  N81  1  0.44215400  0.58167800  0.62614300  1
  N  N82  1  0.55784600  0.08167800  0.87385700  1
  N  N83  1  0.55784600  0.41832200  0.37385700  1
  N  N84  1  0.37848800  0.77725900  0.24889400  1
  N  N85  1  0.37848800  0.72274100  0.74889400  1
  N  N86  1  0.62151200  0.22274100  0.75110600  1
  N  N87  1  0.62151200  0.27725900  0.25110600  1
  N  N88  1  0.28090600  0.96978200  0.26876200  1
  N  N89  1  0.28090600  0.53021800  0.76876200  1
  N  N90  1  0.71909400  0.03021800  0.73123800  1
  N  N91  1  0.71909400  0.46978200  0.23123800  1
  N  N92  1  0.69667700  0.01186700  0.32693500  1
  N  N93  1  0.69667700  0.48813300  0.82693500  1
  N  N94  1  0.30332300  0.98813300  0.67306500  1
  N  N95  1  0.30332300  0.51186700  0.17306500  1
  O  O96  1  0.62285900  0.88511500  0.44602900  1
  O  O97  1  0.62285900  0.61488500  0.94602900  1
  O  O98  1  0.37714100  0.11488500  0.55397100  1
  O  O99  1  0.37714100  0.38511500  0.05397100  1
  O  O100  1  0.86282000  0.85284900  0.63482700  1
  O  O101  1  0.86282000  0.64715100  0.13482700  1
  O  O102  1  0.13718000  0.14715100  0.36517300  1
  O  O103  1  0.13718000  0.35284900  0.86517300  1
  O  O104  1  0.47804000  0.82862300  0.56985300  1
  O  O105  1  0.47804000  0.67137700  0.06985300  1
  O  O106  1  0.52196000  0.17137700  0.43014700  1
  O  O107  1  0.52196000  0.32862300  0.93014700  1
  O  O108  1  0.66958000  0.71571000  0.51319000  1
  O  O109  1  0.66958000  0.78429000  0.01319000  1
  O  O110  1  0.33042000  0.28429000  0.48681000  1
  O  O111  1  0.33042000  0.21571000  0.98681000  1
  O  O112  1  0.94430900  0.59299700  0.56333000  1
  O  O113  1  0.94430900  0.90700300  0.06333000  1
  O  O114  1  0.05569100  0.40700300  0.43667000  1
  O  O115  1  0.05569100  0.09299700  0.93667000  1
  O  O116  1  0.68404100  0.62446300  0.36309600  1
  O  O117  1  0.68404100  0.87553700  0.86309600  1
  O  O118  1  0.31595900  0.37553700  0.63690400  1
  O  O119  1  0.31595900  0.12446300  0.13690400  1
  O  O120  1  0.97133200  0.73971500  0.47296400  1
  O  O121  1  0.97133200  0.76028500  0.97296400  1
  O  O122  1  0.02866800  0.26028500  0.52703600  1
  O  O123  1  0.02866800  0.23971500  0.02703600  1
  O  O124  1  0.12229100  0.87670400  0.42882100  1
  O  O125  1  0.12229100  0.62329600  0.92882100  1
  O  O126  1  0.87770900  0.12329600  0.57117900  1
  O  O127  1  0.87770900  0.37670400  0.07117900  1
  O  O128  1  0.07327000  0.72476000  0.32251600  1
  O  O129  1  0.07327000  0.77524000  0.82251600  1
  O  O130  1  0.92673000  0.27524000  0.67748400  1
  O  O131  1  0.92673000  0.22476000  0.17748400  1
  O  O132  1  0.77012000  0.82606200  0.29299700  1
  O  O133  1  0.77012000  0.67393800  0.79299700  1
  O  O134  1  0.22988000  0.17393800  0.70700300  1
  O  O135  1  0.22988000  0.32606200  0.20700300  1
  O  O136  1  0.23622700  0.95522200  0.86366200  1
  O  O137  1  0.23622700  0.54477800  0.36366200  1
  O  O138  1  0.76377300  0.04477800  0.13633800  1
  O  O139  1  0.76377300  0.45522200  0.63633800  1
