# generated using pymatgen
data_Hf2N2O
_symmetry_space_group_name_H-M   'P 1'
_cell_length_a   8.70043100
_cell_length_b   8.73260641
_cell_length_c   8.73760046
_cell_angle_alpha   109.59139655
_cell_angle_beta   109.47249700
_cell_angle_gamma   109.22151815
_symmetry_Int_Tables_number   1
_chemical_formula_structural   Hf2N2O
_chemical_formula_sum   'Hf16 N16 O8'
_cell_volume   511.84315577
_cell_formula_units_Z   8
loop_
 _symmetry_equiv_pos_site_id
 _symmetry_equiv_pos_as_xyz
  1  'x, y, z'
loop_
 _atom_site_type_symbol
 _atom_site_label
 _atom_site_symmetry_multiplicity
 _atom_site_fract_x
 _atom_site_fract_y
 _atom_site_fract_z
 _atom_site_occupancy
  Hf  Hf0  1  0.46140400  0.21585000  0.25777000  1
  Hf  Hf1  1  0.00654100  0.00952600  0.99638600  1
  Hf  Hf2  1  0.74689000  0.46413300  0.71277500  1
  Hf  Hf3  1  0.50796000  0.51680800  0.00752000  1
  Hf  Hf4  1  0.98869100  0.49769500  0.49743300  1
  Hf  Hf5  1  0.24188200  0.02483400  0.78359400  1
  Hf  Hf6  1  0.21434000  0.25051900  0.46142700  1
  Hf  Hf7  1  0.71655100  0.25510700  0.96946200  1
  Hf  Hf8  1  0.03866300  0.28598200  0.74931400  1
  Hf  Hf9  1  0.96096400  0.70623700  0.24915500  1
  Hf  Hf10  1  0.27790900  0.73994900  0.02117400  1
  Hf  Hf11  1  0.78411500  0.75045200  0.52803800  1
  Hf  Hf12  1  0.75335900  0.96851100  0.21557300  1
  Hf  Hf13  1  0.49683000  0.99537600  0.50727300  1
  Hf  Hf14  1  0.25184600  0.53033600  0.28073800  1
  Hf  Hf15  1  0.53925400  0.79801400  0.75690100  1
  N  N16  1  0.46320200  0.23258300  0.51093500  1
  N  N17  1  0.95764400  0.22463400  0.46571500  1
  N  N18  1  0.73625800  0.50805400  0.96234300  1
  N  N19  1  0.02789600  0.54201300  0.77162800  1
  N  N20  1  0.23135800  0.95743900  0.99099200  1
  N  N21  1  0.98618500  0.03620600  0.76227700  1
  N  N22  1  0.72290600  0.46476200  0.44910200  1
  N  N23  1  0.48287300  0.72446600  0.94884400  1
  N  N24  1  0.97083800  0.45638500  0.22818100  1
  N  N25  1  0.77513800  0.04400300  0.01184900  1
  N  N26  1  0.26272100  0.48842500  0.03541500  1
  N  N27  1  0.04890700  0.77240400  0.53539600  1
  N  N28  1  0.45821400  0.99507900  0.72971700  1
  N  N29  1  0.23591600  0.27096400  0.23088900  1
  N  N30  1  0.73025500  0.74117900  0.27080800  1
  N  N31  1  0.53080600  0.76033500  0.48949400  1
  O  O32  1  0.27463800  0.26192700  0.72954500  1
  O  O33  1  0.76356200  0.72671800  0.77420700  1
  O  O34  1  0.54714200  0.00917200  0.27498700  1
  O  O35  1  0.77143600  0.22374300  0.73441400  1
  O  O36  1  0.27732300  0.53109000  0.55058400  1
  O  O37  1  0.01522600  0.96320100  0.23857600  1
  O  O38  1  0.51273800  0.27410700  0.04621200  1
  O  O39  1  0.22961900  0.78178500  0.26336000  1
