# generated using pymatgen
data_K2H2C2S2N2O
_symmetry_space_group_name_H-M   'P 1'
_cell_length_a   8.11829500
_cell_length_b   9.88007500
_cell_length_c   10.36120500
_cell_angle_alpha   90.00000000
_cell_angle_beta   90.00000000
_cell_angle_gamma   90.00000000
_symmetry_Int_Tables_number   1
_chemical_formula_structural   K2H2C2S2N2O
_chemical_formula_sum   'K8 H8 C8 S8 N8 O4'
_cell_volume   831.06565785
_cell_formula_units_Z   4
loop_
 _symmetry_equiv_pos_site_id
 _symmetry_equiv_pos_as_xyz
  1  'x, y, z'
loop_
 _atom_site_type_symbol
 _atom_site_label
 _atom_site_symmetry_multiplicity
 _atom_site_fract_x
 _atom_site_fract_y
 _atom_site_fract_z
 _atom_site_occupancy
  K  K0  1  0.49891600  0.76653700  0.66587200  1
  K  K1  1  0.00108400  0.73346300  0.16587200  1
  K  K2  1  0.99891600  0.23346300  0.33412800  1
  K  K3  1  0.50108400  0.26653700  0.83412800  1
  K  K4  1  0.50108400  0.23346300  0.33412800  1
  K  K5  1  0.99891600  0.26653700  0.83412800  1
  K  K6  1  0.00108400  0.76653700  0.66587200  1
  K  K7  1  0.49891600  0.73346300  0.16587200  1
  H  H8  1  0.25000000  0.49069400  0.99479800  1
  H  H9  1  0.25000000  0.00930600  0.49479800  1
  H  H10  1  0.75000000  0.50930600  0.00520200  1
  H  H11  1  0.75000000  0.99069400  0.50520200  1
  H  H12  1  0.25000000  0.33857300  0.04499600  1
  H  H13  1  0.25000000  0.16142700  0.54499600  1
  H  H14  1  0.75000000  0.66142700  0.95500400  1
  H  H15  1  0.75000000  0.83857300  0.45500400  1
  C  C16  1  0.25000000  0.61308900  0.43298600  1
  C  C17  1  0.25000000  0.88691100  0.93298600  1
  C  C18  1  0.75000000  0.38691100  0.56701400  1
  C  C19  1  0.75000000  0.11308900  0.06701400  1
  C  C20  1  0.25000000  0.44379500  0.58994500  1
  C  C21  1  0.25000000  0.05620500  0.08994500  1
  C  C22  1  0.75000000  0.55620500  0.41005500  1
  C  C23  1  0.75000000  0.94379500  0.91005500  1
  S  S24  1  0.25000000  0.50290900  0.30417100  1
  S  S25  1  0.25000000  0.99709100  0.80417100  1
  S  S26  1  0.75000000  0.49709100  0.69582900  1
  S  S27  1  0.75000000  0.00290900  0.19582900  1
  S  S28  1  0.25000000  0.78545700  0.40667700  1
  S  S29  1  0.25000000  0.71454300  0.90667700  1
  S  S30  1  0.75000000  0.21454300  0.59332300  1
  S  S31  1  0.75000000  0.28545700  0.09332300  1
  N  N32  1  0.25000000  0.57075200  0.55814800  1
  N  N33  1  0.25000000  0.92924800  0.05814800  1
  N  N34  1  0.75000000  0.42924800  0.44185200  1
  N  N35  1  0.75000000  0.07075200  0.94185200  1
  N  N36  1  0.25000000  0.33151600  0.63139300  1
  N  N37  1  0.25000000  0.16848400  0.13139300  1
  N  N38  1  0.75000000  0.66848400  0.36860700  1
  N  N39  1  0.75000000  0.83151600  0.86860700  1
  O  O40  1  0.25000000  0.39587100  0.96674200  1
  O  O41  1  0.25000000  0.10412900  0.46674200  1
  O  O42  1  0.75000000  0.60412900  0.03325800  1
  O  O43  1  0.75000000  0.89587100  0.53325800  1
