# generated using pymatgen
data_LiVOF3
_symmetry_space_group_name_H-M   'P 1'
_cell_length_a   13.23005200
_cell_length_b   4.72908000
_cell_length_c   4.72606182
_cell_angle_alpha   90.00000000
_cell_angle_beta   110.36911469
_cell_angle_gamma   90.00000000
_symmetry_Int_Tables_number   1
_chemical_formula_structural   LiVOF3
_chemical_formula_sum   'Li4 V4 O4 F12'
_cell_volume   277.20105183
_cell_formula_units_Z   4
loop_
 _symmetry_equiv_pos_site_id
 _symmetry_equiv_pos_as_xyz
  1  'x, y, z'
loop_
 _atom_site_type_symbol
 _atom_site_label
 _atom_site_symmetry_multiplicity
 _atom_site_fract_x
 _atom_site_fract_y
 _atom_site_fract_z
 _atom_site_occupancy
  Li  Li0  1  0.00000000  0.25326700  0.50000000  1
  Li  Li1  1  0.00000000  0.74918500  0.00000000  1
  Li  Li2  1  0.50000000  0.75326700  0.50000000  1
  Li  Li3  1  0.50000000  0.24918500  0.00000000  1
  V  V4  1  0.19267700  0.22509200  0.21689300  1
  V  V5  1  0.30732300  0.72509200  0.78310700  1
  V  V6  1  0.69267700  0.72509200  0.21689300  1
  V  V7  1  0.80732300  0.22509200  0.78310700  1
  O  O8  1  0.19990700  0.97006200  0.47566100  1
  O  O9  1  0.30009300  0.47006200  0.52433900  1
  O  O10  1  0.69990700  0.47006200  0.47566100  1
  O  O11  1  0.80009300  0.97006200  0.52433900  1
  F  F12  1  0.07976250  0.45391750  0.28213100  1
  F  F13  1  0.08071450  0.05118950  0.87221700  1
  F  F14  1  0.19741600  0.53638900  0.92604900  1
  F  F15  1  0.42023750  0.95391750  0.71786900  1
  F  F16  1  0.30258400  0.03638900  0.07395100  1
  F  F17  1  0.41928550  0.55118950  0.12778300  1
  F  F18  1  0.57976250  0.95391750  0.28213100  1
  F  F19  1  0.58071450  0.55118950  0.87221700  1
  F  F20  1  0.69741600  0.03638900  0.92604900  1
  F  F21  1  0.92023750  0.45391750  0.71786900  1
  F  F22  1  0.80258400  0.53638900  0.07395100  1
  F  F23  1  0.91928550  0.05118950  0.12778300  1
