# generated using pymatgen
data_CsVZn(PO3)6
_symmetry_space_group_name_H-M   'P 1'
_cell_length_a   15.61498800
_cell_length_b   13.41744800
_cell_length_c   10.98672777
_cell_angle_alpha   90.00000000
_cell_angle_beta   121.14317808
_cell_angle_gamma   90.00000000
_symmetry_Int_Tables_number   1
_chemical_formula_structural   CsVZn(PO3)6
_chemical_formula_sum   'Cs4 V4 Zn4 P24 O72'
_cell_volume   1970.11505818
_cell_formula_units_Z   4
loop_
 _symmetry_equiv_pos_site_id
 _symmetry_equiv_pos_as_xyz
  1  'x, y, z'
loop_
 _atom_site_type_symbol
 _atom_site_label
 _atom_site_symmetry_multiplicity
 _atom_site_fract_x
 _atom_site_fract_y
 _atom_site_fract_z
 _atom_site_occupancy
  Cs  Cs0  1  0.70522500  0.50000000  0.25494500  1
  Cs  Cs1  1  0.29477500  0.50000000  0.74505500  1
  Cs  Cs2  1  0.20522500  0.00000000  0.25494500  1
  Cs  Cs3  1  0.79477500  0.00000000  0.74505500  1
  V  V4  1  0.00000000  0.28078600  0.00000000  1
  V  V5  1  0.00000000  0.71921400  0.00000000  1
  V  V6  1  0.50000000  0.78078600  0.00000000  1
  V  V7  1  0.50000000  0.21921400  0.00000000  1
  Zn  Zn8  1  0.00000000  0.22932400  0.50000000  1
  Zn  Zn9  1  0.00000000  0.77067600  0.50000000  1
  Zn  Zn10  1  0.50000000  0.72932400  0.50000000  1
  Zn  Zn11  1  0.50000000  0.27067600  0.50000000  1
  P  P12  1  0.86157700  0.38663300  0.70781700  1
  P  P13  1  0.86157700  0.61336700  0.70781700  1
  P  P14  1  0.77532800  0.68973900  0.79293600  1
  P  P15  1  0.77532800  0.31026100  0.79293600  1
  P  P16  1  0.64868400  0.38865500  0.79322100  1
  P  P17  1  0.64868400  0.61134500  0.79322100  1
  P  P18  1  0.35131600  0.61134500  0.20677900  1
  P  P19  1  0.35131600  0.38865500  0.20677900  1
  P  P20  1  0.22467200  0.68973900  0.20706400  1
  P  P21  1  0.22467200  0.31026100  0.20706400  1
  P  P22  1  0.13842300  0.38663300  0.29218300  1
  P  P23  1  0.13842300  0.61336700  0.29218300  1
  P  P24  1  0.36157700  0.88663300  0.70781700  1
  P  P25  1  0.36157700  0.11336700  0.70781700  1
  P  P26  1  0.27532800  0.18973900  0.79293600  1
  P  P27  1  0.27532800  0.81026100  0.79293600  1
  P  P28  1  0.14868400  0.88865500  0.79322100  1
  P  P29  1  0.14868400  0.11134500  0.79322100  1
  P  P30  1  0.85131600  0.11134500  0.20677900  1
  P  P31  1  0.85131600  0.88865500  0.20677900  1
  P  P32  1  0.72467200  0.18973900  0.20706400  1
  P  P33  1  0.72467200  0.81026100  0.20706400  1
  P  P34  1  0.63842300  0.88663300  0.29218300  1
  P  P35  1  0.63842300  0.11336700  0.29218300  1
  O  O36  1  0.96346150  0.33658650  0.81584000  1
  O  O37  1  0.96346150  0.66341350  0.81584000  1
  O  O38  1  0.87113600  0.50000000  0.76742200  1
  O  O39  1  0.97497100  0.57876300  0.43331400  1
  O  O40  1  0.97497100  0.42123700  0.43331400  1
  O  O41  1  0.86712550  0.68703350  0.95187100  1
  O  O42  1  0.86712550  0.31296650  0.95187100  1
  O  O43  1  0.82948850  0.62055650  0.55537100  1
  O  O44  1  0.82948850  0.37944350  0.55537100  1
  O  O45  1  0.66230300  0.39045800  0.93663700  1
  O  O46  1  0.66230300  0.60954200  0.93663700  1
  O  O47  1  0.23535150  0.28828550  0.72331100  1
  O  O48  1  0.23535150  0.71171450  0.72331100  1
  O  O49  1  0.01922700  0.15567500  0.07489200  1
  O  O50  1  0.01922700  0.84432500  0.07489200  1
  O  O51  1  0.64570000  0.50000000  0.72748600  1
  O  O52  1  0.05568700  0.16510200  0.67315800  1
  O  O53  1  0.05568700  0.83489800  0.67315800  1
  O  O54  1  0.94431300  0.16510200  0.32684200  1
  O  O55  1  0.94431300  0.83489800  0.32684200  1
  O  O56  1  0.35430000  0.50000000  0.27251400  1
  O  O57  1  0.98077300  0.15567500  0.92510800  1
  O  O58  1  0.98077300  0.84432500  0.92510800  1
  O  O59  1  0.76464850  0.28828550  0.27668900  1
  O  O60  1  0.76464850  0.71171450  0.27668900  1
  O  O61  1  0.33769700  0.39045800  0.06336300  1
  O  O62  1  0.33769700  0.60954200  0.06336300  1
  O  O63  1  0.17051150  0.62055650  0.44462900  1
  O  O64  1  0.17051150  0.37944350  0.44462900  1
  O  O65  1  0.13287450  0.68703350  0.04812900  1
  O  O66  1  0.13287450  0.31296650  0.04812900  1
  O  O67  1  0.02502900  0.57876300  0.56668600  1
  O  O68  1  0.02502900  0.42123700  0.56668600  1
  O  O69  1  0.12886400  0.50000000  0.23257800  1
  O  O70  1  0.03653850  0.66341350  0.18416000  1
  O  O71  1  0.03653850  0.33658650  0.18416000  1
  O  O72  1  0.46346150  0.83658650  0.81584000  1
  O  O73  1  0.46346150  0.16341350  0.81584000  1
  O  O74  1  0.37113600  0.00000000  0.76742200  1
  O  O75  1  0.47497100  0.07876300  0.43331400  1
  O  O76  1  0.47497100  0.92123700  0.43331400  1
  O  O77  1  0.36712550  0.18703350  0.95187100  1
  O  O78  1  0.36712550  0.81296650  0.95187100  1
  O  O79  1  0.32948850  0.12055650  0.55537100  1
  O  O80  1  0.32948850  0.87944350  0.55537100  1
  O  O81  1  0.16230300  0.89045800  0.93663700  1
  O  O82  1  0.16230300  0.10954200  0.93663700  1
  O  O83  1  0.73535150  0.78828550  0.72331100  1
  O  O84  1  0.73535150  0.21171450  0.72331100  1
  O  O85  1  0.51922700  0.65567500  0.07489200  1
  O  O86  1  0.51922700  0.34432500  0.07489200  1
  O  O87  1  0.14570000  0.00000000  0.72748600  1
  O  O88  1  0.55568700  0.66510200  0.67315800  1
  O  O89  1  0.55568700  0.33489800  0.67315800  1
  O  O90  1  0.44431300  0.66510200  0.32684200  1
  O  O91  1  0.44431300  0.33489800  0.32684200  1
  O  O92  1  0.85430000  0.00000000  0.27251400  1
  O  O93  1  0.48077300  0.65567500  0.92510800  1
  O  O94  1  0.48077300  0.34432500  0.92510800  1
  O  O95  1  0.26464850  0.78828550  0.27668900  1
  O  O96  1  0.26464850  0.21171450  0.27668900  1
  O  O97  1  0.83769700  0.89045800  0.06336300  1
  O  O98  1  0.83769700  0.10954200  0.06336300  1
  O  O99  1  0.67051150  0.12055650  0.44462900  1
  O  O100  1  0.67051150  0.87944350  0.44462900  1
  O  O101  1  0.63287450  0.18703350  0.04812900  1
  O  O102  1  0.63287450  0.81296650  0.04812900  1
  O  O103  1  0.52502900  0.07876300  0.56668600  1
  O  O104  1  0.52502900  0.92123700  0.56668600  1
  O  O105  1  0.62886400  0.00000000  0.23257800  1
  O  O106  1  0.53653850  0.16341350  0.18416000  1
  O  O107  1  0.53653850  0.83658650  0.18416000  1
