# generated using pymatgen
data_Li15Ti11Nb5O42
_symmetry_space_group_name_H-M   'P 1'
_cell_length_a   5.13793008
_cell_length_b   5.13793008
_cell_length_c   33.16918400
_cell_angle_alpha   90.00000000
_cell_angle_beta   90.00000000
_cell_angle_gamma   120.00000000
_symmetry_Int_Tables_number   1
_chemical_formula_structural   Li15Ti11Nb5O42
_chemical_formula_sum   'Li15 Ti11 Nb5 O42'
_cell_volume   758.30129833
_cell_formula_units_Z   1
loop_
 _symmetry_equiv_pos_site_id
 _symmetry_equiv_pos_as_xyz
  1  'x, y, z'
loop_
 _atom_site_type_symbol
 _atom_site_label
 _atom_site_symmetry_multiplicity
 _atom_site_fract_x
 _atom_site_fract_y
 _atom_site_fract_z
 _atom_site_occupancy
  Li  Li0  1  0.33333333  0.66666667  0.19900600  1
  Li  Li1  1  0.00000000  0.00000000  0.05378400  1
  Li  Li2  1  0.00000000  0.00000000  0.26085100  1
  Li  Li3  1  0.00000000  0.00000000  0.44612700  1
  Li  Li4  1  0.00000000  0.00000000  0.55348800  1
  Li  Li5  1  0.00000000  0.00000000  0.71954400  1
  Li  Li6  1  0.00000000  0.00000000  0.78045500  1
  Li  Li7  1  0.00000000  0.00000000  0.94645700  1
  Li  Li8  1  0.33333333  0.66666667  0.87128600  1
  Li  Li9  1  0.33333333  0.66666667  0.37239100  1
  Li  Li10  1  0.33333333  0.66666667  0.69856500  1
  Li  Li11  1  0.66666667  0.33333333  0.30306100  1
  Li  Li12  1  0.66666667  0.33333333  0.80141700  1
  Li  Li13  1  0.66666667  0.33333333  0.62868200  1
  Li  Li14  1  0.66666667  0.33333333  0.12689700  1
  Ti  Ti15  1  0.33333333  0.66666667  0.08065400  1
  Ti  Ti16  1  0.33333333  0.66666667  0.98993600  1
  Ti  Ti17  1  0.33333333  0.66666667  0.48987000  1
  Ti  Ti18  1  0.33333333  0.66666667  0.58034900  1
  Ti  Ti19  1  0.33333333  0.66666667  0.28608000  1
  Ti  Ti20  1  0.33333333  0.66666667  0.78313600  1
  Ti  Ti21  1  0.66666667  0.33333333  0.71693800  1
  Ti  Ti22  1  0.66666667  0.33333333  0.51008000  1
  Ti  Ti23  1  0.66666667  0.33333333  0.41925600  1
  Ti  Ti24  1  0.66666667  0.33333333  0.01015300  1
  Ti  Ti25  1  0.66666667  0.33333333  0.91973700  1
  Nb  Nb26  1  0.00000000  0.00000000  0.14554600  1
  Nb  Nb27  1  0.00000000  0.00000000  0.35420600  1
  Nb  Nb28  1  0.00000000  0.00000000  0.64393200  1
  Nb  Nb29  1  0.00000000  0.00000000  0.85607800  1
  Nb  Nb30  1  0.66666667  0.33333333  0.21661800  1
  O  O31  1  0.00431500  0.62477500  0.25039600  1
  O  O32  1  0.03640800  0.70707000  0.10734900  1
  O  O33  1  0.04880400  0.71444800  0.81999900  1
  O  O34  1  0.02173900  0.63269500  0.53443700  1
  O  O35  1  0.99989000  0.36252600  0.74998900  1
  O  O36  1  0.29621300  0.96539300  0.60710300  1
  O  O37  1  0.29300400  0.95484100  0.32017500  1
  O  O38  1  0.02178100  0.38918800  0.03449000  1
  O  O39  1  0.03460700  0.33082000  0.60710300  1
  O  O40  1  0.04515900  0.33816300  0.32017500  1
  O  O41  1  0.36740700  0.97821900  0.03449000  1
  O  O42  1  0.61095600  0.97826100  0.53443700  1
  O  O43  1  0.28555200  0.33435600  0.81999900  1
  O  O44  1  0.29293000  0.32933800  0.10734900  1
  O  O45  1  0.36730500  0.38904400  0.53443700  1
  O  O46  1  0.66564400  0.95119600  0.81999900  1
  O  O47  1  0.67066200  0.96359200  0.10734900  1
  O  O48  1  0.37522500  0.37954000  0.25039600  1
  O  O49  1  0.32985500  0.29315100  0.39224000  1
  O  O50  1  0.33428600  0.28561400  0.68000100  1
  O  O51  1  0.38898500  0.36715900  0.96554200  1
  O  O52  1  0.61081200  0.63259300  0.03449000  1
  O  O53  1  0.66183700  0.70699600  0.32017500  1
  O  O54  1  0.66918000  0.70378700  0.60710300  1
  O  O55  1  0.63747400  0.63736400  0.74998900  1
  O  O56  1  0.33079700  0.03469100  0.89292200  1
  O  O57  1  0.33922800  0.03885300  0.17847400  1
  O  O58  1  0.63260000  0.61076300  0.46542000  1
  O  O59  1  0.70389400  0.66920300  0.89292200  1
  O  O60  1  0.36263600  0.00011000  0.74998900  1
  O  O61  1  0.69962500  0.66077200  0.17847400  1
  O  O62  1  0.38923700  0.02183700  0.46542000  1
  O  O63  1  0.63284100  0.02182600  0.96554200  1
  O  O64  1  0.95132800  0.66571400  0.68000100  1
  O  O65  1  0.62046000  0.99568500  0.25039600  1
  O  O66  1  0.96329600  0.67014500  0.39224000  1
  O  O67  1  0.97817400  0.61101500  0.96554200  1
  O  O68  1  0.71438600  0.04867200  0.68000100  1
  O  O69  1  0.70684900  0.03670400  0.39224000  1
  O  O70  1  0.97816300  0.36740000  0.46542000  1
  O  O71  1  0.96114700  0.30037500  0.17847400  1
  O  O72  1  0.96530900  0.29610600  0.89292200  1
