# generated using pymatgen
data_Ti17(NO4)6
_symmetry_space_group_name_H-M   'P 1'
_cell_length_a   11.46959600
_cell_length_b   9.67216000
_cell_length_c   10.73655879
_cell_angle_alpha   90.00000000
_cell_angle_beta   110.84978816
_cell_angle_gamma   90.00000000
_symmetry_Int_Tables_number   1
_chemical_formula_structural   Ti17(NO4)6
_chemical_formula_sum   'Ti34 N12 O48'
_cell_volume   1113.07335908
_cell_formula_units_Z   2
loop_
 _symmetry_equiv_pos_site_id
 _symmetry_equiv_pos_as_xyz
  1  'x, y, z'
loop_
 _atom_site_type_symbol
 _atom_site_label
 _atom_site_symmetry_multiplicity
 _atom_site_fract_x
 _atom_site_fract_y
 _atom_site_fract_z
 _atom_site_occupancy
  Ti  Ti0  1  0.89463900  0.39238700  0.67309200  1
  Ti  Ti1  1  0.94071650  0.11091550  0.82226500  1
  Ti  Ti2  1  0.05928350  0.11091550  0.17773500  1
  Ti  Ti3  1  0.66435700  0.55332900  0.50027400  1
  Ti  Ti4  1  0.10536100  0.39238700  0.32690800  1
  Ti  Ti5  1  0.00000000  0.44607100  0.00000000  1
  Ti  Ti6  1  0.22036150  0.39178450  0.67264200  1
  Ti  Ti7  1  0.77963850  0.39178450  0.32735800  1
  Ti  Ti8  1  0.22550700  0.61116700  0.17541100  1
  Ti  Ti9  1  0.33564300  0.55332900  0.49972600  1
  Ti  Ti10  1  0.66822050  0.44758050  0.00104600  1
  Ti  Ti11  1  0.33177950  0.44758050  0.99895400  1
  Ti  Ti12  1  0.77449300  0.61116700  0.82458900  1
  Ti  Ti13  1  0.06096500  0.88475200  0.68241900  1
  Ti  Ti14  1  0.89750550  0.61069050  0.19287600  1
  Ti  Ti15  1  0.93903500  0.88475200  0.31758100  1
  Ti  Ti16  1  0.10249450  0.61069050  0.80712400  1
  Ti  Ti17  1  0.39463900  0.89238700  0.67309200  1
  Ti  Ti18  1  0.44071650  0.61091550  0.82226500  1
  Ti  Ti19  1  0.55928350  0.61091550  0.17773500  1
  Ti  Ti20  1  0.16435700  0.05332900  0.50027400  1
  Ti  Ti21  1  0.60536100  0.89238700  0.32690800  1
  Ti  Ti22  1  0.50000000  0.94607100  0.00000000  1
  Ti  Ti23  1  0.72036150  0.89178450  0.67264200  1
  Ti  Ti24  1  0.27963850  0.89178450  0.32735800  1
  Ti  Ti25  1  0.72550700  0.11116700  0.17541100  1
  Ti  Ti26  1  0.83564300  0.05332900  0.49972600  1
  Ti  Ti27  1  0.16822050  0.94758050  0.00104600  1
  Ti  Ti28  1  0.83177950  0.94758050  0.99895400  1
  Ti  Ti29  1  0.27449300  0.11116700  0.82458900  1
  Ti  Ti30  1  0.56096500  0.38475200  0.68241900  1
  Ti  Ti31  1  0.39750550  0.11069050  0.19287600  1
  Ti  Ti32  1  0.43903500  0.38475200  0.31758100  1
  Ti  Ti33  1  0.60249450  0.11069050  0.80712400  1
  N  N34  1  0.00000000  0.01919200  0.00000000  1
  N  N35  1  0.17964750  0.47043050  0.49981700  1
  N  N36  1  0.16476550  0.51989650  0.99912000  1
  N  N37  1  0.82035250  0.47043050  0.50018300  1
  N  N38  1  0.00000000  0.97985700  0.50000000  1
  N  N39  1  0.83523450  0.51989650  0.00088000  1
  N  N40  1  0.50000000  0.51919200  0.00000000  1
  N  N41  1  0.67964750  0.97043050  0.49981700  1
  N  N42  1  0.66476550  0.01989650  0.99912000  1
  N  N43  1  0.32035250  0.97043050  0.50018300  1
  N  N44  1  0.50000000  0.47985700  0.50000000  1
  N  N45  1  0.33523450  0.01989650  0.00088000  1
  O  O46  1  0.87834300  0.20240800  0.63197900  1
  O  O47  1  0.93326700  0.42700800  0.29960100  1
  O  O48  1  0.06673300  0.42700800  0.70039900  1
  O  O49  1  0.60283750  0.44165950  0.31240600  1
  O  O50  1  0.12165700  0.20240800  0.36802100  1
  O  O51  1  0.04718400  0.29748000  0.12961900  1
  O  O52  1  0.95281600  0.29748000  0.87038100  1
  O  O53  1  0.70996650  0.70255250  0.63118800  1
  O  O54  1  0.72783500  0.44166800  0.68770800  1
  O  O55  1  0.27216500  0.44166800  0.31229200  1
  O  O56  1  0.72977050  0.56228050  0.18781000  1
  O  O57  1  0.60673950  0.56656350  0.81880600  1
  O  O58  1  0.29003350  0.70255250  0.36881200  1
  O  O59  1  0.39716250  0.44165950  0.68759400  1
  O  O60  1  0.70694100  0.29814700  0.13041200  1
  O  O61  1  0.29305900  0.29814700  0.86958800  1
  O  O62  1  0.27022950  0.56228050  0.81219000  1
  O  O63  1  0.95345850  0.70650150  0.35930600  1
  O  O64  1  0.04654150  0.70650150  0.64069400  1
  O  O65  1  0.87546250  0.79988750  0.12793900  1
  O  O66  1  0.39326050  0.56656350  0.18119400  1
  O  O67  1  0.93752450  0.56116150  0.81284100  1
  O  O68  1  0.06247550  0.56116150  0.18715900  1
  O  O69  1  0.12453750  0.79988750  0.87206100  1
  O  O70  1  0.37834300  0.70240800  0.63197900  1
  O  O71  1  0.43326700  0.92700800  0.29960100  1
  O  O72  1  0.56673300  0.92700800  0.70039900  1
  O  O73  1  0.10283750  0.94165950  0.31240600  1
  O  O74  1  0.62165700  0.70240800  0.36802100  1
  O  O75  1  0.54718400  0.79748000  0.12961900  1
  O  O76  1  0.45281600  0.79748000  0.87038100  1
  O  O77  1  0.20996650  0.20255250  0.63118800  1
  O  O78  1  0.22783500  0.94166800  0.68770800  1
  O  O79  1  0.77216500  0.94166800  0.31229200  1
  O  O80  1  0.22977050  0.06228050  0.18781000  1
  O  O81  1  0.10673950  0.06656350  0.81880600  1
  O  O82  1  0.79003350  0.20255250  0.36881200  1
  O  O83  1  0.89716250  0.94165950  0.68759400  1
  O  O84  1  0.20694100  0.79814700  0.13041200  1
  O  O85  1  0.79305900  0.79814700  0.86958800  1
  O  O86  1  0.77022950  0.06228050  0.81219000  1
  O  O87  1  0.45345850  0.20650150  0.35930600  1
  O  O88  1  0.54654150  0.20650150  0.64069400  1
  O  O89  1  0.37546250  0.29988750  0.12793900  1
  O  O90  1  0.89326050  0.06656350  0.18119400  1
  O  O91  1  0.43752450  0.06116150  0.81284100  1
  O  O92  1  0.56247550  0.06116150  0.18715900  1
  O  O93  1  0.62453750  0.29988750  0.87206100  1
