# generated using pymatgen
data_Sm2B4O9
_symmetry_space_group_name_H-M   'P 1'
_cell_length_a   6.27534100
_cell_length_b   6.56854360
_cell_length_c   7.61295206
_cell_angle_alpha   102.10195744
_cell_angle_beta   96.90533710
_cell_angle_gamma   102.46076213
_symmetry_Int_Tables_number   1
_chemical_formula_structural   Sm2B4O9
_chemical_formula_sum   'Sm4 B8 O18'
_cell_volume   295.06930130
_cell_formula_units_Z   2
loop_
 _symmetry_equiv_pos_site_id
 _symmetry_equiv_pos_as_xyz
  1  'x, y, z'
loop_
 _atom_site_type_symbol
 _atom_site_label
 _atom_site_symmetry_multiplicity
 _atom_site_fract_x
 _atom_site_fract_y
 _atom_site_fract_z
 _atom_site_occupancy
  Sm  Sm0  1  0.11310800  0.32327100  0.64240500  1
  Sm  Sm1  1  0.45291500  0.90769800  0.71583600  1
  Sm  Sm2  1  0.54708500  0.09230200  0.28416400  1
  Sm  Sm3  1  0.88689200  0.67672900  0.35759500  1
  B  B4  1  0.00501400  0.85013900  0.81351100  1
  B  B5  1  0.27129200  0.66494400  0.01911400  1
  B  B6  1  0.37381100  0.64239600  0.34651000  1
  B  B7  1  0.33841600  0.32250900  0.07448600  1
  B  B8  1  0.66158400  0.67749100  0.92551400  1
  B  B9  1  0.62618900  0.35760400  0.65349000  1
  B  B10  1  0.72870800  0.33505600  0.98088600  1
  B  B11  1  0.99498600  0.14986100  0.18648900  1
  O  O12  1  0.06517500  0.95006500  0.67871100  1
  O  O13  1  0.14049800  0.71883500  0.86141000  1
  O  O14  1  0.22832500  0.43211200  0.96182300  1
  O  O15  1  0.22242800  0.59409000  0.47415200  1
  O  O16  1  0.23957000  0.73464200  0.20852300  1
  O  O17  1  0.18597800  0.13774100  0.11842300  1
  O  O18  1  0.42454900  0.18636200  0.55975000  1
  O  O19  1  0.49537100  0.21613500  0.98378600  1
  O  O20  1  0.54295000  0.53694000  0.74887100  1
  O  O21  1  0.45705000  0.46306000  0.25112900  1
  O  O22  1  0.50462900  0.78386500  0.01621400  1
  O  O23  1  0.57545100  0.81363800  0.44025000  1
  O  O24  1  0.81402200  0.86225900  0.88157700  1
  O  O25  1  0.76043000  0.26535800  0.79147700  1
  O  O26  1  0.77757200  0.40591000  0.52584800  1
  O  O27  1  0.77167500  0.56788800  0.03817700  1
  O  O28  1  0.85950200  0.28116500  0.13859000  1
  O  O29  1  0.93482500  0.04993500  0.32128900  1
