# generated using pymatgen
data_Y2Hg2O5
_symmetry_space_group_name_H-M   'P 1'
_cell_length_a   3.57498300
_cell_length_b   11.86287600
_cell_length_c   13.40216000
_cell_angle_alpha   90.00000000
_cell_angle_beta   90.00000000
_cell_angle_gamma   90.00000000
_symmetry_Int_Tables_number   1
_chemical_formula_structural   Y2Hg2O5
_chemical_formula_sum   'Y8 Hg8 O20'
_cell_volume   568.37997711
_cell_formula_units_Z   4
loop_
 _symmetry_equiv_pos_site_id
 _symmetry_equiv_pos_as_xyz
  1  'x, y, z'
loop_
 _atom_site_type_symbol
 _atom_site_label
 _atom_site_symmetry_multiplicity
 _atom_site_fract_x
 _atom_site_fract_y
 _atom_site_fract_z
 _atom_site_occupancy
  Y  Y0  1  0.23592100  0.03139500  0.33024300  1
  Y  Y1  1  0.23956800  0.21891000  0.99781800  1
  Y  Y2  1  0.73956800  0.28109000  0.49781800  1
  Y  Y3  1  0.73592100  0.46860500  0.83024300  1
  Y  Y4  1  0.26407900  0.53139500  0.33024300  1
  Y  Y5  1  0.26043200  0.71891000  0.99781800  1
  Y  Y6  1  0.76043200  0.78109000  0.49781800  1
  Y  Y7  1  0.76407900  0.96860500  0.83024300  1
  Hg  Hg8  1  0.30000200  0.00347600  0.59916600  1
  Hg  Hg9  1  0.19961500  0.24610400  0.72863900  1
  Hg  Hg10  1  0.69961500  0.25389600  0.22863900  1
  Hg  Hg11  1  0.80000200  0.49652400  0.09916600  1
  Hg  Hg12  1  0.19999800  0.50347600  0.59916600  1
  Hg  Hg13  1  0.30038500  0.74610400  0.72863900  1
  Hg  Hg14  1  0.80038500  0.75389600  0.22863900  1
  Hg  Hg15  1  0.69999800  0.99652400  0.09916600  1
  O  O16  1  0.26087700  0.06283200  0.76705200  1
  O  O17  1  0.74626700  0.09996400  0.95392500  1
  O  O18  1  0.23772800  0.12534400  0.16403000  1
  O  O19  1  0.73801800  0.14995800  0.37379300  1
  O  O20  1  0.24177200  0.18688800  0.56047300  1
  O  O21  1  0.74177200  0.31311200  0.06047300  1
  O  O22  1  0.23801800  0.35004200  0.87379300  1
  O  O23  1  0.73772800  0.37465600  0.66403000  1
  O  O24  1  0.24626700  0.40003600  0.45392500  1
  O  O25  1  0.76087700  0.43716800  0.26705200  1
  O  O26  1  0.23912300  0.56283200  0.76705200  1
  O  O27  1  0.75373300  0.59996400  0.95392500  1
  O  O28  1  0.26227200  0.62534400  0.16403000  1
  O  O29  1  0.76198200  0.64995800  0.37379300  1
  O  O30  1  0.25822800  0.68688800  0.56047300  1
  O  O31  1  0.75822800  0.81311200  0.06047300  1
  O  O32  1  0.26198200  0.85004200  0.87379300  1
  O  O33  1  0.76227200  0.87465600  0.66403000  1
  O  O34  1  0.25373300  0.90003600  0.45392500  1
  O  O35  1  0.73912300  0.93716800  0.26705200  1
