# generated using pymatgen
data_Zr2N2O
_symmetry_space_group_name_H-M   'P 1'
_cell_length_a   13.83520800
_cell_length_b   3.31910200
_cell_length_c   8.29917702
_cell_angle_alpha   90.00000000
_cell_angle_beta   100.48504566
_cell_angle_gamma   90.00000000
_symmetry_Int_Tables_number   1
_chemical_formula_structural   Zr2N2O
_chemical_formula_sum   'Zr12 N12 O6'
_cell_volume   374.73860519
_cell_formula_units_Z   6
loop_
 _symmetry_equiv_pos_site_id
 _symmetry_equiv_pos_as_xyz
  1  'x, y, z'
loop_
 _atom_site_type_symbol
 _atom_site_label
 _atom_site_symmetry_multiplicity
 _atom_site_fract_x
 _atom_site_fract_y
 _atom_site_fract_z
 _atom_site_occupancy
  Zr  Zr0  1  0.96981200  0.00000000  0.19259400  1
  Zr  Zr1  1  0.87094400  0.50000000  0.52600600  1
  Zr  Zr2  1  0.80397700  0.50000000  0.86838100  1
  Zr  Zr3  1  0.69602300  0.00000000  0.13161900  1
  Zr  Zr4  1  0.62905600  0.00000000  0.47399400  1
  Zr  Zr5  1  0.53018800  0.50000000  0.80740600  1
  Zr  Zr6  1  0.46981200  0.50000000  0.19259400  1
  Zr  Zr7  1  0.37094400  0.00000000  0.52600600  1
  Zr  Zr8  1  0.30397700  0.00000000  0.86838100  1
  Zr  Zr9  1  0.19602300  0.50000000  0.13161900  1
  Zr  Zr10  1  0.12905600  0.50000000  0.47399400  1
  Zr  Zr11  1  0.03018800  0.00000000  0.80740600  1
  N  N12  1  0.96574400  0.50000000  0.34340000  1
  N  N13  1  0.82794100  0.00000000  0.03395000  1
  N  N14  1  0.87344800  0.00000000  0.71281000  1
  N  N15  1  0.62655200  0.50000000  0.28719000  1
  N  N16  1  0.67205900  0.50000000  0.96605000  1
  N  N17  1  0.53425600  0.00000000  0.65660000  1
  N  N18  1  0.46574400  0.00000000  0.34340000  1
  N  N19  1  0.32794100  0.50000000  0.03395000  1
  N  N20  1  0.37344800  0.50000000  0.71281000  1
  N  N21  1  0.12655200  0.00000000  0.28719000  1
  N  N22  1  0.17205900  0.00000000  0.96605000  1
  N  N23  1  0.03425600  0.50000000  0.65660000  1
  O  O24  1  0.79082600  0.00000000  0.38077100  1
  O  O25  1  0.70917400  0.50000000  0.61922900  1
  O  O26  1  0.00000000  0.50000000  0.00000000  1
  O  O27  1  0.29082600  0.50000000  0.38077100  1
  O  O28  1  0.20917400  0.00000000  0.61922900  1
  O  O29  1  0.50000000  0.00000000  0.00000000  1
