# generated using pymatgen
data_TiMn9O20
_symmetry_space_group_name_H-M   'P 1'
_cell_length_a   10.09849800
_cell_length_b   5.80720200
_cell_length_c   24.04637747
_cell_angle_alpha   90.00000000
_cell_angle_beta   97.90685242
_cell_angle_gamma   90.00000000
_symmetry_Int_Tables_number   1
_chemical_formula_structural   TiMn9O20
_chemical_formula_sum   'Ti4 Mn36 O80'
_cell_volume   1396.76966878
_cell_formula_units_Z   4
loop_
 _symmetry_equiv_pos_site_id
 _symmetry_equiv_pos_as_xyz
  1  'x, y, z'
loop_
 _atom_site_type_symbol
 _atom_site_label
 _atom_site_symmetry_multiplicity
 _atom_site_fract_x
 _atom_site_fract_y
 _atom_site_fract_z
 _atom_site_occupancy
  Ti  Ti0  1  0.00000000  0.50000000  0.00000000  1
  Ti  Ti1  1  0.00000000  0.50000000  0.50000000  1
  Ti  Ti2  1  0.50000000  0.00000000  0.00000000  1
  Ti  Ti3  1  0.50000000  0.00000000  0.50000000  1
  Mn  Mn4  1  0.79835300  0.50000000  0.89999700  1
  Mn  Mn5  1  0.75000000  0.75000000  0.00000000  1
  Mn  Mn6  1  0.64879050  0.24600550  0.20091500  1
  Mn  Mn7  1  0.75000000  0.25000000  0.00000000  1
  Mn  Mn8  1  0.70164700  0.00000000  0.10000300  1
  Mn  Mn9  1  0.89894600  0.00000000  0.20061200  1
  Mn  Mn10  1  0.64879050  0.75399450  0.20091500  1
  Mn  Mn11  1  0.54689150  0.24895350  0.39996400  1
  Mn  Mn12  1  0.79696200  0.50000000  0.39987200  1
  Mn  Mn13  1  0.59734100  0.50000000  0.30034600  1
  Mn  Mn14  1  0.95310850  0.74895350  0.60003600  1
  Mn  Mn15  1  0.95310850  0.25104650  0.60003600  1
  Mn  Mn16  1  0.85120950  0.25399450  0.79908500  1
  Mn  Mn17  1  0.54689150  0.75104650  0.39996400  1
  Mn  Mn18  1  0.60105400  0.50000000  0.79938800  1
  Mn  Mn19  1  0.70303800  0.00000000  0.60012800  1
  Mn  Mn20  1  0.90265900  0.00000000  0.69965400  1
  Mn  Mn21  1  0.85120950  0.74600550  0.79908500  1
  Mn  Mn22  1  0.29835300  0.00000000  0.89999700  1
  Mn  Mn23  1  0.25000000  0.25000000  0.00000000  1
  Mn  Mn24  1  0.14879050  0.74600550  0.20091500  1
  Mn  Mn25  1  0.25000000  0.75000000  0.00000000  1
  Mn  Mn26  1  0.20164700  0.50000000  0.10000300  1
  Mn  Mn27  1  0.39894600  0.50000000  0.20061200  1
  Mn  Mn28  1  0.14879050  0.25399450  0.20091500  1
  Mn  Mn29  1  0.04689150  0.74895350  0.39996400  1
  Mn  Mn30  1  0.29696200  0.00000000  0.39987200  1
  Mn  Mn31  1  0.09734100  0.00000000  0.30034600  1
  Mn  Mn32  1  0.45310850  0.24895350  0.60003600  1
  Mn  Mn33  1  0.45310850  0.75104650  0.60003600  1
  Mn  Mn34  1  0.35120950  0.75399450  0.79908500  1
  Mn  Mn35  1  0.04689150  0.25104650  0.39996400  1
  Mn  Mn36  1  0.10105400  0.00000000  0.79938800  1
  Mn  Mn37  1  0.20303800  0.50000000  0.60012800  1
  Mn  Mn38  1  0.40265900  0.50000000  0.69965400  1
  Mn  Mn39  1  0.35120950  0.24600550  0.79908500  1
  O  O40  1  0.88844700  0.72242200  0.95220300  1
  O  O41  1  0.88844700  0.27757800  0.95220300  1
  O  O42  1  0.57075400  0.00000000  0.15353800  1
  O  O43  1  0.67040600  0.50000000  0.95363800  1
  O  O44  1  0.84475900  0.50000000  0.04204300  1
  O  O45  1  0.65524100  0.00000000  0.95795700  1
  O  O46  1  0.50710100  0.27581700  0.24771000  1
  O  O47  1  0.61155300  0.77757800  0.04779700  1
  O  O48  1  0.61155300  0.22242200  0.04779700  1
  O  O49  1  0.79031600  0.21827400  0.15399100  1
  O  O50  1  0.79031600  0.78172600  0.15399100  1
  O  O51  1  0.68815450  0.27774750  0.35319900  1
  O  O52  1  0.96774800  0.00000000  0.35304600  1
  O  O53  1  0.64387100  0.50000000  0.44096400  1
  O  O54  1  0.74607300  0.00000000  0.24185200  1
  O  O55  1  0.82959400  0.00000000  0.04636200  1
  O  O56  1  0.72758600  0.50000000  0.24791400  1
  O  O57  1  0.55225100  0.50000000  0.15968800  1
  O  O58  1  0.94999100  0.50000000  0.35885500  1
  O  O59  1  0.90476650  0.27525150  0.44616700  1
  O  O60  1  0.50710100  0.72418300  0.24771000  1
  O  O61  1  0.81184550  0.22225250  0.64680100  1
  O  O62  1  0.90476650  0.72474850  0.44616700  1
  O  O63  1  0.68815450  0.72225250  0.35319900  1
  O  O64  1  0.59523350  0.22474850  0.55383300  1
  O  O65  1  0.55000900  0.00000000  0.64114500  1
  O  O66  1  0.86762100  0.50000000  0.55498100  1
  O  O67  1  0.75392700  0.50000000  0.75814800  1
  O  O68  1  0.63237900  0.00000000  0.44501900  1
  O  O69  1  0.85612900  0.00000000  0.55903600  1
  O  O70  1  0.53225200  0.50000000  0.64695400  1
  O  O71  1  0.92924600  0.50000000  0.84646200  1
  O  O72  1  0.81184550  0.77774750  0.64680100  1
  O  O73  1  0.70968400  0.28172600  0.84600900  1
  O  O74  1  0.70968400  0.71827400  0.84600900  1
  O  O75  1  0.99289900  0.22418300  0.75229000  1
  O  O76  1  0.59523350  0.77525150  0.55383300  1
  O  O77  1  0.99289900  0.77581700  0.75229000  1
  O  O78  1  0.77241400  0.00000000  0.75208600  1
  O  O79  1  0.94774900  0.00000000  0.84031200  1
  O  O80  1  0.38844700  0.22242200  0.95220300  1
  O  O81  1  0.38844700  0.77757800  0.95220300  1
  O  O82  1  0.07075400  0.50000000  0.15353800  1
  O  O83  1  0.17040600  0.00000000  0.95363800  1
  O  O84  1  0.34475900  0.00000000  0.04204300  1
  O  O85  1  0.15524100  0.50000000  0.95795700  1
  O  O86  1  0.00710100  0.77581700  0.24771000  1
  O  O87  1  0.11155300  0.27757800  0.04779700  1
  O  O88  1  0.11155300  0.72242200  0.04779700  1
  O  O89  1  0.29031600  0.71827400  0.15399100  1
  O  O90  1  0.29031600  0.28172600  0.15399100  1
  O  O91  1  0.18815450  0.77774750  0.35319900  1
  O  O92  1  0.46774800  0.50000000  0.35304600  1
  O  O93  1  0.14387100  0.00000000  0.44096400  1
  O  O94  1  0.24607300  0.50000000  0.24185200  1
  O  O95  1  0.32959400  0.50000000  0.04636200  1
  O  O96  1  0.22758600  0.00000000  0.24791400  1
  O  O97  1  0.05225100  0.00000000  0.15968800  1
  O  O98  1  0.44999100  0.00000000  0.35885500  1
  O  O99  1  0.40476650  0.77525150  0.44616700  1
  O  O100  1  0.00710100  0.22418300  0.24771000  1
  O  O101  1  0.31184550  0.72225250  0.64680100  1
  O  O102  1  0.40476650  0.22474850  0.44616700  1
  O  O103  1  0.18815450  0.22225250  0.35319900  1
  O  O104  1  0.09523350  0.72474850  0.55383300  1
  O  O105  1  0.05000900  0.50000000  0.64114500  1
  O  O106  1  0.36762100  0.00000000  0.55498100  1
  O  O107  1  0.25392700  0.00000000  0.75814800  1
  O  O108  1  0.13237900  0.50000000  0.44501900  1
  O  O109  1  0.35612900  0.50000000  0.55903600  1
  O  O110  1  0.03225200  0.00000000  0.64695400  1
  O  O111  1  0.42924600  0.00000000  0.84646200  1
  O  O112  1  0.31184550  0.27774750  0.64680100  1
  O  O113  1  0.20968400  0.78172600  0.84600900  1
  O  O114  1  0.20968400  0.21827400  0.84600900  1
  O  O115  1  0.49289900  0.72418300  0.75229000  1
  O  O116  1  0.09523350  0.27525150  0.55383300  1
  O  O117  1  0.49289900  0.27581700  0.75229000  1
  O  O118  1  0.27241400  0.50000000  0.75208600  1
  O  O119  1  0.44774900  0.50000000  0.84031200  1
