# generated using pymatgen
data_Li2FeO2F
_symmetry_space_group_name_H-M   'P 1'
_cell_length_a   5.19349781
_cell_length_b   8.96554800
_cell_length_c   9.84950552
_cell_angle_alpha   90.00000000
_cell_angle_beta   99.78073939
_cell_angle_gamma   90.00000000
_symmetry_Int_Tables_number   1
_chemical_formula_structural   Li2FeO2F
_chemical_formula_sum   'Li16 Fe8 O16 F8'
_cell_volume   451.95214465
_cell_formula_units_Z   8
loop_
 _symmetry_equiv_pos_site_id
 _symmetry_equiv_pos_as_xyz
  1  'x, y, z'
loop_
 _atom_site_type_symbol
 _atom_site_label
 _atom_site_symmetry_multiplicity
 _atom_site_fract_x
 _atom_site_fract_y
 _atom_site_fract_z
 _atom_site_occupancy
  Li  Li0  1  0.50000000  0.90032400  0.75000000  1
  Li  Li1  1  0.50000000  0.09967600  0.25000000  1
  Li  Li2  1  0.50000000  0.27451400  0.75000000  1
  Li  Li3  1  0.50000000  0.72548600  0.25000000  1
  Li  Li4  1  0.50000000  0.59203450  0.75000000  1
  Li  Li5  1  0.50000000  0.40796550  0.25000000  1
  Li  Li6  1  0.25000000  0.75000000  0.50000000  1
  Li  Li7  1  0.75000000  0.75000000  0.00000000  1
  Li  Li8  1  0.00000000  0.40032400  0.75000000  1
  Li  Li9  1  0.00000000  0.59967600  0.25000000  1
  Li  Li10  1  0.00000000  0.77451400  0.75000000  1
  Li  Li11  1  0.00000000  0.22548600  0.25000000  1
  Li  Li12  1  0.00000000  0.09203450  0.75000000  1
  Li  Li13  1  0.00000000  0.90796550  0.25000000  1
  Li  Li14  1  0.75000000  0.25000000  0.50000000  1
  Li  Li15  1  0.25000000  0.25000000  0.00000000  1
  Fe  Fe16  1  0.78105950  0.90640550  0.49850600  1
  Fe  Fe17  1  0.21894050  0.90640550  0.00149400  1
  Fe  Fe18  1  0.78105950  0.09359450  0.99850600  1
  Fe  Fe19  1  0.21894050  0.09359450  0.50149400  1
  Fe  Fe20  1  0.28105950  0.40640550  0.49850600  1
  Fe  Fe21  1  0.71894050  0.40640550  0.00149400  1
  Fe  Fe22  1  0.28105950  0.59359450  0.99850600  1
  Fe  Fe23  1  0.71894050  0.59359450  0.50149400  1
  O  O24  1  0.87718100  0.92788100  0.88342000  1
  O  O25  1  0.87718100  0.07211900  0.38342000  1
  O  O26  1  0.12281900  0.92788100  0.61658000  1
  O  O27  1  0.12281900  0.07211900  0.11658000  1
  O  O28  1  0.63844950  0.75666650  0.61812900  1
  O  O29  1  0.63844950  0.24333350  0.11812900  1
  O  O30  1  0.36155050  0.75666650  0.88187100  1
  O  O31  1  0.36155050  0.24333350  0.38187100  1
  O  O32  1  0.37718100  0.42788100  0.88342000  1
  O  O33  1  0.37718100  0.57211900  0.38342000  1
  O  O34  1  0.62281900  0.42788100  0.61658000  1
  O  O35  1  0.62281900  0.57211900  0.11658000  1
  O  O36  1  0.13844950  0.25666650  0.61812900  1
  O  O37  1  0.13844950  0.74333350  0.11812900  1
  O  O38  1  0.86155050  0.25666650  0.88187100  1
  O  O39  1  0.86155050  0.74333350  0.38187100  1
  F  F40  1  0.61677500  0.07862500  0.61934500  1
  F  F41  1  0.61677500  0.92137500  0.11934500  1
  F  F42  1  0.38322500  0.07862500  0.88065500  1
  F  F43  1  0.38322500  0.92137500  0.38065500  1
  F  F44  1  0.11677500  0.57862500  0.61934500  1
  F  F45  1  0.11677500  0.42137500  0.11934500  1
  F  F46  1  0.88322500  0.57862500  0.88065500  1
  F  F47  1  0.88322500  0.42137500  0.38065500  1
