# generated using pymatgen
data_Mn2OF3
_symmetry_space_group_name_H-M   'P 1'
_cell_length_a   6.74938800
_cell_length_b   7.06915400
_cell_length_c   9.49303200
_cell_angle_alpha   90.00000000
_cell_angle_beta   90.00000000
_cell_angle_gamma   90.00000000
_symmetry_Int_Tables_number   1
_chemical_formula_structural   Mn2OF3
_chemical_formula_sum   'Mn12 O6 F18'
_cell_volume   452.93593975
_cell_formula_units_Z   6
loop_
 _symmetry_equiv_pos_site_id
 _symmetry_equiv_pos_as_xyz
  1  'x, y, z'
loop_
 _atom_site_type_symbol
 _atom_site_label
 _atom_site_symmetry_multiplicity
 _atom_site_fract_x
 _atom_site_fract_y
 _atom_site_fract_z
 _atom_site_occupancy
  Mn  Mn0  1  0.95750100  0.00000000  0.00000000  1
  Mn  Mn1  1  0.02893900  0.00000000  0.33302700  1
  Mn  Mn2  1  0.02893900  0.00000000  0.66697300  1
  Mn  Mn3  1  0.49213000  0.00000000  0.83285200  1
  Mn  Mn4  1  0.49213000  0.00000000  0.16714800  1
  Mn  Mn5  1  0.49896300  0.00000000  0.50000000  1
  Mn  Mn6  1  0.45750100  0.50000000  0.00000000  1
  Mn  Mn7  1  0.52893900  0.50000000  0.33302700  1
  Mn  Mn8  1  0.52893900  0.50000000  0.66697300  1
  Mn  Mn9  1  0.99213000  0.50000000  0.83285200  1
  Mn  Mn10  1  0.99213000  0.50000000  0.16714800  1
  Mn  Mn11  1  0.99896300  0.50000000  0.50000000  1
  O  O12  1  0.32484100  0.00000000  0.33393600  1
  O  O13  1  0.32484100  0.00000000  0.66606400  1
  O  O14  1  0.66027400  0.00000000  0.00000000  1
  O  O15  1  0.82484100  0.50000000  0.33393600  1
  O  O16  1  0.82484100  0.50000000  0.66606400  1
  O  O17  1  0.16027400  0.50000000  0.00000000  1
  F  F18  1  0.49194150  0.29667350  0.16764200  1
  F  F19  1  0.51665700  0.30461500  0.50000000  1
  F  F20  1  0.49194150  0.29667350  0.83235800  1
  F  F21  1  0.27504500  0.00000000  0.00000000  1
  F  F22  1  0.70765900  0.00000000  0.33991000  1
  F  F23  1  0.70765900  0.00000000  0.66009000  1
  F  F24  1  0.49194150  0.70332650  0.16764200  1
  F  F25  1  0.51665700  0.69538500  0.50000000  1
  F  F26  1  0.49194150  0.70332650  0.83235800  1
  F  F27  1  0.99194150  0.79667350  0.16764200  1
  F  F28  1  0.01665700  0.80461500  0.50000000  1
  F  F29  1  0.99194150  0.79667350  0.83235800  1
  F  F30  1  0.77504500  0.50000000  0.00000000  1
  F  F31  1  0.20765900  0.50000000  0.33991000  1
  F  F32  1  0.20765900  0.50000000  0.66009000  1
  F  F33  1  0.99194150  0.20332650  0.16764200  1
  F  F34  1  0.01665700  0.19538500  0.50000000  1
  F  F35  1  0.99194150  0.20332650  0.83235800  1
