# generated using pymatgen
data_NdSeO
_symmetry_space_group_name_H-M   'P 1'
_cell_length_a   6.00157800
_cell_length_b   13.47814800
_cell_length_c   5.99863600
_cell_angle_alpha   90.00000000
_cell_angle_beta   90.00000000
_cell_angle_gamma   90.00000000
_symmetry_Int_Tables_number   1
_chemical_formula_structural   NdSeO
_chemical_formula_sum   'Nd8 Se8 O8'
_cell_volume   485.23060493
_cell_formula_units_Z   8
loop_
 _symmetry_equiv_pos_site_id
 _symmetry_equiv_pos_as_xyz
  1  'x, y, z'
loop_
 _atom_site_type_symbol
 _atom_site_label
 _atom_site_symmetry_multiplicity
 _atom_site_fract_x
 _atom_site_fract_y
 _atom_site_fract_z
 _atom_site_occupancy
  Nd  Nd0  1  0.50000000  0.16750100  0.00000000  1
  Nd  Nd1  1  0.50000000  0.33249900  0.50000000  1
  Nd  Nd2  1  0.00000000  0.16750100  0.50000000  1
  Nd  Nd3  1  0.00000000  0.33249900  0.00000000  1
  Nd  Nd4  1  0.00000000  0.66750100  0.00000000  1
  Nd  Nd5  1  0.00000000  0.83249900  0.50000000  1
  Nd  Nd6  1  0.50000000  0.66750100  0.50000000  1
  Nd  Nd7  1  0.50000000  0.83249900  0.00000000  1
  Se  Se8  1  0.14345100  0.00000000  0.85622600  1
  Se  Se9  1  0.64345100  0.00000000  0.64377400  1
  Se  Se10  1  0.85654900  0.00000000  0.14377400  1
  Se  Se11  1  0.35654900  0.00000000  0.35622600  1
  Se  Se12  1  0.64345100  0.50000000  0.85622600  1
  Se  Se13  1  0.14345100  0.50000000  0.64377400  1
  Se  Se14  1  0.35654900  0.50000000  0.14377400  1
  Se  Se15  1  0.85654900  0.50000000  0.35622600  1
  O  O16  1  0.25529800  0.25000000  0.75000000  1
  O  O17  1  0.74470200  0.25000000  0.25000000  1
  O  O18  1  0.24470200  0.25000000  0.25000000  1
  O  O19  1  0.75529800  0.25000000  0.75000000  1
  O  O20  1  0.75529800  0.75000000  0.75000000  1
  O  O21  1  0.24470200  0.75000000  0.25000000  1
  O  O22  1  0.74470200  0.75000000  0.25000000  1
  O  O23  1  0.25529800  0.75000000  0.75000000  1
