# generated using pymatgen
data_V3Cu(PO4)6
_symmetry_space_group_name_H-M   'P 1'
_cell_length_a   8.51162964
_cell_length_b   8.51162964
_cell_length_c   21.60529555
_cell_angle_alpha   90.00000000
_cell_angle_beta   90.00000000
_cell_angle_gamma   120.00000000
_symmetry_Int_Tables_number   1
_chemical_formula_structural   V3Cu(PO4)6
_chemical_formula_sum   'V9 Cu3 P18 O72'
_cell_volume   1355.55230580
_cell_formula_units_Z   3
loop_
 _symmetry_equiv_pos_site_id
 _symmetry_equiv_pos_as_xyz
  1  'x, y, z'
loop_
 _atom_site_type_symbol
 _atom_site_label
 _atom_site_symmetry_multiplicity
 _atom_site_fract_x
 _atom_site_fract_y
 _atom_site_fract_z
 _atom_site_occupancy
  V  V0  1  0.66666667  0.33333333  0.19389533  1
  V  V1  1  0.33333333  0.66666667  0.30776167  1
  V  V2  1  0.33333333  0.66666667  0.02840167  1
  V  V3  1  0.33333333  0.66666667  0.52722867  1
  V  V4  1  0.00000000  0.00000000  0.64109500  1
  V  V5  1  0.00000000  0.00000000  0.36173500  1
  V  V6  1  0.00000000  0.00000000  0.86056200  1
  V  V7  1  0.66666667  0.33333333  0.97442833  1
  V  V8  1  0.66666667  0.33333333  0.69506833  1
  Cu  Cu9  1  0.00000000  0.00000000  0.14351400  1
  Cu  Cu10  1  0.66666667  0.33333333  0.47684733  1
  Cu  Cu11  1  0.33333333  0.66666667  0.81018067  1
  P  P12  1  0.28072100  0.99958600  0.24978200  1
  P  P13  1  0.00041400  0.28113500  0.24978200  1
  P  P14  1  0.71886500  0.71927900  0.24978200  1
  P  P15  1  0.94801667  0.61820933  0.08391233  1
  P  P16  1  0.67019267  0.05198333  0.08391233  1
  P  P17  1  0.38179067  0.32980733  0.08391233  1
  P  P18  1  0.94738767  0.33291933  0.58311533  1
  P  P19  1  0.66708067  0.61446833  0.58311533  1
  P  P20  1  0.38553167  0.05261233  0.58311533  1
  P  P21  1  0.61468333  0.95154267  0.41724567  1
  P  P22  1  0.33685933  0.38531667  0.41724567  1
  P  P23  1  0.04845733  0.66314067  0.41724567  1
  P  P24  1  0.61405433  0.66625267  0.91644867  1
  P  P25  1  0.33374733  0.94780167  0.91644867  1
  P  P26  1  0.05219833  0.38594567  0.91644867  1
  P  P27  1  0.28135000  0.28487600  0.75057900  1
  P  P28  1  0.00352600  0.71865000  0.75057900  1
  P  P29  1  0.71512400  0.99647400  0.75057900  1
  O  O30  1  0.47834867  0.31411133  0.02562833  1
  O  O31  1  0.83576267  0.52165133  0.02562833  1
  O  O32  1  0.47386833  0.16987167  0.24280667  1
  O  O33  1  0.68588867  0.16423733  0.02562833  1
  O  O34  1  0.31273433  0.83643367  0.25994767  1
  O  O35  1  0.17138067  0.95718033  0.19077933  1
  O  O36  1  0.83012833  0.30399667  0.24280667  1
  O  O37  1  0.16356633  0.47630067  0.25994767  1
  O  O38  1  0.52369933  0.68726567  0.25994767  1
  O  O39  1  0.86329800  0.49845100  0.14191300  1
  O  O40  1  0.96645967  0.80372433  0.08576333  1
  O  O41  1  0.63515300  0.13670200  0.14191300  1
  O  O42  1  0.04281967  0.21420033  0.19077933  1
  O  O43  1  0.69600333  0.52613167  0.24280667  1
  O  O44  1  0.78579967  0.82861933  0.19077933  1
  O  O45  1  0.13824733  0.63232267  0.07580967  1
  O  O46  1  0.49407533  0.86175267  0.07580967  1
  O  O47  1  0.83726467  0.03354033  0.08576333  1
  O  O48  1  0.50154900  0.36484700  0.14191300  1
  O  O49  1  0.36767733  0.50592467  0.07580967  1
  O  O50  1  0.96833633  0.16475467  0.30802267  1
  O  O51  1  0.19627567  0.16273533  0.08576333  1
  O  O52  1  0.83524533  0.80358167  0.30802267  1
  O  O53  1  0.19641833  0.03166367  0.30802267  1
  O  O54  1  0.14501533  0.64744467  0.35896167  1
  O  O55  1  0.50242933  0.85498467  0.35896167  1
  O  O56  1  0.14053500  0.50320500  0.57614000  1
  O  O57  1  0.35255533  0.49757067  0.35896167  1
  O  O58  1  0.97940100  0.16976700  0.59328100  1
  O  O59  1  0.83804733  0.29051367  0.52411267  1
  O  O60  1  0.49679500  0.63733000  0.57614000  1
  O  O61  1  0.83023300  0.80963400  0.59328100  1
  O  O62  1  0.19036600  0.02059900  0.59328100  1
  O  O63  1  0.52996467  0.83178433  0.47524633  1
  O  O64  1  0.63312633  0.13705767  0.41909667  1
  O  O65  1  0.30181967  0.47003533  0.47524633  1
  O  O66  1  0.70948633  0.54753367  0.52411267  1
  O  O67  1  0.36267000  0.85946500  0.57614000  1
  O  O68  1  0.45246633  0.16195267  0.52411267  1
  O  O69  1  0.80491400  0.96565600  0.40914300  1
  O  O70  1  0.16074200  0.19508600  0.40914300  1
  O  O71  1  0.50393133  0.36687367  0.41909667  1
  O  O72  1  0.16821567  0.69818033  0.47524633  1
  O  O73  1  0.03434400  0.83925800  0.40914300  1
  O  O74  1  0.63500300  0.49808800  0.64135600  1
  O  O75  1  0.86294233  0.49606867  0.41909667  1
  O  O76  1  0.50191200  0.13691500  0.64135600  1
  O  O77  1  0.86308500  0.36499700  0.64135600  1
  O  O78  1  0.81168200  0.98077800  0.69229500  1
  O  O79  1  0.16909600  0.18831800  0.69229500  1
  O  O80  1  0.80720167  0.83653833  0.90947333  1
  O  O81  1  0.01922200  0.83090400  0.69229500  1
  O  O82  1  0.64606767  0.50310033  0.92661433  1
  O  O83  1  0.50471400  0.62384700  0.85744600  1
  O  O84  1  0.16346167  0.97066333  0.90947333  1
  O  O85  1  0.49689967  0.14296733  0.92661433  1
  O  O86  1  0.85703267  0.35393233  0.92661433  1
  O  O87  1  0.19663133  0.16511767  0.80857967  1
  O  O88  1  0.29979300  0.47039100  0.75243000  1
  O  O89  1  0.96848633  0.80336867  0.80857967  1
  O  O90  1  0.37615300  0.88086700  0.85744600  1
  O  O91  1  0.02933667  0.19279833  0.90947333  1
  O  O92  1  0.11913300  0.49528600  0.85744600  1
  O  O93  1  0.47158067  0.29898933  0.74247633  1
  O  O94  1  0.82740867  0.52841933  0.74247633  1
  O  O95  1  0.17059800  0.70020700  0.75243000  1
  O  O96  1  0.83488233  0.03151367  0.80857967  1
  O  O97  1  0.70101067  0.17259133  0.74247633  1
  O  O98  1  0.30166967  0.83142133  0.97468933  1
  O  O99  1  0.52960900  0.82940200  0.75243000  1
  O  O100  1  0.16857867  0.47024833  0.97468933  1
  O  O101  1  0.52975167  0.69833033  0.97468933  1
