# generated using pymatgen
data_Na7Co3O8
_symmetry_space_group_name_H-M   'P 1'
_cell_length_a   5.51780800
_cell_length_b   8.24105391
_cell_length_c   10.46683023
_cell_angle_alpha   89.62461449
_cell_angle_beta   89.42248516
_cell_angle_gamma   88.88948003
_symmetry_Int_Tables_number   1
_chemical_formula_structural   Na7Co3O8
_chemical_formula_sum   'Na14 Co6 O16'
_cell_volume   475.83030625
_cell_formula_units_Z   2
loop_
 _symmetry_equiv_pos_site_id
 _symmetry_equiv_pos_as_xyz
  1  'x, y, z'
loop_
 _atom_site_type_symbol
 _atom_site_label
 _atom_site_symmetry_multiplicity
 _atom_site_fract_x
 _atom_site_fract_y
 _atom_site_fract_z
 _atom_site_occupancy
  Na  Na0  1  0.27775400  0.34999900  0.02028600  1
  Na  Na1  1  0.47609400  0.87726500  0.12625600  1
  Na  Na2  1  0.14141900  0.62153500  0.17444400  1
  Na  Na3  1  0.71365200  0.38504800  0.24069600  1
  Na  Na4  1  0.28385500  0.11407700  0.27644600  1
  Na  Na5  1  0.47998800  0.63263100  0.37927000  1
  Na  Na6  1  0.74317500  0.11749100  0.47300400  1
  Na  Na7  1  0.25682500  0.88250900  0.52699600  1
  Na  Na8  1  0.52001200  0.36736900  0.62073000  1
  Na  Na9  1  0.71614500  0.88592300  0.72355400  1
  Na  Na10  1  0.28634800  0.61495200  0.75930400  1
  Na  Na11  1  0.85858100  0.37846500  0.82555600  1
  Na  Na12  1  0.52390600  0.12273500  0.87374400  1
  Na  Na13  1  0.72224600  0.65000100  0.97971400  1
  Co  Co14  1  0.86375300  0.10860600  0.07871800  1
  Co  Co15  1  0.88183800  0.83905100  0.30356100  1
  Co  Co16  1  0.13634900  0.37835400  0.43747900  1
  Co  Co17  1  0.86365100  0.62164600  0.56252100  1
  Co  Co18  1  0.11816200  0.16094900  0.69643900  1
  Co  Co19  1  0.13624700  0.89139400  0.92128200  1
  O  O20  1  0.76017500  0.30883000  0.02612800  1
  O  O21  1  0.20571200  0.06923100  0.03918300  1
  O  O22  1  0.73850500  0.68426300  0.20899000  1
  O  O23  1  0.26050300  0.39669700  0.27730200  1
  O  O24  1  0.75682500  0.05913200  0.24470400  1
  O  O25  1  0.20548800  0.84418200  0.30774100  1
  O  O26  1  0.79550500  0.42821800  0.45979100  1
  O  O27  1  0.76607600  0.81933100  0.48604600  1
  O  O28  1  0.23392400  0.18066900  0.51395400  1
  O  O29  1  0.20449500  0.57178200  0.54020900  1
  O  O30  1  0.79451200  0.15581800  0.69225900  1
  O  O31  1  0.24317500  0.94086800  0.75529600  1
  O  O32  1  0.73949700  0.60330300  0.72269800  1
  O  O33  1  0.26149500  0.31573700  0.79101000  1
  O  O34  1  0.79428800  0.93076900  0.96081700  1
  O  O35  1  0.23982500  0.69117000  0.97387200  1
