# generated using pymatgen
data_Li3ZnPCO7
_symmetry_space_group_name_H-M   'P 1'
_cell_length_a   5.11829600
_cell_length_b   6.49925600
_cell_length_c   8.38279552
_cell_angle_alpha   90.00000000
_cell_angle_beta   91.76197965
_cell_angle_gamma   90.00000000
_symmetry_Int_Tables_number   1
_chemical_formula_structural   Li3ZnPCO7
_chemical_formula_sum   'Li6 Zn2 P2 C2 O14'
_cell_volume   278.72281832
_cell_formula_units_Z   2
loop_
 _symmetry_equiv_pos_site_id
 _symmetry_equiv_pos_as_xyz
  1  'x, y, z'
loop_
 _atom_site_type_symbol
 _atom_site_label
 _atom_site_symmetry_multiplicity
 _atom_site_fract_x
 _atom_site_fract_y
 _atom_site_fract_z
 _atom_site_occupancy
  Li  Li0  1  0.04027300  0.48663300  0.00417400  1
  Li  Li1  1  0.43861000  0.80857100  0.82047200  1
  Li  Li2  1  0.44343700  0.57698300  0.48698100  1
  Li  Li3  1  0.55656300  0.07698300  0.51301900  1
  Li  Li4  1  0.56139000  0.30857100  0.17952800  1
  Li  Li5  1  0.95972700  0.98663300  0.99582600  1
  Zn  Zn6  1  0.03556600  0.25436700  0.71188500  1
  Zn  Zn7  1  0.96443400  0.75436700  0.28811500  1
  P  P8  1  0.96129500  0.75108300  0.66915600  1
  P  P9  1  0.03870500  0.25108300  0.33084400  1
  C  C10  1  0.52142200  0.26210000  0.86357600  1
  C  C11  1  0.47857800  0.76210000  0.13642400  1
  O  O12  1  0.35775400  0.28667100  0.97675800  1
  O  O13  1  0.76953000  0.23753500  0.90035100  1
  O  O14  1  0.08654400  0.93486400  0.76481400  1
  O  O15  1  0.02310000  0.56008300  0.77371800  1
  O  O16  1  0.44244900  0.25785500  0.71431600  1
  O  O17  1  0.66472300  0.78590400  0.63576600  1
  O  O18  1  0.10487100  0.72274800  0.50874800  1
  O  O19  1  0.89512900  0.22274800  0.49125200  1
  O  O20  1  0.33527700  0.28590400  0.36423400  1
  O  O21  1  0.55755100  0.75785500  0.28568400  1
  O  O22  1  0.97690000  0.06008300  0.22628200  1
  O  O23  1  0.91345600  0.43486400  0.23518600  1
  O  O24  1  0.23047000  0.73753500  0.09964900  1
  O  O25  1  0.64224600  0.78667100  0.02324200  1
