# generated using pymatgen
data_NaCa2Mg2V3O12
_symmetry_space_group_name_H-M   'P 1'
_cell_length_a   12.57326200
_cell_length_b   12.57326200
_cell_length_c   12.58796800
_cell_angle_alpha   90.00000000
_cell_angle_beta   90.00000000
_cell_angle_gamma   90.00000000
_symmetry_Int_Tables_number   1
_chemical_formula_structural   NaCa2Mg2V3O12
_chemical_formula_sum   'Na8 Ca16 Mg16 V24 O96'
_cell_volume   1989.99305645
_cell_formula_units_Z   8
loop_
 _symmetry_equiv_pos_site_id
 _symmetry_equiv_pos_as_xyz
  1  'x, y, z'
loop_
 _atom_site_type_symbol
 _atom_site_label
 _atom_site_symmetry_multiplicity
 _atom_site_fract_x
 _atom_site_fract_y
 _atom_site_fract_z
 _atom_site_occupancy
  Na  Na0  1  0.50000000  0.00000000  0.00000000  1
  Na  Na1  1  0.00000000  0.00000000  0.25000000  1
  Na  Na2  1  0.00000000  0.50000000  0.00000000  1
  Na  Na3  1  0.00000000  0.00000000  0.75000000  1
  Na  Na4  1  0.00000000  0.50000000  0.50000000  1
  Na  Na5  1  0.50000000  0.50000000  0.75000000  1
  Na  Na6  1  0.50000000  0.00000000  0.50000000  1
  Na  Na7  1  0.50000000  0.50000000  0.25000000  1
  Ca  Ca8  1  0.62307400  0.75000000  0.37500000  1
  Ca  Ca9  1  0.25000000  0.87692600  0.12500000  1
  Ca  Ca10  1  0.25000000  0.37692600  0.12500000  1
  Ca  Ca11  1  0.62307400  0.25000000  0.87500000  1
  Ca  Ca12  1  0.75000000  0.12307400  0.12500000  1
  Ca  Ca13  1  0.37692600  0.25000000  0.37500000  1
  Ca  Ca14  1  0.25000000  0.12307400  0.62500000  1
  Ca  Ca15  1  0.87692600  0.25000000  0.37500000  1
  Ca  Ca16  1  0.12307400  0.25000000  0.87500000  1
  Ca  Ca17  1  0.75000000  0.37692600  0.62500000  1
  Ca  Ca18  1  0.75000000  0.87692600  0.62500000  1
  Ca  Ca19  1  0.12307400  0.75000000  0.37500000  1
  Ca  Ca20  1  0.25000000  0.62307400  0.62500000  1
  Ca  Ca21  1  0.87692600  0.75000000  0.87500000  1
  Ca  Ca22  1  0.75000000  0.62307400  0.12500000  1
  Ca  Ca23  1  0.37692600  0.75000000  0.87500000  1
  Mg  Mg24  1  0.00000000  0.25000000  0.62500000  1
  Mg  Mg25  1  0.25000000  0.50000000  0.37500000  1
  Mg  Mg26  1  0.25000000  0.50000000  0.87500000  1
  Mg  Mg27  1  0.50000000  0.25000000  0.12500000  1
  Mg  Mg28  1  0.25000000  0.00000000  0.37500000  1
  Mg  Mg29  1  0.00000000  0.25000000  0.12500000  1
  Mg  Mg30  1  0.75000000  0.50000000  0.37500000  1
  Mg  Mg31  1  0.00000000  0.75000000  0.12500000  1
  Mg  Mg32  1  0.50000000  0.75000000  0.12500000  1
  Mg  Mg33  1  0.75000000  0.00000000  0.87500000  1
  Mg  Mg34  1  0.75000000  0.00000000  0.37500000  1
  Mg  Mg35  1  0.00000000  0.75000000  0.62500000  1
  Mg  Mg36  1  0.75000000  0.50000000  0.87500000  1
  Mg  Mg37  1  0.50000000  0.75000000  0.62500000  1
  Mg  Mg38  1  0.25000000  0.00000000  0.87500000  1
  Mg  Mg39  1  0.50000000  0.25000000  0.62500000  1
  V  V40  1  0.00000000  0.00000000  0.00000000  1
  V  V41  1  0.25000000  0.37451000  0.62500000  1
  V  V42  1  0.25000000  0.12549000  0.12500000  1
  V  V43  1  0.37451000  0.75000000  0.37500000  1
  V  V44  1  0.37451000  0.25000000  0.87500000  1
  V  V45  1  0.50000000  0.00000000  0.25000000  1
  V  V46  1  0.00000000  0.00000000  0.50000000  1
  V  V47  1  0.12549000  0.25000000  0.37500000  1
  V  V48  1  0.25000000  0.87451000  0.62500000  1
  V  V49  1  0.12549000  0.75000000  0.87500000  1
  V  V50  1  0.25000000  0.62549000  0.12500000  1
  V  V51  1  0.00000000  0.50000000  0.25000000  1
  V  V52  1  0.50000000  0.50000000  0.50000000  1
  V  V53  1  0.75000000  0.87451000  0.12500000  1
  V  V54  1  0.75000000  0.62549000  0.62500000  1
  V  V55  1  0.87451000  0.25000000  0.87500000  1
  V  V56  1  0.87451000  0.75000000  0.37500000  1
  V  V57  1  0.00000000  0.50000000  0.75000000  1
  V  V58  1  0.50000000  0.50000000  0.00000000  1
  V  V59  1  0.62549000  0.75000000  0.87500000  1
  V  V60  1  0.75000000  0.37451000  0.12500000  1
  V  V61  1  0.62549000  0.25000000  0.37500000  1
  V  V62  1  0.75000000  0.12549000  0.62500000  1
  V  V63  1  0.50000000  0.00000000  0.75000000  1
  O  O64  1  0.96183250  0.20130450  0.78029050  1
  O  O65  1  0.05418550  0.90366250  0.08474650  1
  O  O66  1  0.15526550  0.71489450  0.17667250  1
  O  O67  1  0.59633750  0.55418550  0.41525350  1
  O  O68  1  0.15526550  0.28510550  0.67667250  1
  O  O69  1  0.78510550  0.65526550  0.32332750  1
  O  O70  1  0.29869550  0.03816750  0.03029050  1
  O  O71  1  0.15526550  0.21489450  0.07332750  1
  O  O72  1  0.20130450  0.03816750  0.21970950  1
  O  O73  1  0.28510550  0.84473450  0.32332750  1
  O  O74  1  0.29869550  0.46183250  0.71970950  1
  O  O75  1  0.09633750  0.55418550  0.33474650  1
  O  O76  1  0.44581450  0.90366250  0.16525350  1
  O  O77  1  0.46183250  0.29869550  0.78029050  1
  O  O78  1  0.28510550  0.34473450  0.92667250  1
  O  O79  1  0.94581450  0.09633750  0.08474650  1
  O  O80  1  0.46183250  0.20130450  0.96970950  1
  O  O81  1  0.20130450  0.46183250  0.53029050  1
  O  O82  1  0.46183250  0.79869550  0.46970950  1
  O  O83  1  0.34473450  0.21489450  0.17667250  1
  O  O84  1  0.40366250  0.05418550  0.33474650  1
  O  O85  1  0.55418550  0.09633750  0.16525350  1
  O  O86  1  0.40366250  0.55418550  0.91525350  1
  O  O87  1  0.78510550  0.15526550  0.92667250  1
  O  O88  1  0.21489450  0.34473450  0.32332750  1
  O  O89  1  0.59633750  0.94581450  0.33474650  1
  O  O90  1  0.44581450  0.40366250  0.08474650  1
  O  O91  1  0.09633750  0.94581450  0.41525350  1
  O  O92  1  0.65526550  0.28510550  0.07332750  1
  O  O93  1  0.03816750  0.20130450  0.28029050  1
  O  O94  1  0.29869550  0.53816750  0.21970950  1
  O  O95  1  0.53816750  0.29869550  0.28029050  1
  O  O96  1  0.05418550  0.40366250  0.16525350  1
  O  O97  1  0.21489450  0.65526550  0.82332750  1
  O  O98  1  0.03816750  0.70130450  0.96970950  1
  O  O99  1  0.05418550  0.09633750  0.58474650  1
  O  O100  1  0.40366250  0.44581450  0.41525350  1
  O  O101  1  0.20130450  0.53816750  0.03029050  1
  O  O102  1  0.29869550  0.96183250  0.53029050  1
  O  O103  1  0.21489450  0.15526550  0.42667250  1
  O  O104  1  0.84473450  0.28510550  0.17667250  1
  O  O105  1  0.20130450  0.96183250  0.71970950  1
  O  O106  1  0.71489450  0.34473450  0.42667250  1
  O  O107  1  0.84473450  0.21489450  0.57332750  1
  O  O108  1  0.90366250  0.44581450  0.33474650  1
  O  O109  1  0.34473450  0.28510550  0.57332750  1
  O  O110  1  0.94581450  0.59633750  0.16525350  1
  O  O111  1  0.03816750  0.29869550  0.46970950  1
  O  O112  1  0.46183250  0.70130450  0.28029050  1
  O  O113  1  0.55418550  0.40366250  0.58474650  1
  O  O114  1  0.65526550  0.21489450  0.67667250  1
  O  O115  1  0.09633750  0.05418550  0.91525350  1
  O  O116  1  0.65526550  0.78510550  0.17667250  1
  O  O117  1  0.28510550  0.15526550  0.82332750  1
  O  O118  1  0.79869550  0.53816750  0.53029050  1
  O  O119  1  0.65526550  0.71489450  0.57332750  1
  O  O120  1  0.70130450  0.53816750  0.71970950  1
  O  O121  1  0.78510550  0.34473450  0.82332750  1
  O  O122  1  0.79869550  0.96183250  0.21970950  1
  O  O123  1  0.59633750  0.05418550  0.83474650  1
  O  O124  1  0.94581450  0.40366250  0.66525350  1
  O  O125  1  0.96183250  0.79869550  0.28029050  1
  O  O126  1  0.78510550  0.84473450  0.42667250  1
  O  O127  1  0.44581450  0.59633750  0.58474650  1
  O  O128  1  0.96183250  0.70130450  0.46970950  1
  O  O129  1  0.70130450  0.96183250  0.03029050  1
  O  O130  1  0.96183250  0.29869550  0.96970950  1
  O  O131  1  0.84473450  0.71489450  0.67667250  1
  O  O132  1  0.90366250  0.55418550  0.83474650  1
  O  O133  1  0.05418550  0.59633750  0.66525350  1
  O  O134  1  0.90366250  0.05418550  0.41525350  1
  O  O135  1  0.28510550  0.65526550  0.42667250  1
  O  O136  1  0.71489450  0.84473450  0.82332750  1
  O  O137  1  0.09633750  0.44581450  0.83474650  1
  O  O138  1  0.94581450  0.90366250  0.58474650  1
  O  O139  1  0.59633750  0.44581450  0.91525350  1
  O  O140  1  0.15526550  0.78510550  0.57332750  1
  O  O141  1  0.53816750  0.70130450  0.78029050  1
  O  O142  1  0.79869550  0.03816750  0.71970950  1
  O  O143  1  0.03816750  0.79869550  0.78029050  1
  O  O144  1  0.55418550  0.90366250  0.66525350  1
  O  O145  1  0.71489450  0.15526550  0.32332750  1
  O  O146  1  0.53816750  0.20130450  0.46970950  1
  O  O147  1  0.55418550  0.59633750  0.08474650  1
  O  O148  1  0.90366250  0.94581450  0.91525350  1
  O  O149  1  0.70130450  0.03816750  0.53029050  1
  O  O150  1  0.79869550  0.46183250  0.03029050  1
  O  O151  1  0.71489450  0.65526550  0.92667250  1
  O  O152  1  0.34473450  0.78510550  0.67667250  1
  O  O153  1  0.70130450  0.46183250  0.21970950  1
  O  O154  1  0.21489450  0.84473450  0.92667250  1
  O  O155  1  0.34473450  0.71489450  0.07332750  1
  O  O156  1  0.40366250  0.94581450  0.83474650  1
  O  O157  1  0.84473450  0.78510550  0.07332750  1
  O  O158  1  0.44581450  0.09633750  0.66525350  1
  O  O159  1  0.53816750  0.79869550  0.96970950  1
