# generated using pymatgen
data_Ba2Mg3H10
_symmetry_space_group_name_H-M   'P 1'
_cell_length_a   18.03277600
_cell_length_b   5.86897600
_cell_length_c   7.86710794
_cell_angle_alpha   90.00000000
_cell_angle_beta   112.27345477
_cell_angle_gamma   90.00000000
_symmetry_Int_Tables_number   1
_chemical_formula_structural   Ba2Mg3H10
_chemical_formula_sum   'Ba8 Mg12 H40'
_cell_volume   770.48233141
_cell_formula_units_Z   4
loop_
 _symmetry_equiv_pos_site_id
 _symmetry_equiv_pos_as_xyz
  1  'x, y, z'
loop_
 _atom_site_type_symbol
 _atom_site_label
 _atom_site_symmetry_multiplicity
 _atom_site_fract_x
 _atom_site_fract_y
 _atom_site_fract_z
 _atom_site_occupancy
  Ba  Ba0  1  0.28575200  0.00000000  0.69272500  1
  Ba  Ba1  1  0.21424800  0.50000000  0.30727500  1
  Ba  Ba2  1  0.38437600  0.00000000  0.27617300  1
  Ba  Ba3  1  0.11562400  0.50000000  0.72382700  1
  Ba  Ba4  1  0.78575200  0.50000000  0.69272500  1
  Ba  Ba5  1  0.71424800  0.00000000  0.30727500  1
  Ba  Ba6  1  0.88437600  0.50000000  0.27617300  1
  Ba  Ba7  1  0.61562400  0.00000000  0.72382700  1
  Mg  Mg8  1  0.07272700  0.00000000  0.44525800  1
  Mg  Mg9  1  0.42727300  0.50000000  0.55474200  1
  Mg  Mg10  1  0.17307800  0.00000000  0.01133800  1
  Mg  Mg11  1  0.32692200  0.50000000  0.98866200  1
  Mg  Mg12  1  0.00000000  0.25500300  0.00000000  1
  Mg  Mg13  1  0.00000000  0.74499700  0.00000000  1
  Mg  Mg14  1  0.57272700  0.50000000  0.44525800  1
  Mg  Mg15  1  0.92727300  0.00000000  0.55474200  1
  Mg  Mg16  1  0.67307800  0.50000000  0.01133800  1
  Mg  Mg17  1  0.82692200  0.00000000  0.98866200  1
  Mg  Mg18  1  0.50000000  0.75500300  0.00000000  1
  Mg  Mg19  1  0.50000000  0.24499700  0.00000000  1
  H  H20  1  0.10945100  0.26050700  0.01544400  1
  H  H21  1  0.10945100  0.73949300  0.01544400  1
  H  H22  1  0.39054900  0.23949300  0.98455600  1
  H  H23  1  0.39054900  0.76050700  0.98455600  1
  H  H24  1  0.14987850  0.23532350  0.48446700  1
  H  H25  1  0.14987850  0.76467650  0.48446700  1
  H  H26  1  0.35012150  0.26467650  0.51553300  1
  H  H27  1  0.35012150  0.73532350  0.51553300  1
  H  H28  1  0.02289600  0.00000000  0.17646400  1
  H  H29  1  0.47710400  0.50000000  0.82353600  1
  H  H30  1  0.13533700  0.00000000  0.74356900  1
  H  H31  1  0.36466300  0.50000000  0.25643100  1
  H  H32  1  0.23149800  0.00000000  0.27560300  1
  H  H33  1  0.26850200  0.50000000  0.72439700  1
  H  H34  1  0.02600800  0.50000000  0.18396200  1
  H  H35  1  0.47399200  0.00000000  0.81603800  1
  H  H36  1  0.00000000  0.22034000  0.50000000  1
  H  H37  1  0.00000000  0.77966000  0.50000000  1
  H  H38  1  0.25000000  0.25000000  0.00000000  1
  H  H39  1  0.25000000  0.75000000  0.00000000  1
  H  H40  1  0.60945100  0.76050700  0.01544400  1
  H  H41  1  0.60945100  0.23949300  0.01544400  1
  H  H42  1  0.89054900  0.73949300  0.98455600  1
  H  H43  1  0.89054900  0.26050700  0.98455600  1
  H  H44  1  0.64987850  0.73532350  0.48446700  1
  H  H45  1  0.64987850  0.26467650  0.48446700  1
  H  H46  1  0.85012150  0.76467650  0.51553300  1
  H  H47  1  0.85012150  0.23532350  0.51553300  1
  H  H48  1  0.52289600  0.50000000  0.17646400  1
  H  H49  1  0.97710400  0.00000000  0.82353600  1
  H  H50  1  0.63533700  0.50000000  0.74356900  1
  H  H51  1  0.86466300  0.00000000  0.25643100  1
  H  H52  1  0.73149800  0.50000000  0.27560300  1
  H  H53  1  0.76850200  0.00000000  0.72439700  1
  H  H54  1  0.52600800  0.00000000  0.18396200  1
  H  H55  1  0.97399200  0.50000000  0.81603800  1
  H  H56  1  0.50000000  0.72034000  0.50000000  1
  H  H57  1  0.50000000  0.27966000  0.50000000  1
  H  H58  1  0.75000000  0.75000000  0.00000000  1
  H  H59  1  0.75000000  0.25000000  0.00000000  1
