# generated using pymatgen
data_Li3MgV8O16
_symmetry_space_group_name_H-M   'P 1'
_cell_length_a   10.36761200
_cell_length_b   6.03464400
_cell_length_c   10.32123589
_cell_angle_alpha   90.00000000
_cell_angle_beta   108.38246056
_cell_angle_gamma   90.00000000
_symmetry_Int_Tables_number   1
_chemical_formula_structural   Li3MgV8O16
_chemical_formula_sum   'Li6 Mg2 V16 O32'
_cell_volume   612.79577887
_cell_formula_units_Z   2
loop_
 _symmetry_equiv_pos_site_id
 _symmetry_equiv_pos_as_xyz
  1  'x, y, z'
loop_
 _atom_site_type_symbol
 _atom_site_label
 _atom_site_symmetry_multiplicity
 _atom_site_fract_x
 _atom_site_fract_y
 _atom_site_fract_z
 _atom_site_occupancy
  Li  Li0  1  0.00058300  0.00000000  0.00129300  1
  Li  Li1  1  0.37170200  0.00000000  0.12236400  1
  Li  Li2  1  0.87533000  0.00000000  0.62901800  1
  Li  Li3  1  0.50058300  0.50000000  0.00129300  1
  Li  Li4  1  0.87170200  0.50000000  0.12236400  1
  Li  Li5  1  0.37533000  0.50000000  0.62901800  1
  Mg  Mg6  1  0.18571600  0.00000000  0.56349400  1
  Mg  Mg7  1  0.68571600  0.50000000  0.56349400  1
  V  V8  1  0.68868350  0.75003450  0.30734700  1
  V  V9  1  0.68867300  0.00000000  0.06644800  1
  V  V10  1  0.49925500  0.00000000  0.49670000  1
  V  V11  1  0.93747000  0.00000000  0.31070200  1
  V  V12  1  0.68868350  0.24996550  0.30734700  1
  V  V13  1  0.68958300  0.25703700  0.81449100  1
  V  V14  1  0.68958300  0.74296300  0.81449100  1
  V  V15  1  0.43663000  0.00000000  0.81491000  1
  V  V16  1  0.18868350  0.25003450  0.30734700  1
  V  V17  1  0.18867300  0.50000000  0.06644800  1
  V  V18  1  0.99925500  0.50000000  0.49670000  1
  V  V19  1  0.43747000  0.50000000  0.31070200  1
  V  V20  1  0.18868350  0.74996550  0.30734700  1
  V  V21  1  0.18958300  0.75703700  0.81449100  1
  V  V22  1  0.18958300  0.24296300  0.81449100  1
  V  V23  1  0.93663000  0.50000000  0.81491000  1
  O  O24  1  0.30674350  0.27769050  0.18514000  1
  O  O25  1  0.57686700  0.00000000  0.17817500  1
  O  O26  1  0.80374400  0.00000000  0.41736600  1
  O  O27  1  0.30674350  0.72230950  0.18514000  1
  O  O28  1  0.07149400  0.00000000  0.20459100  1
  O  O29  1  0.56700300  0.26394900  0.43322700  1
  O  O30  1  0.56700300  0.73605100  0.43322700  1
  O  O31  1  0.30229600  0.00000000  0.43338800  1
  O  O32  1  0.08089600  0.00000000  0.70766400  1
  O  O33  1  0.30545350  0.76632350  0.70654400  1
  O  O34  1  0.29804600  0.00000000  0.92262200  1
  O  O35  1  0.30545350  0.23367650  0.70654400  1
  O  O36  1  0.57198900  0.77476100  0.92785500  1
  O  O37  1  0.57283900  0.00000000  0.69894700  1
  O  O38  1  0.57198900  0.22523900  0.92785500  1
  O  O39  1  0.78955400  0.00000000  0.93311500  1
  O  O40  1  0.80674350  0.77769050  0.18514000  1
  O  O41  1  0.07686700  0.50000000  0.17817500  1
  O  O42  1  0.30374400  0.50000000  0.41736600  1
  O  O43  1  0.80674350  0.22230950  0.18514000  1
  O  O44  1  0.57149400  0.50000000  0.20459100  1
  O  O45  1  0.06700300  0.76394900  0.43322700  1
  O  O46  1  0.06700300  0.23605100  0.43322700  1
  O  O47  1  0.80229600  0.50000000  0.43338800  1
  O  O48  1  0.58089600  0.50000000  0.70766400  1
  O  O49  1  0.80545350  0.26632350  0.70654400  1
  O  O50  1  0.79804600  0.50000000  0.92262200  1
  O  O51  1  0.80545350  0.73367650  0.70654400  1
  O  O52  1  0.07198900  0.27476100  0.92785500  1
  O  O53  1  0.07283900  0.50000000  0.69894700  1
  O  O54  1  0.07198900  0.72523900  0.92785500  1
  O  O55  1  0.28955400  0.50000000  0.93311500  1
