# generated using pymatgen
data_Ca6HfO8
_symmetry_space_group_name_H-M   'P 1'
_cell_length_a   9.60362800
_cell_length_b   9.60362800
_cell_length_c   9.60362800
_cell_angle_alpha   90.00000000
_cell_angle_beta   90.00000000
_cell_angle_gamma   90.00000000
_symmetry_Int_Tables_number   1
_chemical_formula_structural   Ca6HfO8
_chemical_formula_sum   'Ca24 Hf4 O32'
_cell_volume   885.73944856
_cell_formula_units_Z   4
loop_
 _symmetry_equiv_pos_site_id
 _symmetry_equiv_pos_as_xyz
  1  'x, y, z'
loop_
 _atom_site_type_symbol
 _atom_site_label
 _atom_site_symmetry_multiplicity
 _atom_site_fract_x
 _atom_site_fract_y
 _atom_site_fract_z
 _atom_site_occupancy
  Ca  Ca0  1  0.00000000  0.75000000  0.75000000  1
  Ca  Ca1  1  0.25000000  0.00000000  0.75000000  1
  Ca  Ca2  1  0.25000000  0.25000000  0.00000000  1
  Ca  Ca3  1  0.25000000  0.75000000  0.00000000  1
  Ca  Ca4  1  0.75000000  0.00000000  0.75000000  1
  Ca  Ca5  1  0.00000000  0.25000000  0.75000000  1
  Ca  Ca6  1  0.00000000  0.25000000  0.25000000  1
  Ca  Ca7  1  0.25000000  0.50000000  0.25000000  1
  Ca  Ca8  1  0.25000000  0.75000000  0.50000000  1
  Ca  Ca9  1  0.25000000  0.25000000  0.50000000  1
  Ca  Ca10  1  0.75000000  0.50000000  0.25000000  1
  Ca  Ca11  1  0.00000000  0.75000000  0.25000000  1
  Ca  Ca12  1  0.50000000  0.75000000  0.25000000  1
  Ca  Ca13  1  0.75000000  0.00000000  0.25000000  1
  Ca  Ca14  1  0.75000000  0.25000000  0.50000000  1
  Ca  Ca15  1  0.75000000  0.75000000  0.50000000  1
  Ca  Ca16  1  0.25000000  0.00000000  0.25000000  1
  Ca  Ca17  1  0.50000000  0.25000000  0.25000000  1
  Ca  Ca18  1  0.50000000  0.25000000  0.75000000  1
  Ca  Ca19  1  0.75000000  0.50000000  0.75000000  1
  Ca  Ca20  1  0.75000000  0.75000000  0.00000000  1
  Ca  Ca21  1  0.75000000  0.25000000  0.00000000  1
  Ca  Ca22  1  0.25000000  0.50000000  0.75000000  1
  Ca  Ca23  1  0.50000000  0.75000000  0.75000000  1
  Hf  Hf24  1  0.00000000  0.00000000  0.00000000  1
  Hf  Hf25  1  0.00000000  0.50000000  0.50000000  1
  Hf  Hf26  1  0.50000000  0.00000000  0.50000000  1
  Hf  Hf27  1  0.50000000  0.50000000  0.00000000  1
  O  O28  1  0.21968700  0.00000000  0.00000000  1
  O  O29  1  0.25000000  0.75000000  0.75000000  1
  O  O30  1  0.50000000  0.71968700  0.00000000  1
  O  O31  1  0.50000000  0.00000000  0.71968700  1
  O  O32  1  0.50000000  0.28031300  0.00000000  1
  O  O33  1  0.00000000  0.00000000  0.78031300  1
  O  O34  1  0.25000000  0.25000000  0.75000000  1
  O  O35  1  0.78031300  0.00000000  0.00000000  1
  O  O36  1  0.21968700  0.50000000  0.50000000  1
  O  O37  1  0.25000000  0.25000000  0.25000000  1
  O  O38  1  0.50000000  0.21968700  0.50000000  1
  O  O39  1  0.50000000  0.50000000  0.21968700  1
  O  O40  1  0.50000000  0.78031300  0.50000000  1
  O  O41  1  0.00000000  0.50000000  0.28031300  1
  O  O42  1  0.25000000  0.75000000  0.25000000  1
  O  O43  1  0.78031300  0.50000000  0.50000000  1
  O  O44  1  0.71968700  0.00000000  0.50000000  1
  O  O45  1  0.75000000  0.75000000  0.25000000  1
  O  O46  1  0.00000000  0.71968700  0.50000000  1
  O  O47  1  0.00000000  0.00000000  0.21968700  1
  O  O48  1  0.00000000  0.28031300  0.50000000  1
  O  O49  1  0.50000000  0.00000000  0.28031300  1
  O  O50  1  0.75000000  0.25000000  0.25000000  1
  O  O51  1  0.28031300  0.00000000  0.50000000  1
  O  O52  1  0.71968700  0.50000000  0.00000000  1
  O  O53  1  0.75000000  0.25000000  0.75000000  1
  O  O54  1  0.00000000  0.21968700  0.00000000  1
  O  O55  1  0.00000000  0.50000000  0.71968700  1
  O  O56  1  0.00000000  0.78031300  0.00000000  1
  O  O57  1  0.50000000  0.50000000  0.78031300  1
  O  O58  1  0.75000000  0.75000000  0.75000000  1
  O  O59  1  0.28031300  0.50000000  0.00000000  1
