# generated using pymatgen
data_LiSn2P5O16
_symmetry_space_group_name_H-M   'P 1'
_cell_length_a   7.36983600
_cell_length_b   10.34726700
_cell_length_c   10.66318278
_cell_angle_alpha   90.00000000
_cell_angle_beta   109.94108450
_cell_angle_gamma   90.00000000
_symmetry_Int_Tables_number   1
_chemical_formula_structural   LiSn2P5O16
_chemical_formula_sum   'Li2 Sn4 P10 O32'
_cell_volume   764.39603991
_cell_formula_units_Z   2
loop_
 _symmetry_equiv_pos_site_id
 _symmetry_equiv_pos_as_xyz
  1  'x, y, z'
loop_
 _atom_site_type_symbol
 _atom_site_label
 _atom_site_symmetry_multiplicity
 _atom_site_fract_x
 _atom_site_fract_y
 _atom_site_fract_z
 _atom_site_occupancy
  Li  Li0  1  0.03820100  0.19075900  0.80749600  1
  Li  Li1  1  0.03820100  0.80924100  0.30749600  1
  Sn  Sn2  1  0.64684400  0.87233900  0.50040800  1
  Sn  Sn3  1  0.08256500  0.62971500  0.86533700  1
  Sn  Sn4  1  0.08256500  0.37028500  0.36533700  1
  Sn  Sn5  1  0.64684400  0.12766100  0.00040800  1
  P  P6  1  0.38042000  0.14205500  0.37046600  1
  P  P7  1  0.49250500  0.53245500  0.50237000  1
  P  P8  1  0.44029100  0.71167400  0.12086000  1
  P  P9  1  0.76279600  0.12865000  0.33661500  1
  P  P10  1  0.90068300  0.58704100  0.53447700  1
  P  P11  1  0.90068300  0.41295900  0.03447700  1
  P  P12  1  0.38042000  0.85794500  0.87046600  1
  P  P13  1  0.49250500  0.46754500  0.00237000  1
  P  P14  1  0.44029100  0.28832600  0.62086000  1
  P  P15  1  0.76279600  0.87135000  0.83661500  1
  O  O16  1  0.21927800  0.70049700  0.06239500  1
  O  O17  1  0.52739400  0.15364400  0.29205100  1
  O  O18  1  0.78818900  0.94054400  0.71781400  1
  O  O19  1  0.52700500  0.77115000  0.25452500  1
  O  O20  1  0.68882600  0.52258900  0.46882800  1
  O  O21  1  0.53383500  0.56983800  0.12516300  1
  O  O22  1  0.46090500  0.33462200  0.04328500  1
  O  O23  1  0.50497300  0.78681300  0.00984300  1
  O  O24  1  0.01503800  0.47233300  0.95300200  1
  O  O25  1  0.82602700  0.05016300  0.46470700  1
  O  O26  1  0.89875700  0.73218400  0.51390600  1
  O  O27  1  0.96911900  0.54184600  0.68157200  1
  O  O28  1  0.78818900  0.05945600  0.21781400  1
  O  O29  1  0.83970800  0.27015600  0.35461900  1
  O  O30  1  0.20560500  0.77567800  0.79288600  1
  O  O31  1  0.01503800  0.52766700  0.45300200  1
  O  O32  1  0.89875700  0.26781600  0.01390600  1
  O  O33  1  0.33952500  0.52955100  0.88216600  1
  O  O34  1  0.96911900  0.45815400  0.18157200  1
  O  O35  1  0.21927800  0.29950300  0.56239500  1
  O  O36  1  0.33128300  0.99426300  0.89328500  1
  O  O37  1  0.20560500  0.22432200  0.29288600  1
  O  O38  1  0.52739400  0.84635600  0.79205100  1
  O  O39  1  0.33952500  0.47044900  0.38216600  1
  O  O40  1  0.52700500  0.22885000  0.75452500  1
  O  O41  1  0.68882600  0.47741100  0.96882800  1
  O  O42  1  0.33128300  0.00573700  0.39328500  1
  O  O43  1  0.53383500  0.43016200  0.62516300  1
  O  O44  1  0.46090500  0.66537800  0.54328500  1
  O  O45  1  0.50497300  0.21318700  0.50984300  1
  O  O46  1  0.82602700  0.94983700  0.96470700  1
  O  O47  1  0.83970800  0.72984400  0.85461900  1
