# generated using pymatgen
data_Li2V3SnO8
_symmetry_space_group_name_H-M   'P 1'
_cell_length_a   5.96338800
_cell_length_b   10.44561200
_cell_length_c   9.83151122
_cell_angle_alpha   90.00000000
_cell_angle_beta   90.12717951
_cell_angle_gamma   90.00000000
_symmetry_Int_Tables_number   1
_chemical_formula_structural   Li2V3SnO8
_chemical_formula_sum   'Li8 V12 Sn4 O32'
_cell_volume   612.41548927
_cell_formula_units_Z   4
loop_
 _symmetry_equiv_pos_site_id
 _symmetry_equiv_pos_as_xyz
  1  'x, y, z'
loop_
 _atom_site_type_symbol
 _atom_site_label
 _atom_site_symmetry_multiplicity
 _atom_site_fract_x
 _atom_site_fract_y
 _atom_site_fract_z
 _atom_site_occupancy
  Li  Li0  1  0.49591300  0.16637000  0.89529700  1
  Li  Li1  1  0.00413300  0.00208500  0.99281700  1
  Li  Li2  1  0.50413300  0.49791500  0.49281700  1
  Li  Li3  1  0.99591300  0.33363000  0.39529700  1
  Li  Li4  1  0.99591300  0.66637000  0.89529700  1
  Li  Li5  1  0.50413300  0.50208500  0.99281700  1
  Li  Li6  1  0.00413300  0.99791500  0.49281700  1
  Li  Li7  1  0.49591300  0.83363000  0.39529700  1
  V  V8  1  0.25981800  0.08755600  0.21922500  1
  V  V9  1  0.50203200  0.33155700  0.21129600  1
  V  V10  1  0.00203200  0.16844300  0.71129600  1
  V  V11  1  0.24313150  0.41391850  0.71393400  1
  V  V12  1  0.74313150  0.08608150  0.21393400  1
  V  V13  1  0.75981800  0.41244400  0.71922500  1
  V  V14  1  0.75981800  0.58755600  0.21922500  1
  V  V15  1  0.00203200  0.83155700  0.21129600  1
  V  V16  1  0.50203200  0.66844300  0.71129600  1
  V  V17  1  0.74313150  0.91391850  0.71393400  1
  V  V18  1  0.24313150  0.58608150  0.21393400  1
  V  V19  1  0.25981800  0.91244400  0.71922500  1
  Sn  Sn20  1  0.50250550  0.16801550  0.49243200  1
  Sn  Sn21  1  0.00250550  0.33198450  0.99243200  1
  Sn  Sn22  1  0.00250550  0.66801550  0.49243200  1
  Sn  Sn23  1  0.50250550  0.83198450  0.99243200  1
  O  O24  1  0.24376750  0.08144950  0.60295200  1
  O  O25  1  0.49012850  0.01743150  0.34284100  1
  O  O26  1  0.48437050  0.15853550  0.10444400  1
  O  O27  1  0.01095750  0.00769550  0.30649400  1
  O  O28  1  0.51095750  0.49230450  0.80649400  1
  O  O29  1  0.76142050  0.08041150  0.60069900  1
  O  O30  1  0.27213000  0.24011500  0.33781100  1
  O  O31  1  0.72494700  0.23932700  0.33720400  1
  O  O32  1  0.00458700  0.16105400  0.09647400  1
  O  O33  1  0.50458700  0.33894600  0.59647400  1
  O  O34  1  0.77213000  0.25988500  0.83781100  1
  O  O35  1  0.22494700  0.26067300  0.83720400  1
  O  O36  1  0.98437050  0.34146450  0.60444400  1
  O  O37  1  0.74376750  0.41855050  0.10295200  1
  O  O38  1  0.99012850  0.48256850  0.84284100  1
  O  O39  1  0.26142050  0.41958850  0.10069900  1
  O  O40  1  0.74376750  0.58144950  0.60295200  1
  O  O41  1  0.99012850  0.51743150  0.34284100  1
  O  O42  1  0.98437050  0.65853550  0.10444400  1
  O  O43  1  0.51095750  0.50769550  0.30649400  1
  O  O44  1  0.01095750  0.99230450  0.80649400  1
  O  O45  1  0.26142050  0.58041150  0.60069900  1
  O  O46  1  0.77213000  0.74011500  0.33781100  1
  O  O47  1  0.22494700  0.73932700  0.33720400  1
  O  O48  1  0.50458700  0.66105400  0.09647400  1
  O  O49  1  0.00458700  0.83894600  0.59647400  1
  O  O50  1  0.27213000  0.75988500  0.83781100  1
  O  O51  1  0.72494700  0.76067300  0.83720400  1
  O  O52  1  0.48437050  0.84146450  0.60444400  1
  O  O53  1  0.24376750  0.91855050  0.10295200  1
  O  O54  1  0.49012850  0.98256850  0.84284100  1
  O  O55  1  0.76142050  0.91958850  0.10069900  1
