# generated using pymatgen
data_Lu6TeO12
_symmetry_space_group_name_H-M   'P 1'
_cell_length_a   9.67518047
_cell_length_b   9.67518047
_cell_length_c   9.15771958
_cell_angle_alpha   90.00000000
_cell_angle_beta   90.00000000
_cell_angle_gamma   120.00000000
_symmetry_Int_Tables_number   1
_chemical_formula_structural   Lu6TeO12
_chemical_formula_sum   'Lu18 Te3 O36'
_cell_volume   742.39685176
_cell_formula_units_Z   3
loop_
 _symmetry_equiv_pos_site_id
 _symmetry_equiv_pos_as_xyz
  1  'x, y, z'
loop_
 _atom_site_type_symbol
 _atom_site_label
 _atom_site_symmetry_multiplicity
 _atom_site_fract_x
 _atom_site_fract_y
 _atom_site_fract_z
 _atom_site_occupancy
  Lu  Lu0  1  0.03657667  0.78671133  0.64198233  1
  Lu  Lu1  1  0.78671133  0.75013467  0.35801767  1
  Lu  Lu2  1  0.75013467  0.96342333  0.64198233  1
  Lu  Lu3  1  0.24986533  0.03657667  0.35801767  1
  Lu  Lu4  1  0.21328867  0.24986533  0.64198233  1
  Lu  Lu5  1  0.96342333  0.21328867  0.35801767  1
  Lu  Lu6  1  0.70324333  0.12004467  0.97531567  1
  Lu  Lu7  1  0.45337800  0.08346800  0.69135100  1
  Lu  Lu8  1  0.41680133  0.29675667  0.97531567  1
  Lu  Lu9  1  0.91653200  0.36991000  0.69135100  1
  Lu  Lu10  1  0.87995533  0.58319867  0.97531567  1
  Lu  Lu11  1  0.63009000  0.54662200  0.69135100  1
  Lu  Lu12  1  0.36991000  0.45337800  0.30864900  1
  Lu  Lu13  1  0.12004467  0.41680133  0.02468433  1
  Lu  Lu14  1  0.08346800  0.63009000  0.30864900  1
  Lu  Lu15  1  0.58319867  0.70324333  0.02468433  1
  Lu  Lu16  1  0.54662200  0.91653200  0.30864900  1
  Lu  Lu17  1  0.29675667  0.87995533  0.02468433  1
  Te  Te18  1  0.00000000  0.00000000  0.00000000  1
  Te  Te19  1  0.66666667  0.33333333  0.33333333  1
  Te  Te20  1  0.33333333  0.66666667  0.66666667  1
  O  O21  1  0.63619667  0.48827433  0.44767133  1
  O  O22  1  0.14792233  0.63619667  0.55232867  1
  O  O23  1  0.80806433  0.77964367  0.60182167  1
  O  O24  1  0.48827433  0.85207767  0.55232867  1
  O  O25  1  0.02842067  0.80806433  0.39817833  1
  O  O26  1  0.22035633  0.02842067  0.60182167  1
  O  O27  1  0.77964367  0.97157933  0.39817833  1
  O  O28  1  0.97157933  0.19193567  0.60182167  1
  O  O29  1  0.51172567  0.14792233  0.44767133  1
  O  O30  1  0.19193567  0.22035633  0.39817833  1
  O  O31  1  0.85207767  0.36380333  0.44767133  1
  O  O32  1  0.36380333  0.51172567  0.55232867  1
  O  O33  1  0.30286333  0.82160767  0.78100467  1
  O  O34  1  0.81458900  0.96953000  0.88566200  1
  O  O35  1  0.47473100  0.11297700  0.93515500  1
  O  O36  1  0.15494100  0.18541100  0.88566200  1
  O  O37  1  0.69508733  0.14139767  0.73151167  1
  O  O38  1  0.88702300  0.36175400  0.93515500  1
  O  O39  1  0.44631033  0.30491267  0.73151167  1
  O  O40  1  0.63824600  0.52526900  0.93515500  1
  O  O41  1  0.17839233  0.48125567  0.78100467  1
  O  O42  1  0.85860233  0.55368967  0.73151167  1
  O  O43  1  0.51874433  0.69713667  0.78100467  1
  O  O44  1  0.03047000  0.84505900  0.88566200  1
  O  O45  1  0.96953000  0.15494100  0.11433800  1
  O  O46  1  0.48125567  0.30286333  0.21899533  1
  O  O47  1  0.14139767  0.44631033  0.26848833  1
  O  O48  1  0.82160767  0.51874433  0.21899533  1
  O  O49  1  0.36175400  0.47473100  0.06484500  1
  O  O50  1  0.55368967  0.69508733  0.26848833  1
  O  O51  1  0.11297700  0.63824600  0.06484500  1
  O  O52  1  0.30491267  0.85860233  0.26848833  1
  O  O53  1  0.84505900  0.81458900  0.11433800  1
  O  O54  1  0.52526900  0.88702300  0.06484500  1
  O  O55  1  0.18541100  0.03047000  0.11433800  1
  O  O56  1  0.69713667  0.17839233  0.21899533  1
