# generated using pymatgen
data_Li2MnF4
_symmetry_space_group_name_H-M   'P 1'
_cell_length_a   4.74373000
_cell_length_b   4.74373000
_cell_length_c   8.75974200
_cell_angle_alpha   90.00000000
_cell_angle_beta   90.00000000
_cell_angle_gamma   90.00000000
_symmetry_Int_Tables_number   1
_chemical_formula_structural   Li2MnF4
_chemical_formula_sum   'Li4 Mn2 F8'
_cell_volume   197.12024921
_cell_formula_units_Z   2
loop_
 _symmetry_equiv_pos_site_id
 _symmetry_equiv_pos_as_xyz
  1  'x, y, z'
loop_
 _atom_site_type_symbol
 _atom_site_label
 _atom_site_symmetry_multiplicity
 _atom_site_fract_x
 _atom_site_fract_y
 _atom_site_fract_z
 _atom_site_occupancy
  Li  Li0  1  0.50000000  0.50000000  0.00000000  1
  Li  Li1  1  0.50000000  0.00000000  0.25000000  1
  Li  Li2  1  0.00000000  0.00000000  0.50000000  1
  Li  Li3  1  0.00000000  0.50000000  0.75000000  1
  Mn  Mn4  1  0.00000000  0.00000000  0.00000000  1
  Mn  Mn5  1  0.50000000  0.50000000  0.50000000  1
  F  F6  1  0.27080050  0.79266850  0.38429150  1
  F  F7  1  0.70733150  0.77080050  0.11570850  1
  F  F8  1  0.72919950  0.20733150  0.38429150  1
  F  F9  1  0.29266850  0.22919950  0.11570850  1
  F  F10  1  0.77080050  0.29266850  0.88429150  1
  F  F11  1  0.20733150  0.27080050  0.61570850  1
  F  F12  1  0.22919950  0.70733150  0.88429150  1
  F  F13  1  0.79266850  0.72919950  0.61570850  1
