# generated using pymatgen
data_Hf2N2O
_symmetry_space_group_name_H-M   'P 1'
_cell_length_a   8.71948000
_cell_length_b   8.72188424
_cell_length_c   8.72730294
_cell_angle_alpha   109.49246371
_cell_angle_beta   109.56109397
_cell_angle_gamma   109.18316132
_symmetry_Int_Tables_number   1
_chemical_formula_structural   Hf2N2O
_chemical_formula_sum   'Hf16 N16 O8'
_cell_volume   512.03518599
_cell_formula_units_Z   8
loop_
 _symmetry_equiv_pos_site_id
 _symmetry_equiv_pos_as_xyz
  1  'x, y, z'
loop_
 _atom_site_type_symbol
 _atom_site_label
 _atom_site_symmetry_multiplicity
 _atom_site_fract_x
 _atom_site_fract_y
 _atom_site_fract_z
 _atom_site_occupancy
  Hf  Hf0  1  0.48868600  0.49085700  0.50114900  1
  Hf  Hf1  1  0.78851600  0.53678500  0.24325000  1
  Hf  Hf2  1  0.52948000  0.75047000  0.27978500  1
  Hf  Hf3  1  0.03138200  0.74376800  0.78973400  1
  Hf  Hf4  1  0.70455300  0.96396400  0.74931900  1
  Hf  Hf5  1  0.74729300  0.71462400  0.97286200  1
  Hf  Hf6  1  0.74837500  0.21497000  0.46635500  1
  Hf  Hf7  1  0.25139200  0.29230600  0.03389400  1
  Hf  Hf8  1  0.00846500  0.00608800  0.49614200  1
  Hf  Hf9  1  0.50874900  0.99862400  0.00078300  1
  Hf  Hf10  1  0.25566200  0.78665800  0.53067100  1
  Hf  Hf11  1  0.00010100  0.51068600  0.00246200  1
  Hf  Hf12  1  0.28901400  0.03662000  0.25549300  1
  Hf  Hf13  1  0.46541800  0.25111600  0.71544200  1
  Hf  Hf14  1  0.97437900  0.25021100  0.22031100  1
  Hf  Hf15  1  0.21275400  0.45602600  0.74963200  1
  N  N16  1  0.22880800  0.26171800  0.26685400  1
  N  N17  1  0.46093800  0.72995600  0.48892900  1
  N  N18  1  0.49345300  0.95683600  0.22706100  1
  N  N19  1  0.04223300  0.52963800  0.27474900  1
  N  N20  1  0.54686900  0.27548700  0.51365100  1
  N  N21  1  0.76050000  0.77069200  0.23311000  1
  N  N22  1  0.95599400  0.47017000  0.72677000  1
  N  N23  1  0.00548700  0.23373200  0.46145500  1
  N  N24  1  0.03185500  0.77419000  0.04199500  1
  N  N25  1  0.74116000  0.96886000  0.00999500  1
  N  N26  1  0.51158000  0.04446800  0.77490200  1
  N  N27  1  0.22330400  0.98225900  0.45014300  1
  N  N28  1  0.23394700  0.22282100  0.77154800  1
  N  N29  1  0.27250400  0.54199000  0.03773900  1
  N  N30  1  0.72663500  0.45262500  0.96781800  1
  N  N31  1  0.46344100  0.51865800  0.73811200  1
  O  O32  1  0.71760200  0.27203300  0.23561700  1
  O  O33  1  0.77457600  0.73626800  0.72008200  1
  O  O34  1  0.53608500  0.47946000  0.25833800  1
  O  O35  1  0.96508800  0.22278000  0.94548000  1
  O  O36  1  0.26363900  0.03309600  0.98602300  1
  O  O37  1  0.77751700  0.02046100  0.55488700  1
  O  O38  1  0.27193800  0.73396700  0.76649800  1
  O  O39  1  0.99062700  0.76405700  0.54095600  1
