# generated using pymatgen
data_KMg2B12H19O30
_symmetry_space_group_name_H-M   'P 1'
_cell_length_a   18.71525200
_cell_length_b   8.51385000
_cell_length_c   14.80798791
_cell_angle_alpha   90.00000000
_cell_angle_beta   100.06014537
_cell_angle_gamma   90.00000000
_symmetry_Int_Tables_number   1
_chemical_formula_structural   KMg2B12H19O30
_chemical_formula_sum   'K4 Mg8 B48 H76 O120'
_cell_volume   2323.21043974
_cell_formula_units_Z   4
loop_
 _symmetry_equiv_pos_site_id
 _symmetry_equiv_pos_as_xyz
  1  'x, y, z'
loop_
 _atom_site_type_symbol
 _atom_site_label
 _atom_site_symmetry_multiplicity
 _atom_site_fract_x
 _atom_site_fract_y
 _atom_site_fract_z
 _atom_site_occupancy
  K  K0  1  0.00000000  0.87717100  0.75000000  1
  K  K1  1  0.00000000  0.12282900  0.25000000  1
  K  K2  1  0.50000000  0.37717100  0.75000000  1
  K  K3  1  0.50000000  0.62282900  0.25000000  1
  Mg  Mg4  1  0.86221750  0.57807050  0.83514800  1
  Mg  Mg5  1  0.63778250  0.07807050  0.66485200  1
  Mg  Mg6  1  0.63778250  0.92192950  0.16485200  1
  Mg  Mg7  1  0.86221750  0.42192950  0.33514800  1
  Mg  Mg8  1  0.36221750  0.07807050  0.83514800  1
  Mg  Mg9  1  0.13778250  0.57807050  0.66485200  1
  Mg  Mg10  1  0.13778250  0.42192950  0.16485200  1
  Mg  Mg11  1  0.36221750  0.92192950  0.33514800  1
  B  B12  1  0.99962150  0.35350650  0.89155100  1
  B  B13  1  0.50037850  0.85350650  0.60844900  1
  B  B14  1  0.50037850  0.14649350  0.10844900  1
  B  B15  1  0.99962150  0.64649350  0.39155100  1
  B  B16  1  0.93100050  0.16237650  0.97465300  1
  B  B17  1  0.56899950  0.66237650  0.52534700  1
  B  B18  1  0.56899950  0.33762350  0.02534700  1
  B  B19  1  0.93100050  0.83762350  0.47465300  1
  B  B20  1  0.88935500  0.20468000  0.80346900  1
  B  B21  1  0.61064500  0.70468000  0.69653100  1
  B  B22  1  0.61064500  0.29532000  0.19653100  1
  B  B23  1  0.88935500  0.79532000  0.30346900  1
  B  B24  1  0.73662050  0.79765250  0.74506400  1
  B  B25  1  0.76337950  0.29765250  0.75493600  1
  B  B26  1  0.76337950  0.70234750  0.25493600  1
  B  B27  1  0.73662050  0.20234750  0.24506400  1
  B  B28  1  0.69548700  0.53994500  0.80690500  1
  B  B29  1  0.80451300  0.03994500  0.69309500  1
  B  B30  1  0.80451300  0.96005500  0.19309500  1
  B  B31  1  0.69548700  0.46005500  0.30690500  1
  B  B32  1  0.75857500  0.50274500  0.97733600  1
  B  B33  1  0.74142500  0.00274500  0.52266400  1
  B  B34  1  0.74142500  0.99725500  0.02266400  1
  B  B35  1  0.75857500  0.49725500  0.47733600  1
  B  B36  1  0.49962150  0.85350650  0.89155100  1
  B  B37  1  0.00037850  0.35350650  0.60844900  1
  B  B38  1  0.00037850  0.64649350  0.10844900  1
  B  B39  1  0.49962150  0.14649350  0.39155100  1
  B  B40  1  0.43100050  0.66237650  0.97465300  1
  B  B41  1  0.06899950  0.16237650  0.52534700  1
  B  B42  1  0.06899950  0.83762350  0.02534700  1
  B  B43  1  0.43100050  0.33762350  0.47465300  1
  B  B44  1  0.38935500  0.70468000  0.80346900  1
  B  B45  1  0.11064500  0.20468000  0.69653100  1
  B  B46  1  0.11064500  0.79532000  0.19653100  1
  B  B47  1  0.38935500  0.29532000  0.30346900  1
  B  B48  1  0.23662050  0.29765250  0.74506400  1
  B  B49  1  0.26337950  0.79765250  0.75493600  1
  B  B50  1  0.26337950  0.20234750  0.25493600  1
  B  B51  1  0.23662050  0.70234750  0.24506400  1
  B  B52  1  0.19548700  0.03994500  0.80690500  1
  B  B53  1  0.30451300  0.53994500  0.69309500  1
  B  B54  1  0.30451300  0.46005500  0.19309500  1
  B  B55  1  0.19548700  0.96005500  0.30690500  1
  B  B56  1  0.25857500  0.00274500  0.97733600  1
  B  B57  1  0.24142500  0.50274500  0.52266400  1
  B  B58  1  0.24142500  0.49725500  0.02266400  1
  B  B59  1  0.25857500  0.99725500  0.47733600  1
  H  H60  1  0.00000000  0.73734700  0.25000000  1
  H  H61  1  0.00000000  0.26265300  0.75000000  1
  H  H62  1  0.59820150  0.76747250  0.86819500  1
  H  H63  1  0.90179850  0.26747250  0.63180500  1
  H  H64  1  0.90179850  0.73252750  0.13180500  1
  H  H65  1  0.59820150  0.23252750  0.36819500  1
  H  H66  1  0.61953750  0.45681050  0.93494300  1
  H  H67  1  0.88046250  0.95681050  0.56505700  1
  H  H68  1  0.88046250  0.04318950  0.06505700  1
  H  H69  1  0.61953750  0.54318950  0.43494300  1
  H  H70  1  0.99367500  0.58760500  0.93318800  1
  H  H71  1  0.50632500  0.08760500  0.56681200  1
  H  H72  1  0.50632500  0.91239500  0.06681200  1
  H  H73  1  0.99367500  0.41239500  0.43318800  1
  H  H74  1  0.79578500  0.06772900  0.92217100  1
  H  H75  1  0.70421500  0.56772900  0.57782900  1
  H  H76  1  0.70421500  0.43227100  0.07782900  1
  H  H77  1  0.79578500  0.93227100  0.42217100  1
  H  H78  1  0.86429700  0.56526700  0.01707600  1
  H  H79  1  0.63570300  0.06526700  0.48292400  1
  H  H80  1  0.63570300  0.93473300  0.98292400  1
  H  H81  1  0.86429700  0.43473300  0.51707600  1
  H  H82  1  0.87812950  0.90061350  0.87109100  1
  H  H83  1  0.62187050  0.40061350  0.62890900  1
  H  H84  1  0.62187050  0.59938650  0.12890900  1
  H  H85  1  0.87812950  0.09938650  0.37109100  1
  H  H86  1  0.93188450  0.79891850  0.94437200  1
  H  H87  1  0.56811550  0.29891850  0.55562800  1
  H  H88  1  0.56811550  0.70108150  0.05562800  1
  H  H89  1  0.93188450  0.20108150  0.44437200  1
  H  H90  1  0.59624450  0.02791650  0.82622500  1
  H  H91  1  0.90375550  0.52791650  0.67377500  1
  H  H92  1  0.90375550  0.47208350  0.17377500  1
  H  H93  1  0.59624450  0.97208350  0.32622500  1
  H  H94  1  0.65774100  0.15280400  0.83501000  1
  H  H95  1  0.84225900  0.65280400  0.66499000  1
  H  H96  1  0.84225900  0.34719600  0.16499000  1
  H  H97  1  0.65774100  0.84719600  0.33501000  1
  H  H98  1  0.50000000  0.23734700  0.25000000  1
  H  H99  1  0.50000000  0.76265300  0.75000000  1
  H  H100  1  0.09820150  0.26747250  0.86819500  1
  H  H101  1  0.40179850  0.76747250  0.63180500  1
  H  H102  1  0.40179850  0.23252750  0.13180500  1
  H  H103  1  0.09820150  0.73252750  0.36819500  1
  H  H104  1  0.11953750  0.95681050  0.93494300  1
  H  H105  1  0.38046250  0.45681050  0.56505700  1
  H  H106  1  0.38046250  0.54318950  0.06505700  1
  H  H107  1  0.11953750  0.04318950  0.43494300  1
  H  H108  1  0.49367500  0.08760500  0.93318800  1
  H  H109  1  0.00632500  0.58760500  0.56681200  1
  H  H110  1  0.00632500  0.41239500  0.06681200  1
  H  H111  1  0.49367500  0.91239500  0.43318800  1
  H  H112  1  0.29578500  0.56772900  0.92217100  1
  H  H113  1  0.20421500  0.06772900  0.57782900  1
  H  H114  1  0.20421500  0.93227100  0.07782900  1
  H  H115  1  0.29578500  0.43227100  0.42217100  1
  H  H116  1  0.36429700  0.06526700  0.01707600  1
  H  H117  1  0.13570300  0.56526700  0.48292400  1
  H  H118  1  0.13570300  0.43473300  0.98292400  1
  H  H119  1  0.36429700  0.93473300  0.51707600  1
  H  H120  1  0.37812950  0.40061350  0.87109100  1
  H  H121  1  0.12187050  0.90061350  0.62890900  1
  H  H122  1  0.12187050  0.09938650  0.12890900  1
  H  H123  1  0.37812950  0.59938650  0.37109100  1
  H  H124  1  0.43188450  0.29891850  0.94437200  1
  H  H125  1  0.06811550  0.79891850  0.55562800  1
  H  H126  1  0.06811550  0.20108150  0.05562800  1
  H  H127  1  0.43188450  0.70108150  0.44437200  1
  H  H128  1  0.09624450  0.52791650  0.82622500  1
  H  H129  1  0.40375550  0.02791650  0.67377500  1
  H  H130  1  0.40375550  0.97208350  0.17377500  1
  H  H131  1  0.09624450  0.47208350  0.32622500  1
  H  H132  1  0.15774100  0.65280400  0.83501000  1
  H  H133  1  0.34225900  0.15280400  0.66499000  1
  H  H134  1  0.34225900  0.84719600  0.16499000  1
  H  H135  1  0.15774100  0.34719600  0.33501000  1
  O  O136  1  0.98692650  0.26983950  0.97578900  1
  O  O137  1  0.51307350  0.76983950  0.52421100  1
  O  O138  1  0.51307350  0.23016050  0.02421100  1
  O  O139  1  0.98692650  0.73016050  0.47578900  1
  O  O140  1  0.96421250  0.26631350  0.81044800  1
  O  O141  1  0.53578750  0.76631350  0.68955200  1
  O  O142  1  0.53578750  0.23368650  0.18955200  1
  O  O143  1  0.96421250  0.73368650  0.31044800  1
  O  O144  1  0.88347100  0.12665400  0.89472700  1
  O  O145  1  0.61652900  0.62665400  0.60527300  1
  O  O146  1  0.61652900  0.37334600  0.10527300  1
  O  O147  1  0.88347100  0.87334600  0.39472700  1
  O  O148  1  0.62354800  0.60049900  0.77295900  1
  O  O149  1  0.87645200  0.10049900  0.72704100  1
  O  O150  1  0.87645200  0.89950100  0.22704100  1
  O  O151  1  0.62354800  0.39950100  0.27295900  1
  O  O152  1  0.83458800  0.33792300  0.79259500  1
  O  O153  1  0.66541200  0.83792300  0.70740500  1
  O  O154  1  0.66541200  0.16207700  0.20740500  1
  O  O155  1  0.83458800  0.66207700  0.29259500  1
  O  O156  1  0.70607600  0.39065900  0.76192800  1
  O  O157  1  0.79392400  0.89065900  0.73807200  1
  O  O158  1  0.79392400  0.10934100  0.23807200  1
  O  O159  1  0.70607600  0.60934100  0.26192800  1
  O  O160  1  0.75300950  0.65448050  0.78988600  1
  O  O161  1  0.74699050  0.15448050  0.71011400  1
  O  O162  1  0.74699050  0.84551950  0.21011400  1
  O  O163  1  0.75300950  0.34551950  0.28988600  1
  O  O164  1  0.70018750  0.51200650  0.90825200  1
  O  O165  1  0.79981250  0.01200650  0.59174800  1
  O  O166  1  0.79981250  0.98799350  0.09174800  1
  O  O167  1  0.70018750  0.48799350  0.40825200  1
  O  O168  1  0.57857750  0.86409350  0.89145000  1
  O  O169  1  0.92142250  0.36409350  0.60855000  1
  O  O170  1  0.92142250  0.63590650  0.10855000  1
  O  O171  1  0.57857750  0.13590650  0.39145000  1
  O  O172  1  0.57259150  0.40730150  0.94274700  1
  O  O173  1  0.92740850  0.90730150  0.55725300  1
  O  O174  1  0.92740850  0.09269850  0.05725300  1
  O  O175  1  0.57259150  0.59269850  0.44274700  1
  O  O176  1  0.96863600  0.51244900  0.88751000  1
  O  O177  1  0.53136400  0.01244900  0.61249000  1
  O  O178  1  0.53136400  0.98755100  0.11249000  1
  O  O179  1  0.96863600  0.48755100  0.38751000  1
  O  O180  1  0.74671150  0.04286650  0.93472400  1
  O  O181  1  0.75328850  0.54286650  0.56527600  1
  O  O182  1  0.75328850  0.45713350  0.06527600  1
  O  O183  1  0.74671150  0.95713350  0.43472400  1
  O  O184  1  0.82801200  0.53889600  0.96094800  1
  O  O185  1  0.67198800  0.03889600  0.53905200  1
  O  O186  1  0.67198800  0.96110400  0.03905200  1
  O  O187  1  0.82801200  0.46110400  0.46094800  1
  O  O188  1  0.89966700  0.79594900  0.88447100  1
  O  O189  1  0.60033300  0.29594900  0.61552900  1
  O  O190  1  0.60033300  0.70405100  0.11552900  1
  O  O191  1  0.89966700  0.20405100  0.38447100  1
  O  O192  1  0.61285000  0.12147600  0.79482600  1
  O  O193  1  0.88715000  0.62147600  0.70517400  1
  O  O194  1  0.88715000  0.37852400  0.20517400  1
  O  O195  1  0.61285000  0.87852400  0.29482600  1
  O  O196  1  0.48692650  0.76983950  0.97578900  1
  O  O197  1  0.01307350  0.26983950  0.52421100  1
  O  O198  1  0.01307350  0.73016050  0.02421100  1
  O  O199  1  0.48692650  0.23016050  0.47578900  1
  O  O200  1  0.46421250  0.76631350  0.81044800  1
  O  O201  1  0.03578750  0.26631350  0.68955200  1
  O  O202  1  0.03578750  0.73368650  0.18955200  1
  O  O203  1  0.46421250  0.23368650  0.31044800  1
  O  O204  1  0.38347100  0.62665400  0.89472700  1
  O  O205  1  0.11652900  0.12665400  0.60527300  1
  O  O206  1  0.11652900  0.87334600  0.10527300  1
  O  O207  1  0.38347100  0.37334600  0.39472700  1
  O  O208  1  0.12354800  0.10049900  0.77295900  1
  O  O209  1  0.37645200  0.60049900  0.72704100  1
  O  O210  1  0.37645200  0.39950100  0.22704100  1
  O  O211  1  0.12354800  0.89950100  0.27295900  1
  O  O212  1  0.33458800  0.83792300  0.79259500  1
  O  O213  1  0.16541200  0.33792300  0.70740500  1
  O  O214  1  0.16541200  0.66207700  0.20740500  1
  O  O215  1  0.33458800  0.16207700  0.29259500  1
  O  O216  1  0.20607600  0.89065900  0.76192800  1
  O  O217  1  0.29392400  0.39065900  0.73807200  1
  O  O218  1  0.29392400  0.60934100  0.23807200  1
  O  O219  1  0.20607600  0.10934100  0.26192800  1
  O  O220  1  0.25300950  0.15448050  0.78988600  1
  O  O221  1  0.24699050  0.65448050  0.71011400  1
  O  O222  1  0.24699050  0.34551950  0.21011400  1
  O  O223  1  0.25300950  0.84551950  0.28988600  1
  O  O224  1  0.20018750  0.01200650  0.90825200  1
  O  O225  1  0.29981250  0.51200650  0.59174800  1
  O  O226  1  0.29981250  0.48799350  0.09174800  1
  O  O227  1  0.20018750  0.98799350  0.40825200  1
  O  O228  1  0.07857750  0.36409350  0.89145000  1
  O  O229  1  0.42142250  0.86409350  0.60855000  1
  O  O230  1  0.42142250  0.13590650  0.10855000  1
  O  O231  1  0.07857750  0.63590650  0.39145000  1
  O  O232  1  0.07259150  0.90730150  0.94274700  1
  O  O233  1  0.42740850  0.40730150  0.55725300  1
  O  O234  1  0.42740850  0.59269850  0.05725300  1
  O  O235  1  0.07259150  0.09269850  0.44274700  1
  O  O236  1  0.46863600  0.01244900  0.88751000  1
  O  O237  1  0.03136400  0.51244900  0.61249000  1
  O  O238  1  0.03136400  0.48755100  0.11249000  1
  O  O239  1  0.46863600  0.98755100  0.38751000  1
  O  O240  1  0.24671150  0.54286650  0.93472400  1
  O  O241  1  0.25328850  0.04286650  0.56527600  1
  O  O242  1  0.25328850  0.95713350  0.06527600  1
  O  O243  1  0.24671150  0.45713350  0.43472400  1
  O  O244  1  0.32801200  0.03889600  0.96094800  1
  O  O245  1  0.17198800  0.53889600  0.53905200  1
  O  O246  1  0.17198800  0.46110400  0.03905200  1
  O  O247  1  0.32801200  0.96110400  0.46094800  1
  O  O248  1  0.39966700  0.29594900  0.88447100  1
  O  O249  1  0.10033300  0.79594900  0.61552900  1
  O  O250  1  0.10033300  0.20405100  0.11552900  1
  O  O251  1  0.39966700  0.70405100  0.38447100  1
  O  O252  1  0.11285000  0.62147600  0.79482600  1
  O  O253  1  0.38715000  0.12147600  0.70517400  1
  O  O254  1  0.38715000  0.87852400  0.20517400  1
  O  O255  1  0.11285000  0.37852400  0.29482600  1
