# generated using pymatgen
data_LiAgF2
_symmetry_space_group_name_H-M   'P 1'
_cell_length_a   5.70300200
_cell_length_b   11.45183800
_cell_length_c   6.71204257
_cell_angle_alpha   90.00000000
_cell_angle_beta   91.00842407
_cell_angle_gamma   90.00000000
_symmetry_Int_Tables_number   1
_chemical_formula_structural   LiAgF2
_chemical_formula_sum   'Li8 Ag8 F16'
_cell_volume   438.29463295
_cell_formula_units_Z   8
loop_
 _symmetry_equiv_pos_site_id
 _symmetry_equiv_pos_as_xyz
  1  'x, y, z'
loop_
 _atom_site_type_symbol
 _atom_site_label
 _atom_site_symmetry_multiplicity
 _atom_site_fract_x
 _atom_site_fract_y
 _atom_site_fract_z
 _atom_site_occupancy
  Li  Li0  1  0.25894200  0.68084800  0.35809100  1
  Li  Li1  1  0.75894200  0.81915200  0.85809100  1
  Li  Li2  1  0.74105800  0.68084800  0.14190900  1
  Li  Li3  1  0.24105800  0.81915200  0.64190900  1
  Li  Li4  1  0.75894200  0.18084800  0.35809100  1
  Li  Li5  1  0.25894200  0.31915200  0.85809100  1
  Li  Li6  1  0.24105800  0.18084800  0.14190900  1
  Li  Li7  1  0.74105800  0.31915200  0.64190900  1
  Ag  Ag8  1  0.23104900  0.56674800  0.94334300  1
  Ag  Ag9  1  0.76895100  0.56674800  0.55665700  1
  Ag  Ag10  1  0.73104900  0.93325200  0.44334300  1
  Ag  Ag11  1  0.26895100  0.93325200  0.05665700  1
  Ag  Ag12  1  0.73104900  0.06674800  0.94334300  1
  Ag  Ag13  1  0.26895100  0.06674800  0.55665700  1
  Ag  Ag14  1  0.23104900  0.43325200  0.44334300  1
  Ag  Ag15  1  0.76895100  0.43325200  0.05665700  1
  F  F16  1  0.23149450  0.65227150  0.63218900  1
  F  F17  1  0.00000000  0.90282300  0.75000000  1
  F  F18  1  0.00000000  0.60397800  0.25000000  1
  F  F19  1  0.76850550  0.65227150  0.86781100  1
  F  F20  1  0.73149450  0.84772850  0.13218900  1
  F  F21  1  0.50000000  0.89602200  0.75000000  1
  F  F22  1  0.50000000  0.59717700  0.25000000  1
  F  F23  1  0.26850550  0.84772850  0.36781100  1
  F  F24  1  0.73149450  0.15227150  0.63218900  1
  F  F25  1  0.50000000  0.40282300  0.75000000  1
  F  F26  1  0.50000000  0.10397800  0.25000000  1
  F  F27  1  0.26850550  0.15227150  0.86781100  1
  F  F28  1  0.23149450  0.34772850  0.13218900  1
  F  F29  1  0.00000000  0.39602200  0.75000000  1
  F  F30  1  0.00000000  0.09717700  0.25000000  1
  F  F31  1  0.76850550  0.34772850  0.36781100  1
