# generated using pymatgen
data_LiZn6Fe17O32
_symmetry_space_group_name_H-M   'P 1'
_cell_length_a   10.47050200
_cell_length_b   6.05440400
_cell_length_c   19.92422127
_cell_angle_alpha   90.00000000
_cell_angle_beta   99.87826927
_cell_angle_gamma   90.00000000
_symmetry_Int_Tables_number   1
_chemical_formula_structural   LiZn6Fe17O32
_chemical_formula_sum   'Li2 Zn12 Fe34 O64'
_cell_volume   1244.32378779
_cell_formula_units_Z   2
loop_
 _symmetry_equiv_pos_site_id
 _symmetry_equiv_pos_as_xyz
  1  'x, y, z'
loop_
 _atom_site_type_symbol
 _atom_site_label
 _atom_site_symmetry_multiplicity
 _atom_site_fract_x
 _atom_site_fract_y
 _atom_site_fract_z
 _atom_site_occupancy
  Li  Li0  1  0.93694000  0.00000000  0.81083800  1
  Li  Li1  1  0.43694000  0.50000000  0.81083800  1
  Zn  Zn2  1  0.34216300  0.00000000  0.02972400  1
  Zn  Zn3  1  0.21891200  0.00000000  0.15583200  1
  Zn  Zn4  1  0.84481100  0.00000000  0.53299700  1
  Zn  Zn5  1  0.96882100  0.00000000  0.40677400  1
  Zn  Zn6  1  0.09394500  0.00000000  0.28138600  1
  Zn  Zn7  1  0.72115900  0.00000000  0.65833800  1
  Zn  Zn8  1  0.84216300  0.50000000  0.02972400  1
  Zn  Zn9  1  0.71891200  0.50000000  0.15583200  1
  Zn  Zn10  1  0.34481100  0.50000000  0.53299700  1
  Zn  Zn11  1  0.46882100  0.50000000  0.40677400  1
  Zn  Zn12  1  0.59394500  0.50000000  0.28138600  1
  Zn  Zn13  1  0.22115900  0.50000000  0.65833800  1
  Fe  Fe14  1  0.69277000  0.00000000  0.06555000  1
  Fe  Fe15  1  0.74468800  0.00000000  0.24832900  1
  Fe  Fe16  1  0.99797500  0.00000000  0.99635500  1
  Fe  Fe17  1  0.71914150  0.75024950  0.40676600  1
  Fe  Fe18  1  0.71914150  0.24975050  0.40676600  1
  Fe  Fe19  1  0.46878500  0.25000500  0.15589000  1
  Fe  Fe20  1  0.46878500  0.74999500  0.15589000  1
  Fe  Fe21  1  0.44272400  0.00000000  0.31455900  1
  Fe  Fe22  1  0.49584000  0.00000000  0.50053900  1
  Fe  Fe23  1  0.46875450  0.25426550  0.65855300  1
  Fe  Fe24  1  0.46875450  0.74573450  0.65855300  1
  Fe  Fe25  1  0.19313700  0.00000000  0.56346700  1
  Fe  Fe26  1  0.46991700  0.00000000  0.90375500  1
  Fe  Fe27  1  0.59320500  0.00000000  0.78378300  1
  Fe  Fe28  1  0.24530600  0.00000000  0.74957300  1
  Fe  Fe29  1  0.71565050  0.24535150  0.90324700  1
  Fe  Fe30  1  0.71565050  0.75464850  0.90324700  1
  Fe  Fe31  1  0.19277000  0.50000000  0.06555000  1
  Fe  Fe32  1  0.24468800  0.50000000  0.24832900  1
  Fe  Fe33  1  0.49797500  0.50000000  0.99635500  1
  Fe  Fe34  1  0.21914150  0.25024950  0.40676600  1
  Fe  Fe35  1  0.21914150  0.74975050  0.40676600  1
  Fe  Fe36  1  0.96878500  0.75000500  0.15589000  1
  Fe  Fe37  1  0.96878500  0.24999500  0.15589000  1
  Fe  Fe38  1  0.94272400  0.50000000  0.31455900  1
  Fe  Fe39  1  0.99584000  0.50000000  0.50053900  1
  Fe  Fe40  1  0.96875450  0.75426550  0.65855300  1
  Fe  Fe41  1  0.96875450  0.24573450  0.65855300  1
  Fe  Fe42  1  0.69313700  0.50000000  0.56346700  1
  Fe  Fe43  1  0.96991700  0.50000000  0.90375500  1
  Fe  Fe44  1  0.09320500  0.50000000  0.78378300  1
  Fe  Fe45  1  0.74530600  0.50000000  0.74957300  1
  Fe  Fe46  1  0.21565050  0.74535150  0.90324700  1
  Fe  Fe47  1  0.21565050  0.25464850  0.90324700  1
  O  O48  1  0.64680600  0.25668700  0.21460600  1
  O  O49  1  0.64680600  0.74331300  0.21460600  1
  O  O50  1  0.29117050  0.24218050  0.09583400  1
  O  O51  1  0.29117050  0.75781950  0.09583400  1
  O  O52  1  0.52594400  0.00000000  0.09662100  1
  O  O53  1  0.27698500  0.00000000  0.34730800  1
  O  O54  1  0.41018800  0.00000000  0.21424400  1
  O  O55  1  0.77758800  0.00000000  0.34761200  1
  O  O56  1  0.90974900  0.00000000  0.21391700  1
  O  O57  1  0.02685800  0.00000000  0.09599000  1
  O  O58  1  0.39712950  0.25627650  0.46624000  1
  O  O59  1  0.39712950  0.74372350  0.46624000  1
  O  O60  1  0.54080750  0.74314950  0.34649500  1
  O  O61  1  0.54080750  0.25685050  0.34649500  1
  O  O62  1  0.90881500  0.00000000  0.70966000  1
  O  O63  1  0.15950400  0.00000000  0.46365600  1
  O  O64  1  0.03099000  0.00000000  0.59880500  1
  O  O65  1  0.53027300  0.00000000  0.60015700  1
  O  O66  1  0.66044100  0.00000000  0.46531400  1
  O  O67  1  0.41691300  0.00000000  0.72073500  1
  O  O68  1  0.64611800  0.76456800  0.72224700  1
  O  O69  1  0.64611800  0.23543200  0.72224700  1
  O  O70  1  0.29082000  0.74724600  0.59752100  1
  O  O71  1  0.54087200  0.22176500  0.84568900  1
  O  O72  1  0.54087200  0.77823500  0.84568900  1
  O  O73  1  0.29082000  0.25275400  0.59752100  1
  O  O74  1  0.76127700  0.00000000  0.84482300  1
  O  O75  1  0.65577000  0.00000000  0.96543000  1
  O  O76  1  0.28303900  0.00000000  0.84927700  1
  O  O77  1  0.16124600  0.00000000  0.96370800  1
  O  O78  1  0.40000950  0.24011050  0.96238200  1
  O  O79  1  0.40000950  0.75988950  0.96238200  1
  O  O80  1  0.14680600  0.75668700  0.21460600  1
  O  O81  1  0.14680600  0.24331300  0.21460600  1
  O  O82  1  0.79117050  0.74218050  0.09583400  1
  O  O83  1  0.79117050  0.25781950  0.09583400  1
  O  O84  1  0.02594400  0.50000000  0.09662100  1
  O  O85  1  0.77698500  0.50000000  0.34730800  1
  O  O86  1  0.91018800  0.50000000  0.21424400  1
  O  O87  1  0.27758800  0.50000000  0.34761200  1
  O  O88  1  0.40974900  0.50000000  0.21391700  1
  O  O89  1  0.52685800  0.50000000  0.09599000  1
  O  O90  1  0.89712950  0.75627650  0.46624000  1
  O  O91  1  0.89712950  0.24372350  0.46624000  1
  O  O92  1  0.04080750  0.24314950  0.34649500  1
  O  O93  1  0.04080750  0.75685050  0.34649500  1
  O  O94  1  0.40881500  0.50000000  0.70966000  1
  O  O95  1  0.65950400  0.50000000  0.46365600  1
  O  O96  1  0.53099000  0.50000000  0.59880500  1
  O  O97  1  0.03027300  0.50000000  0.60015700  1
  O  O98  1  0.16044100  0.50000000  0.46531400  1
  O  O99  1  0.91691300  0.50000000  0.72073500  1
  O  O100  1  0.14611800  0.26456800  0.72224700  1
  O  O101  1  0.14611800  0.73543200  0.72224700  1
  O  O102  1  0.79082000  0.24724600  0.59752100  1
  O  O103  1  0.04087200  0.72176500  0.84568900  1
  O  O104  1  0.04087200  0.27823500  0.84568900  1
  O  O105  1  0.79082000  0.75275400  0.59752100  1
  O  O106  1  0.26127700  0.50000000  0.84482300  1
  O  O107  1  0.15577000  0.50000000  0.96543000  1
  O  O108  1  0.78303900  0.50000000  0.84927700  1
  O  O109  1  0.66124600  0.50000000  0.96370800  1
  O  O110  1  0.90000950  0.74011050  0.96238200  1
  O  O111  1  0.90000950  0.25988950  0.96238200  1
