# generated using pymatgen
data_Li3Bi(PO4)2
_symmetry_space_group_name_H-M   'P 1'
_cell_length_a   9.25864400
_cell_length_b   4.75549800
_cell_length_c   15.14421391
_cell_angle_alpha   90.00000000
_cell_angle_beta   97.37744152
_cell_angle_gamma   90.00000000
_symmetry_Int_Tables_number   1
_chemical_formula_structural   Li3Bi(PO4)2
_chemical_formula_sum   'Li12 Bi4 P8 O32'
_cell_volume   661.27176866
_cell_formula_units_Z   4
loop_
 _symmetry_equiv_pos_site_id
 _symmetry_equiv_pos_as_xyz
  1  'x, y, z'
loop_
 _atom_site_type_symbol
 _atom_site_label
 _atom_site_symmetry_multiplicity
 _atom_site_fract_x
 _atom_site_fract_y
 _atom_site_fract_z
 _atom_site_occupancy
  Li  Li0  1  0.82379050  0.47007850  0.82032600  1
  Li  Li1  1  0.82379050  0.52992150  0.32032600  1
  Li  Li2  1  0.67620950  0.97007850  0.67967400  1
  Li  Li3  1  0.67620950  0.02992150  0.17967400  1
  Li  Li4  1  0.00000000  0.95084700  0.75000000  1
  Li  Li5  1  0.00000000  0.04915300  0.25000000  1
  Li  Li6  1  0.32379050  0.97007850  0.82032600  1
  Li  Li7  1  0.32379050  0.02992150  0.32032600  1
  Li  Li8  1  0.17620950  0.47007850  0.67967400  1
  Li  Li9  1  0.17620950  0.52992150  0.17967400  1
  Li  Li10  1  0.50000000  0.45084700  0.75000000  1
  Li  Li11  1  0.50000000  0.54915300  0.25000000  1
  Bi  Bi12  1  0.00000000  0.00000000  0.00000000  1
  Bi  Bi13  1  0.00000000  0.00000000  0.50000000  1
  Bi  Bi14  1  0.50000000  0.50000000  0.00000000  1
  Bi  Bi15  1  0.50000000  0.50000000  0.50000000  1
  P  P16  1  0.84387000  0.46771600  0.62595700  1
  P  P17  1  0.84387000  0.53228400  0.12595700  1
  P  P18  1  0.65613000  0.96771600  0.87404300  1
  P  P19  1  0.65613000  0.03228400  0.37404300  1
  P  P20  1  0.34387000  0.96771600  0.62595700  1
  P  P21  1  0.34387000  0.03228400  0.12595700  1
  P  P22  1  0.15613000  0.46771600  0.87404300  1
  P  P23  1  0.15613000  0.53228400  0.37404300  1
  O  O24  1  0.96927900  0.24320600  0.64767600  1
  O  O25  1  0.96927900  0.75679400  0.14767600  1
  O  O26  1  0.87327850  0.61998650  0.54073700  1
  O  O27  1  0.87327850  0.38001350  0.04073700  1
  O  O28  1  0.83822300  0.67292800  0.70517100  1
  O  O29  1  0.80531400  0.81062900  0.89278800  1
  O  O30  1  0.83822300  0.32707200  0.20517100  1
  O  O31  1  0.80531400  0.18937100  0.39278800  1
  O  O32  1  0.69468600  0.31062900  0.60721200  1
  O  O33  1  0.66177700  0.17292800  0.79482900  1
  O  O34  1  0.69468600  0.68937100  0.10721200  1
  O  O35  1  0.66177700  0.82707200  0.29482900  1
  O  O36  1  0.62672150  0.11998650  0.95926300  1
  O  O37  1  0.62672150  0.88001350  0.45926300  1
  O  O38  1  0.53072100  0.74320600  0.85232400  1
  O  O39  1  0.53072100  0.25679400  0.35232400  1
  O  O40  1  0.46927900  0.74320600  0.64767600  1
  O  O41  1  0.46927900  0.25679400  0.14767600  1
  O  O42  1  0.37327850  0.11998650  0.54073700  1
  O  O43  1  0.37327850  0.88001350  0.04073700  1
  O  O44  1  0.33822300  0.17292800  0.70517100  1
  O  O45  1  0.30531400  0.31062900  0.89278800  1
  O  O46  1  0.33822300  0.82707200  0.20517100  1
  O  O47  1  0.30531400  0.68937100  0.39278800  1
  O  O48  1  0.19468600  0.81062900  0.60721200  1
  O  O49  1  0.16177700  0.67292800  0.79482900  1
  O  O50  1  0.19468600  0.18937100  0.10721200  1
  O  O51  1  0.16177700  0.32707200  0.29482900  1
  O  O52  1  0.12672150  0.61998650  0.95926300  1
  O  O53  1  0.12672150  0.38001350  0.45926300  1
  O  O54  1  0.03072100  0.24320600  0.85232400  1
  O  O55  1  0.03072100  0.75679400  0.35232400  1
