# generated using pymatgen
data_LiFe3P3(HO6)2
_symmetry_space_group_name_H-M   'P 1'
_cell_length_a   11.88430000
_cell_length_b   12.61260600
_cell_length_c   6.56650981
_cell_angle_alpha   90.00000000
_cell_angle_beta   114.17750606
_cell_angle_gamma   90.00000000
_symmetry_Int_Tables_number   1
_chemical_formula_structural   LiFe3P3(HO6)2
_chemical_formula_sum   'Li4 Fe12 P12 H8 O48'
_cell_volume   897.92828676
_cell_formula_units_Z   4
loop_
 _symmetry_equiv_pos_site_id
 _symmetry_equiv_pos_as_xyz
  1  'x, y, z'
loop_
 _atom_site_type_symbol
 _atom_site_label
 _atom_site_symmetry_multiplicity
 _atom_site_fract_x
 _atom_site_fract_y
 _atom_site_fract_z
 _atom_site_occupancy
  Li  Li0  1  0.50000000  0.49869900  0.75000000  1
  Li  Li1  1  0.50000000  0.50130100  0.25000000  1
  Li  Li2  1  0.00000000  0.99869900  0.75000000  1
  Li  Li3  1  0.00000000  0.00130100  0.25000000  1
  Fe  Fe4  1  0.20855200  0.83677400  0.62003200  1
  Fe  Fe5  1  0.20855200  0.16322600  0.12003200  1
  Fe  Fe6  1  0.50000000  0.21189300  0.75000000  1
  Fe  Fe7  1  0.50000000  0.78810700  0.25000000  1
  Fe  Fe8  1  0.79144800  0.83677400  0.87996800  1
  Fe  Fe9  1  0.79144800  0.16322600  0.37996800  1
  Fe  Fe10  1  0.70855200  0.33677400  0.62003200  1
  Fe  Fe11  1  0.70855200  0.66322600  0.12003200  1
  Fe  Fe12  1  0.00000000  0.71189300  0.75000000  1
  Fe  Fe13  1  0.00000000  0.28810700  0.25000000  1
  Fe  Fe14  1  0.29144800  0.33677400  0.87996800  1
  Fe  Fe15  1  0.29144800  0.66322600  0.37996800  1
  P  P16  1  0.20761750  0.10845450  0.60355100  1
  P  P17  1  0.20761750  0.89154550  0.10355100  1
  P  P18  1  0.50000000  0.82265400  0.75000000  1
  P  P19  1  0.50000000  0.17734600  0.25000000  1
  P  P20  1  0.79238250  0.10845450  0.89644900  1
  P  P21  1  0.79238250  0.89154550  0.39644900  1
  P  P22  1  0.70761750  0.60845450  0.60355100  1
  P  P23  1  0.70761750  0.39154550  0.10355100  1
  P  P24  1  0.00000000  0.32265400  0.75000000  1
  P  P25  1  0.00000000  0.67734600  0.25000000  1
  P  P26  1  0.29238250  0.60845450  0.89644900  1
  P  P27  1  0.29238250  0.39154550  0.39644900  1
  H  H28  1  0.37501650  0.00471350  0.68723200  1
  H  H29  1  0.37501650  0.99528650  0.18723200  1
  H  H30  1  0.62498350  0.00471350  0.81276800  1
  H  H31  1  0.62498350  0.99528650  0.31276800  1
  H  H32  1  0.87501650  0.50471350  0.68723200  1
  H  H33  1  0.87501650  0.49528650  0.18723200  1
  H  H34  1  0.12498350  0.50471350  0.81276800  1
  H  H35  1  0.12498350  0.49528650  0.31276800  1
  O  O36  1  0.13758900  0.00280200  0.57609400  1
  O  O37  1  0.20812800  0.17551400  0.79801600  1
  O  O38  1  0.13758900  0.99719800  0.07609400  1
  O  O39  1  0.20812800  0.82448600  0.29801600  1
  O  O40  1  0.34971700  0.08588100  0.65053500  1
  O  O41  1  0.34878550  0.32880450  0.61905800  1
  O  O42  1  0.38968850  0.89462750  0.73090000  1
  O  O43  1  0.34971700  0.91411900  0.15053500  1
  O  O44  1  0.53488350  0.75343750  0.96412400  1
  O  O45  1  0.34878550  0.67119550  0.11905800  1
  O  O46  1  0.46511650  0.75343750  0.53587600  1
  O  O47  1  0.38968850  0.10537250  0.23090000  1
  O  O48  1  0.61031150  0.89462750  0.76910000  1
  O  O49  1  0.53488350  0.24656250  0.46412400  1
  O  O50  1  0.65121450  0.32880450  0.88094200  1
  O  O51  1  0.46511650  0.24656250  0.03587600  1
  O  O52  1  0.65028300  0.08588100  0.84946500  1
  O  O53  1  0.61031150  0.10537250  0.26910000  1
  O  O54  1  0.65121450  0.67119550  0.38094200  1
  O  O55  1  0.65028300  0.91411900  0.34946500  1
  O  O56  1  0.79187200  0.17551400  0.70198400  1
  O  O57  1  0.86241100  0.00280200  0.92390600  1
  O  O58  1  0.79187200  0.82448600  0.20198400  1
  O  O59  1  0.86241100  0.99719800  0.42390600  1
  O  O60  1  0.63758900  0.50280200  0.57609400  1
  O  O61  1  0.70812800  0.67551400  0.79801600  1
  O  O62  1  0.63758900  0.49719800  0.07609400  1
  O  O63  1  0.70812800  0.32448600  0.29801600  1
  O  O64  1  0.84971700  0.58588100  0.65053500  1
  O  O65  1  0.84878550  0.82880450  0.61905800  1
  O  O66  1  0.88968850  0.39462750  0.73090000  1
  O  O67  1  0.84971700  0.41411900  0.15053500  1
  O  O68  1  0.03488350  0.25343750  0.96412400  1
  O  O69  1  0.84878550  0.17119550  0.11905800  1
  O  O70  1  0.96511650  0.25343750  0.53587600  1
  O  O71  1  0.88968850  0.60537250  0.23090000  1
  O  O72  1  0.11031150  0.39462750  0.76910000  1
  O  O73  1  0.03488350  0.74656250  0.46412400  1
  O  O74  1  0.15121450  0.82880450  0.88094200  1
  O  O75  1  0.96511650  0.74656250  0.03587600  1
  O  O76  1  0.15028300  0.58588100  0.84946500  1
  O  O77  1  0.11031150  0.60537250  0.26910000  1
  O  O78  1  0.15121450  0.17119550  0.38094200  1
  O  O79  1  0.15028300  0.41411900  0.34946500  1
  O  O80  1  0.29187200  0.67551400  0.70198400  1
  O  O81  1  0.36241100  0.50280200  0.92390600  1
  O  O82  1  0.29187200  0.32448600  0.20198400  1
  O  O83  1  0.36241100  0.49719800  0.42390600  1
