# generated using pymatgen
data_Ti3Cu2Sb(PO4)6
_symmetry_space_group_name_H-M   'P 1'
_cell_length_a   8.72130192
_cell_length_b   8.72130192
_cell_length_c   21.38656132
_cell_angle_alpha   90.00000000
_cell_angle_beta   90.00000000
_cell_angle_gamma   120.00000000
_symmetry_Int_Tables_number   1
_chemical_formula_structural   Ti3Cu2Sb(PO4)6
_chemical_formula_sum   'Ti9 Cu6 Sb3 P18 O72'
_cell_volume   1408.75099601
_cell_formula_units_Z   3
loop_
 _symmetry_equiv_pos_site_id
 _symmetry_equiv_pos_as_xyz
  1  'x, y, z'
loop_
 _atom_site_type_symbol
 _atom_site_label
 _atom_site_symmetry_multiplicity
 _atom_site_fract_x
 _atom_site_fract_y
 _atom_site_fract_z
 _atom_site_occupancy
  Ti  Ti0  1  0.00000000  0.00000000  0.14205000  1
  Ti  Ti1  1  0.33333333  0.66666667  0.02342067  1
  Ti  Ti2  1  0.33333333  0.66666667  0.30833567  1
  Ti  Ti3  1  0.66666667  0.33333333  0.47538333  1
  Ti  Ti4  1  0.00000000  0.00000000  0.35675400  1
  Ti  Ti5  1  0.00000000  0.00000000  0.64166900  1
  Ti  Ti6  1  0.33333333  0.66666667  0.80871667  1
  Ti  Ti7  1  0.66666667  0.33333333  0.69008733  1
  Ti  Ti8  1  0.66666667  0.33333333  0.97500233  1
  Cu  Cu9  1  0.00000000  0.00000000  0.00594400  1
  Cu  Cu10  1  0.33333333  0.66666667  0.16652367  1
  Cu  Cu11  1  0.66666667  0.33333333  0.33927733  1
  Cu  Cu12  1  0.00000000  0.00000000  0.49985700  1
  Cu  Cu13  1  0.33333333  0.66666667  0.67261067  1
  Cu  Cu14  1  0.66666667  0.33333333  0.83319033  1
  Sb  Sb15  1  0.66666667  0.33333333  0.19056133  1
  Sb  Sb16  1  0.33333333  0.66666667  0.52389467  1
  Sb  Sb17  1  0.00000000  0.00000000  0.85722800  1
  P  P18  1  0.37169333  0.03809667  0.08147467  1
  P  P19  1  0.66640333  0.62830667  0.08147467  1
  P  P20  1  0.71084733  0.99606367  0.25043067  1
  P  P21  1  0.00393633  0.71478367  0.25043067  1
  P  P22  1  0.28521633  0.28915267  0.25043067  1
  P  P23  1  0.96190333  0.33359667  0.08147467  1
  P  P24  1  0.03836000  0.37143000  0.41480800  1
  P  P25  1  0.33307000  0.96164000  0.41480800  1
  P  P26  1  0.37751400  0.32939700  0.58376400  1
  P  P27  1  0.67060300  0.04811700  0.58376400  1
  P  P28  1  0.95188300  0.62248600  0.58376400  1
  P  P29  1  0.62857000  0.66693000  0.41480800  1
  P  P30  1  0.70502667  0.70476333  0.74814133  1
  P  P31  1  0.99973667  0.29497333  0.74814133  1
  P  P32  1  0.04418067  0.66273033  0.91709733  1
  P  P33  1  0.33726967  0.38145033  0.91709733  1
  P  P34  1  0.61854967  0.95581933  0.91709733  1
  P  P35  1  0.29523667  0.00026333  0.74814133  1
  O  O36  1  0.18200167  0.18570533  0.30819933  1
  O  O37  1  0.81429467  0.99629633  0.30819933  1
  O  O38  1  0.18505867  0.01993533  0.08008333  1
  O  O39  1  0.00370367  0.81799833  0.30819933  1
  O  O40  1  0.46259767  0.11941233  0.14366033  1
  O  O41  1  0.35007367  0.85092333  0.08084433  1
  O  O42  1  0.83487667  0.81494133  0.08008333  1
  O  O43  1  0.50084967  0.64992633  0.08084433  1
  O  O44  1  0.80975800  0.99506200  0.19061900  1
  O  O45  1  0.14907667  0.49915033  0.08084433  1
  O  O46  1  0.69341200  0.16444500  0.25695600  1
  O  O47  1  0.00493800  0.81469600  0.19061900  1
  O  O48  1  0.65681467  0.53740233  0.14366033  1
  O  O49  1  0.98006467  0.16512333  0.08008333  1
  O  O50  1  0.52319833  0.82940067  0.24859667  1
  O  O51  1  0.88058767  0.34318533  0.14366033  1
  O  O52  1  0.17059933  0.69379767  0.24859667  1
  O  O53  1  0.83555500  0.52896700  0.25695600  1
  O  O54  1  0.30620233  0.47680167  0.24859667  1
  O  O55  1  0.18530400  0.19024200  0.19061900  1
  O  O56  1  0.67291567  0.52269933  0.02463433  1
  O  O57  1  0.47103300  0.30658800  0.25695600  1
  O  O58  1  0.84978367  0.32708433  0.02463433  1
  O  O59  1  0.47730067  0.15021633  0.02463433  1
  O  O60  1  0.84866833  0.51903867  0.64153267  1
  O  O61  1  0.48096133  0.32962967  0.64153267  1
  O  O62  1  0.85172533  0.35326867  0.41341667  1
  O  O63  1  0.67037033  0.15133167  0.64153267  1
  O  O64  1  0.12926433  0.45274567  0.47699367  1
  O  O65  1  0.01674033  0.18425667  0.41417767  1
  O  O66  1  0.50154333  0.14827467  0.41341667  1
  O  O67  1  0.16751633  0.98325967  0.41417767  1
  O  O68  1  0.47642467  0.32839533  0.52395233  1
  O  O69  1  0.81574333  0.83248367  0.41417767  1
  O  O70  1  0.36007867  0.49777833  0.59028933  1
  O  O71  1  0.67160467  0.14802933  0.52395233  1
  O  O72  1  0.32348133  0.87073567  0.47699367  1
  O  O73  1  0.64673133  0.49845667  0.41341667  1
  O  O74  1  0.18986500  0.16273400  0.58193000  1
  O  O75  1  0.54725433  0.67651867  0.47699367  1
  O  O76  1  0.83726600  0.02713100  0.58193000  1
  O  O77  1  0.50222167  0.86230033  0.59028933  1
  O  O78  1  0.97286900  0.81013500  0.58193000  1
  O  O79  1  0.85197067  0.52357533  0.52395233  1
  O  O80  1  0.33958233  0.85603267  0.35796767  1
  O  O81  1  0.13769967  0.63992133  0.59028933  1
  O  O82  1  0.51645033  0.66041767  0.35796767  1
  O  O83  1  0.14396733  0.48354967  0.35796767  1
  O  O84  1  0.51533500  0.85237200  0.97486600  1
  O  O85  1  0.14762800  0.66296300  0.97486600  1
  O  O86  1  0.51839200  0.68660200  0.74675000  1
  O  O87  1  0.33703700  0.48466500  0.97486600  1
  O  O88  1  0.79593100  0.78607900  0.81032700  1
  O  O89  1  0.68340700  0.51759000  0.74751100  1
  O  O90  1  0.16821000  0.48160800  0.74675000  1
  O  O91  1  0.83418300  0.31659300  0.74751100  1
  O  O92  1  0.14309133  0.66172867  0.85728567  1
  O  O93  1  0.48241000  0.16581700  0.74751100  1
  O  O94  1  0.02674533  0.83111167  0.92362267  1
  O  O95  1  0.33827133  0.48136267  0.85728567  1
  O  O96  1  0.99014800  0.20406900  0.81032700  1
  O  O97  1  0.31339800  0.83179000  0.74675000  1
  O  O98  1  0.85653167  0.49606733  0.91526333  1
  O  O99  1  0.21392100  0.00985200  0.81032700  1
  O  O100  1  0.50393267  0.36046433  0.91526333  1
  O  O101  1  0.16888833  0.19563367  0.92362267  1
  O  O102  1  0.63953567  0.14346833  0.91526333  1
  O  O103  1  0.51863733  0.85690867  0.85728567  1
  O  O104  1  0.00624900  0.18936600  0.69130100  1
  O  O105  1  0.80436633  0.97325467  0.92362267  1
  O  O106  1  0.18311700  0.99375100  0.69130100  1
  O  O107  1  0.81063400  0.81688300  0.69130100  1
