# generated using pymatgen
data_DyInO3
_symmetry_space_group_name_H-M   'P 1'
_cell_length_a   6.37222406
_cell_length_b   6.37222406
_cell_length_c   12.34009000
_cell_angle_alpha   90.00000000
_cell_angle_beta   90.00000000
_cell_angle_gamma   120.00000000
_symmetry_Int_Tables_number   1
_chemical_formula_structural   DyInO3
_chemical_formula_sum   'Dy6 In6 O18'
_cell_volume   433.94134913
_cell_formula_units_Z   6
loop_
 _symmetry_equiv_pos_site_id
 _symmetry_equiv_pos_as_xyz
  1  'x, y, z'
loop_
 _atom_site_type_symbol
 _atom_site_label
 _atom_site_symmetry_multiplicity
 _atom_site_fract_x
 _atom_site_fract_y
 _atom_site_fract_z
 _atom_site_occupancy
  Dy  Dy0  1  0.66666667  0.33333333  0.73013400  1
  Dy  Dy1  1  0.00000000  0.00000000  0.76555900  1
  Dy  Dy2  1  0.00000000  0.00000000  0.26555900  1
  Dy  Dy3  1  0.66666667  0.33333333  0.23013400  1
  Dy  Dy4  1  0.33333333  0.66666667  0.23013400  1
  Dy  Dy5  1  0.33333333  0.66666667  0.73013400  1
  In  In6  1  0.66643950  0.66643950  0.99590400  1
  In  In7  1  0.33356050  0.33356050  0.49590400  1
  In  In8  1  0.33356050  0.00000000  0.99590400  1
  In  In9  1  0.66643950  0.00000000  0.49590400  1
  In  In10  1  0.00000000  0.66643950  0.49590400  1
  In  In11  1  0.00000000  0.33356050  0.99590400  1
  O  O12  1  0.69444350  0.69444350  0.16836000  1
  O  O13  1  0.63698050  0.63698050  0.82549500  1
  O  O14  1  0.36301950  0.36301950  0.32549500  1
  O  O15  1  0.30555650  0.30555650  0.66836000  1
  O  O16  1  0.66666667  0.33333333  0.52707900  1
  O  O17  1  0.00000000  0.00000000  0.96202400  1
  O  O18  1  0.66666667  0.33333333  0.02707900  1
  O  O19  1  0.00000000  0.00000000  0.46202400  1
  O  O20  1  0.30555650  0.00000000  0.16836000  1
  O  O21  1  0.36301950  0.00000000  0.82549500  1
  O  O22  1  0.00000000  0.69444350  0.66836000  1
  O  O23  1  0.63698050  0.00000000  0.32549500  1
  O  O24  1  0.69444350  0.00000000  0.66836000  1
  O  O25  1  0.00000000  0.63698050  0.32549500  1
  O  O26  1  0.33333333  0.66666667  0.02707900  1
  O  O27  1  0.33333333  0.66666667  0.52707900  1
  O  O28  1  0.00000000  0.36301950  0.82549500  1
  O  O29  1  0.00000000  0.30555650  0.16836000  1
