# generated using pymatgen
data_P2Pb3O8
_symmetry_space_group_name_H-M   'P 1'
_cell_length_a   9.97489657
_cell_length_b   9.97489657
_cell_length_c   14.65975500
_cell_angle_alpha   90.00000000
_cell_angle_beta   90.00000000
_cell_angle_gamma   120.00000000
_symmetry_Int_Tables_number   1
_chemical_formula_structural   P2Pb3O8
_chemical_formula_sum   'P12 Pb18 O48'
_cell_volume   1263.20590371
_cell_formula_units_Z   6
loop_
 _symmetry_equiv_pos_site_id
 _symmetry_equiv_pos_as_xyz
  1  'x, y, z'
loop_
 _atom_site_type_symbol
 _atom_site_label
 _atom_site_symmetry_multiplicity
 _atom_site_fract_x
 _atom_site_fract_y
 _atom_site_fract_z
 _atom_site_occupancy
  P  P0  1  0.01883600  0.62604300  0.37509000  1
  P  P1  1  0.02055900  0.62751500  0.87626900  1
  P  P2  1  0.60720700  0.98116400  0.37509000  1
  P  P3  1  0.60695600  0.97944100  0.87626900  1
  P  P4  1  0.37248500  0.39304400  0.87626900  1
  P  P5  1  0.37395700  0.39279300  0.37509000  1
  P  P6  1  0.62604300  0.60720700  0.62491000  1
  P  P7  1  0.62751500  0.60695600  0.12373100  1
  P  P8  1  0.39279300  0.01883600  0.62491000  1
  P  P9  1  0.39304400  0.02055900  0.12373100  1
  P  P10  1  0.98116400  0.37395700  0.62491000  1
  P  P11  1  0.97944100  0.37248500  0.12373100  1
  Pb  Pb12  1  0.99518100  0.73904900  0.62860200  1
  Pb  Pb13  1  0.00971600  0.74539700  0.12714400  1
  Pb  Pb14  1  0.33333333  0.66666667  0.01748900  1
  Pb  Pb15  1  0.33333333  0.66666667  0.48790300  1
  Pb  Pb16  1  0.33333333  0.66666667  0.74842400  1
  Pb  Pb17  1  0.26095100  0.25613200  0.62860200  1
  Pb  Pb18  1  0.25460300  0.26431900  0.12714400  1
  Pb  Pb19  1  0.73568100  0.99028400  0.12714400  1
  Pb  Pb20  1  0.74386800  0.00481900  0.62860200  1
  Pb  Pb21  1  0.25613200  0.99518100  0.37139800  1
  Pb  Pb22  1  0.26431900  0.00971600  0.87285600  1
  Pb  Pb23  1  0.73904900  0.74386800  0.37139800  1
  Pb  Pb24  1  0.74539700  0.73568100  0.87285600  1
  Pb  Pb25  1  0.66666667  0.33333333  0.51209700  1
  Pb  Pb26  1  0.66666667  0.33333333  0.98251100  1
  Pb  Pb27  1  0.66666667  0.33333333  0.25157600  1
  Pb  Pb28  1  0.99028400  0.25460300  0.87285600  1
  Pb  Pb29  1  0.00481900  0.26095100  0.37139800  1
  O  O30  1  0.08165900  0.73426500  0.78993500  1
  O  O31  1  0.07126000  0.73685600  0.29141800  1
  O  O32  1  0.08704900  0.73663600  0.96086700  1
  O  O33  1  0.08147500  0.73434300  0.46063900  1
  O  O34  1  0.09563900  0.52214800  0.37671900  1
  O  O35  1  0.09356900  0.51919400  0.87449500  1
  O  O36  1  0.31758300  0.83887500  0.62416900  1
  O  O37  1  0.31020200  0.84233700  0.12263200  1
  O  O38  1  0.16112500  0.47870800  0.62416900  1
  O  O39  1  0.15766300  0.46786500  0.12263200  1
  O  O40  1  0.42650900  0.90436100  0.37671900  1
  O  O41  1  0.42562500  0.90643100  0.87449500  1
  O  O42  1  0.26573500  0.34739400  0.78993500  1
  O  O43  1  0.26336400  0.35041300  0.96086700  1
  O  O44  1  0.26314400  0.33440400  0.29141800  1
  O  O45  1  0.26565700  0.34713200  0.46063900  1
  O  O46  1  0.52129200  0.68241700  0.62416900  1
  O  O47  1  0.53213500  0.68979800  0.12263200  1
  O  O48  1  0.47785200  0.57349100  0.37671900  1
  O  O49  1  0.48080600  0.57437500  0.87449500  1
  O  O50  1  0.64958700  0.91295100  0.96086700  1
  O  O51  1  0.65286800  0.91852500  0.46063900  1
  O  O52  1  0.65260600  0.91834100  0.78993500  1
  O  O53  1  0.66559600  0.92874000  0.29141800  1
  O  O54  1  0.33440400  0.07126000  0.70858200  1
  O  O55  1  0.35041300  0.08704900  0.03913300  1
  O  O56  1  0.34739400  0.08165900  0.21006500  1
  O  O57  1  0.34713200  0.08147500  0.53936100  1
  O  O58  1  0.52214800  0.42650900  0.62328100  1
  O  O59  1  0.51919400  0.42562500  0.12550500  1
  O  O60  1  0.46786500  0.31020200  0.87736800  1
  O  O61  1  0.47870800  0.31758300  0.37583100  1
  O  O62  1  0.73434300  0.65286800  0.53936100  1
  O  O63  1  0.73685600  0.66559600  0.70858200  1
  O  O64  1  0.73663600  0.64958700  0.03913300  1
  O  O65  1  0.73426500  0.65260600  0.21006500  1
  O  O66  1  0.57437500  0.09356900  0.12550500  1
  O  O67  1  0.57349100  0.09563900  0.62328100  1
  O  O68  1  0.84233700  0.53213500  0.87736800  1
  O  O69  1  0.83887500  0.52129200  0.37583100  1
  O  O70  1  0.68979800  0.15766300  0.87736800  1
  O  O71  1  0.68241700  0.16112500  0.37583100  1
  O  O72  1  0.90436100  0.47785200  0.62328100  1
  O  O73  1  0.90643100  0.48080600  0.12550500  1
  O  O74  1  0.91852500  0.26565700  0.53936100  1
  O  O75  1  0.92874000  0.26314400  0.70858200  1
  O  O76  1  0.91295100  0.26336400  0.03913300  1
  O  O77  1  0.91834100  0.26573500  0.21006500  1
