# generated using pymatgen
data_Li4V2(SiO4)3
_symmetry_space_group_name_H-M   'P 1'
_cell_length_a   8.92851245
_cell_length_b   8.92851245
_cell_length_c   20.15705863
_cell_angle_alpha   90.00000000
_cell_angle_beta   90.00000000
_cell_angle_gamma   120.00000000
_symmetry_Int_Tables_number   1
_chemical_formula_structural   Li4V2(SiO4)3
_chemical_formula_sum   'Li24 V12 Si18 O72'
_cell_volume   1391.60508843
_cell_formula_units_Z   6
loop_
 _symmetry_equiv_pos_site_id
 _symmetry_equiv_pos_as_xyz
  1  'x, y, z'
loop_
 _atom_site_type_symbol
 _atom_site_label
 _atom_site_symmetry_multiplicity
 _atom_site_fract_x
 _atom_site_fract_y
 _atom_site_fract_z
 _atom_site_occupancy
  Li  Li0  1  0.25256667  0.91923333  0.08333333  1
  Li  Li1  1  0.58590000  0.00000000  0.25000000  1
  Li  Li2  1  0.33333333  0.66666667  0.16666667  1
  Li  Li3  1  0.66666667  0.74743333  0.08333333  1
  Li  Li4  1  1.00000000  0.58590000  0.25000000  1
  Li  Li5  1  0.08076667  0.33333333  0.08333333  1
  Li  Li6  1  0.00000000  0.00000000  0.00000000  1
  Li  Li7  1  0.41410000  0.41410000  0.25000000  1
  Li  Li8  1  0.91923333  0.25256667  0.41666667  1
  Li  Li9  1  0.25256667  0.33333333  0.58333333  1
  Li  Li10  1  1.00000000  0.00000000  0.50000000  1
  Li  Li11  1  0.33333333  0.08076667  0.41666667  1
  Li  Li12  1  0.66666667  0.91923333  0.58333333  1
  Li  Li13  1  0.74743333  0.66666667  0.41666667  1
  Li  Li14  1  0.66666667  0.33333333  0.33333333  1
  Li  Li15  1  0.08076667  0.74743333  0.58333333  1
  Li  Li16  1  0.58590000  0.58590000  0.75000000  1
  Li  Li17  1  0.91923333  0.66666667  0.91666667  1
  Li  Li18  1  0.66666667  0.33333333  0.83333333  1
  Li  Li19  1  0.00000000  0.41410000  0.75000000  1
  Li  Li20  1  0.33333333  0.25256667  0.91666667  1
  Li  Li21  1  0.41410000  1.00000000  0.75000000  1
  Li  Li22  1  0.33333333  0.66666667  0.66666667  1
  Li  Li23  1  0.74743333  0.08076667  0.91666667  1
  V  V24  1  0.33333333  0.66666667  0.80593467  1
  V  V25  1  0.33333333  0.66666667  0.30593467  1
  V  V26  1  0.33333333  0.66666667  0.02739867  1
  V  V27  1  0.33333333  0.66666667  0.52739867  1
  V  V28  1  0.00000000  0.00000000  0.13926800  1
  V  V29  1  0.00000000  0.00000000  0.63926800  1
  V  V30  1  1.00000000  0.00000000  0.36073200  1
  V  V31  1  0.00000000  0.00000000  0.86073200  1
  V  V32  1  0.66666667  0.33333333  0.47260133  1
  V  V33  1  0.66666667  0.33333333  0.97260133  1
  V  V34  1  0.66666667  0.33333333  0.69406533  1
  V  V35  1  0.66666667  0.33333333  0.19406533  1
  Si  Si36  1  0.95658867  0.62325533  0.08333333  1
  Si  Si37  1  0.66666667  0.04341133  0.08333333  1
  Si  Si38  1  0.28992200  1.00000000  0.25000000  1
  Si  Si39  1  0.37674467  0.33333333  0.08333333  1
  Si  Si40  1  0.00000000  0.28992200  0.25000000  1
  Si  Si41  1  0.71007800  0.71007800  0.25000000  1
  Si  Si42  1  0.62325533  0.95658867  0.41666667  1
  Si  Si43  1  0.33333333  0.37674467  0.41666667  1
  Si  Si44  1  0.95658867  0.33333333  0.58333333  1
  Si  Si45  1  0.04341133  0.66666667  0.41666667  1
  Si  Si46  1  0.66666667  0.62325533  0.58333333  1
  Si  Si47  1  0.37674467  0.04341133  0.58333333  1
  Si  Si48  1  0.28992200  0.28992200  0.75000000  1
  Si  Si49  1  0.00000000  0.71007800  0.75000000  1
  Si  Si50  1  0.62325533  0.66666667  0.91666667  1
  Si  Si51  1  0.71007800  0.00000000  0.75000000  1
  Si  Si52  1  0.33333333  0.95658867  0.91666667  1
  Si  Si53  1  0.04341133  0.37674467  0.91666667  1
  O  O54  1  0.65960933  0.14132867  0.15069667  1
  O  O55  1  0.32627600  0.85161400  0.98403000  1
  O  O56  1  0.15232667  0.64993133  0.09070733  1
  O  O57  1  0.98326467  0.81899333  0.07595933  1
  O  O58  1  0.85867133  0.51828067  0.15069667  1
  O  O59  1  0.51828067  0.85867133  0.34930333  1
  O  O60  1  0.83572867  0.01673533  0.07595933  1
  O  O61  1  0.48566000  0.16906200  0.25737400  1
  O  O62  1  0.31659800  0.83093800  0.24262600  1
  O  O63  1  0.52533800  0.67372400  0.98403000  1
  O  O64  1  0.18494733  0.99294267  0.18263667  1
  O  O65  1  0.49760467  0.84767333  0.09070733  1
  O  O66  1  0.16906200  0.48566000  0.24262600  1
  O  O67  1  0.48171933  0.34039067  0.15069667  1
  O  O68  1  0.14132867  0.65960933  0.34930333  1
  O  O69  1  0.35006867  0.50239533  0.09070733  1
  O  O70  1  0.18100667  0.16427133  0.07595933  1
  O  O71  1  0.83093800  0.31659800  0.25737400  1
  O  O72  1  0.14838600  0.47466200  0.98403000  1
  O  O73  1  0.80799533  0.81505267  0.18263667  1
  O  O74  1  0.68340200  0.51434000  0.25737400  1
  O  O75  1  0.51434000  0.68340200  0.24262600  1
  O  O76  1  0.34039067  0.48171933  0.34930333  1
  O  O77  1  0.00705733  0.19200467  0.18263667  1
  O  O78  1  0.32627600  0.47466200  0.48403000  1
  O  O79  1  0.99294267  0.18494733  0.31736333  1
  O  O80  1  0.81899333  0.98326467  0.42404067  1
  O  O81  1  0.64993133  0.15232667  0.40929267  1
  O  O82  1  0.52533800  0.85161400  0.48403000  1
  O  O83  1  0.18494733  0.19200467  0.68263667  1
  O  O84  1  0.50239533  0.35006867  0.40929267  1
  O  O85  1  0.15232667  0.50239533  0.59070733  1
  O  O86  1  0.98326467  0.16427133  0.57595933  1
  O  O87  1  0.19200467  0.00705733  0.31736333  1
  O  O88  1  0.85161400  0.32627600  0.51597000  1
  O  O89  1  0.16427133  0.18100667  0.42404067  1
  O  O90  1  0.83572867  0.81899333  0.57595933  1
  O  O91  1  0.14838600  0.67372400  0.48403000  1
  O  O92  1  0.80799533  0.99294267  0.68263667  1
  O  O93  1  0.01673533  0.83572867  0.42404067  1
  O  O94  1  0.84767333  0.49760467  0.40929267  1
  O  O95  1  0.49760467  0.64993133  0.59070733  1
  O  O96  1  0.81505267  0.80799533  0.31736333  1
  O  O97  1  0.47466200  0.14838600  0.51597000  1
  O  O98  1  0.35006867  0.84767333  0.59070733  1
  O  O99  1  0.18100667  0.01673533  0.57595933  1
  O  O100  1  0.00705733  0.81505267  0.68263667  1
  O  O101  1  0.67372400  0.52533800  0.51597000  1
  O  O102  1  0.99294267  0.80799533  0.81736333  1
  O  O103  1  0.65960933  0.51828067  0.65069667  1
  O  O104  1  0.48566000  0.31659800  0.75737400  1
  O  O105  1  0.31659800  0.48566000  0.74262600  1
  O  O106  1  0.19200467  0.18494733  0.81736333  1
  O  O107  1  0.85161400  0.52533800  0.01597000  1
  O  O108  1  0.16906200  0.68340200  0.74262600  1
  O  O109  1  0.81899333  0.83572867  0.92404067  1
  O  O110  1  0.64993133  0.49760467  0.90929267  1
  O  O111  1  0.85867133  0.34039067  0.65069667  1
  O  O112  1  0.51828067  0.65960933  0.84930333  1
  O  O113  1  0.83093800  0.51434000  0.75737400  1
  O  O114  1  0.50239533  0.15232667  0.90929267  1
  O  O115  1  0.81505267  0.00705733  0.81736333  1
  O  O116  1  0.47466200  0.32627600  0.01597000  1
  O  O117  1  0.68340200  0.16906200  0.75737400  1
  O  O118  1  0.51434000  0.83093800  0.74262600  1
  O  O119  1  0.16427133  0.98326467  0.92404067  1
  O  O120  1  0.48171933  0.14132867  0.65069667  1
  O  O121  1  0.14132867  0.48171933  0.84930333  1
  O  O122  1  0.01673533  0.18100667  0.92404067  1
  O  O123  1  0.84767333  0.35006867  0.90929267  1
  O  O124  1  0.67372400  0.14838600  0.01597000  1
  O  O125  1  0.34039067  0.85867133  0.84930333  1
