# generated using pymatgen
data_Sr2LaCl7
_symmetry_space_group_name_H-M   'P 1'
_cell_length_a   9.45398900
_cell_length_b   10.53960300
_cell_length_c   13.31078400
_cell_angle_alpha   90.00000000
_cell_angle_beta   90.00000000
_cell_angle_gamma   90.00000000
_symmetry_Int_Tables_number   1
_chemical_formula_structural   Sr2LaCl7
_chemical_formula_sum   'Sr8 La4 Cl28'
_cell_volume   1326.30369967
_cell_formula_units_Z   4
loop_
 _symmetry_equiv_pos_site_id
 _symmetry_equiv_pos_as_xyz
  1  'x, y, z'
loop_
 _atom_site_type_symbol
 _atom_site_label
 _atom_site_symmetry_multiplicity
 _atom_site_fract_x
 _atom_site_fract_y
 _atom_site_fract_z
 _atom_site_occupancy
  Sr  Sr0  1  0.25000000  0.13286100  0.25334100  1
  Sr  Sr1  1  0.75000000  0.18508800  0.08774100  1
  Sr  Sr2  1  0.25000000  0.31491200  0.58774100  1
  Sr  Sr3  1  0.75000000  0.36713900  0.75334100  1
  Sr  Sr4  1  0.25000000  0.63286100  0.24665900  1
  Sr  Sr5  1  0.75000000  0.68508800  0.41225900  1
  Sr  Sr6  1  0.25000000  0.81491200  0.91225900  1
  Sr  Sr7  1  0.75000000  0.86713900  0.74665900  1
  La  La8  1  0.75000000  0.18081500  0.44181800  1
  La  La9  1  0.25000000  0.31918500  0.94181800  1
  La  La10  1  0.75000000  0.68081500  0.05818200  1
  La  La11  1  0.25000000  0.81918500  0.55818200  1
  Cl  Cl12  1  0.25000000  0.06824600  0.47575700  1
  Cl  Cl13  1  0.25000000  0.07807200  0.86990300  1
  Cl  Cl14  1  0.75000000  0.11687200  0.86250500  1
  Cl  Cl15  1  0.55650400  0.11202700  0.29956800  1
  Cl  Cl16  1  0.94349600  0.11202700  0.29956800  1
  Cl  Cl17  1  0.94171400  0.25698400  0.59060300  1
  Cl  Cl18  1  0.55828600  0.25698400  0.59060300  1
  Cl  Cl19  1  0.05828600  0.24301600  0.09060300  1
  Cl  Cl20  1  0.44171400  0.24301600  0.09060300  1
  Cl  Cl21  1  0.05650400  0.38797300  0.79956800  1
  Cl  Cl22  1  0.44349600  0.38797300  0.79956800  1
  Cl  Cl23  1  0.25000000  0.38312800  0.36250500  1
  Cl  Cl24  1  0.75000000  0.42192800  0.36990300  1
  Cl  Cl25  1  0.75000000  0.43175400  0.97575700  1
  Cl  Cl26  1  0.25000000  0.56824600  0.02424300  1
  Cl  Cl27  1  0.25000000  0.57807200  0.63009700  1
  Cl  Cl28  1  0.75000000  0.61687200  0.63749500  1
  Cl  Cl29  1  0.55650400  0.61202700  0.20043200  1
  Cl  Cl30  1  0.94349600  0.61202700  0.20043200  1
  Cl  Cl31  1  0.55828600  0.75698400  0.90939700  1
  Cl  Cl32  1  0.94171400  0.75698400  0.90939700  1
  Cl  Cl33  1  0.05828600  0.74301600  0.40939700  1
  Cl  Cl34  1  0.44171400  0.74301600  0.40939700  1
  Cl  Cl35  1  0.05650400  0.88797300  0.70043200  1
  Cl  Cl36  1  0.44349600  0.88797300  0.70043200  1
  Cl  Cl37  1  0.25000000  0.88312800  0.13749500  1
  Cl  Cl38  1  0.75000000  0.92192800  0.13009700  1
  Cl  Cl39  1  0.75000000  0.93175400  0.52424300  1
