# generated using pymatgen
data_Li2MnSnO4
_symmetry_space_group_name_H-M   'P 1'
_cell_length_a   6.27694379
_cell_length_b   6.29432763
_cell_length_c   8.79260312
_cell_angle_alpha   90.00000000
_cell_angle_beta   90.00000000
_cell_angle_gamma   90.00000000
_symmetry_Int_Tables_number   1
_chemical_formula_structural   Li2MnSnO4
_chemical_formula_sum   'Li8 Mn4 Sn4 O16'
_cell_volume   347.38819420
_cell_formula_units_Z   4
loop_
 _symmetry_equiv_pos_site_id
 _symmetry_equiv_pos_as_xyz
  1  'x, y, z'
loop_
 _atom_site_type_symbol
 _atom_site_label
 _atom_site_symmetry_multiplicity
 _atom_site_fract_x
 _atom_site_fract_y
 _atom_site_fract_z
 _atom_site_occupancy
  Li  Li0  1  0.75000000  0.75000000  0.75000000  1
  Li  Li1  1  0.25000000  0.75000000  0.75000000  1
  Li  Li2  1  0.50000000  0.50000000  0.50000000  1
  Li  Li3  1  0.00000000  0.50000000  0.00000000  1
  Li  Li4  1  0.25000000  0.25000000  0.25000000  1
  Li  Li5  1  0.75000000  0.25000000  0.25000000  1
  Li  Li6  1  0.00000000  0.00000000  0.00000000  1
  Li  Li7  1  0.50000000  0.00000000  0.50000000  1
  Mn  Mn8  1  0.75000000  0.75000000  0.25000000  1
  Mn  Mn9  1  0.75000000  0.25000000  0.75000000  1
  Mn  Mn10  1  0.25000000  0.25000000  0.75000000  1
  Mn  Mn11  1  0.25000000  0.75000000  0.25000000  1
  Sn  Sn12  1  0.50000000  0.50000000  0.00000000  1
  Sn  Sn13  1  0.50000000  0.00000000  0.00000000  1
  Sn  Sn14  1  0.00000000  0.00000000  0.50000000  1
  Sn  Sn15  1  0.00000000  0.50000000  0.50000000  1
  O  O16  1  0.00000000  0.50434400  0.26488000  1
  O  O17  1  0.50000000  0.49565600  0.76488000  1
  O  O18  1  0.50000000  0.50434400  0.23512000  1
  O  O19  1  0.00000000  0.49565600  0.73512000  1
  O  O20  1  0.26603750  0.25000000  0.00314850  1
  O  O21  1  0.73396250  0.25000000  0.00314850  1
  O  O22  1  0.26603750  0.75000000  0.99685150  1
  O  O23  1  0.73396250  0.75000000  0.99685150  1
  O  O24  1  0.50000000  0.00434400  0.76488000  1
  O  O25  1  0.00000000  0.99565600  0.26488000  1
  O  O26  1  0.00000000  0.00434400  0.73512000  1
  O  O27  1  0.50000000  0.99565600  0.23512000  1
  O  O28  1  0.76603750  0.75000000  0.50314850  1
  O  O29  1  0.23396250  0.75000000  0.50314850  1
  O  O30  1  0.76603750  0.25000000  0.49685150  1
  O  O31  1  0.23396250  0.25000000  0.49685150  1
