# generated using pymatgen
data_Li3NbS4
_symmetry_space_group_name_H-M   'P 1'
_cell_length_a   7.57606200
_cell_length_b   25.52721600
_cell_length_c   26.60449400
_cell_angle_alpha   90.00000000
_cell_angle_beta   90.00000000
_cell_angle_gamma   90.00000000
_symmetry_Int_Tables_number   1
_chemical_formula_structural   Li3NbS4
_chemical_formula_sum   'Li96 Nb32 S128'
_cell_volume   5145.19663195
_cell_formula_units_Z   32
loop_
 _symmetry_equiv_pos_site_id
 _symmetry_equiv_pos_as_xyz
  1  'x, y, z'
loop_
 _atom_site_type_symbol
 _atom_site_label
 _atom_site_symmetry_multiplicity
 _atom_site_fract_x
 _atom_site_fract_y
 _atom_site_fract_z
 _atom_site_occupancy
  Li  Li0  1  0.49315500  0.50000000  0.00000000  1
  Li  Li1  1  0.97927600  0.50000000  0.00000000  1
  Li  Li2  1  0.01869400  0.99920250  0.24578250  1
  Li  Li3  1  0.23020850  0.52513000  0.37650850  1
  Li  Li4  1  0.89796950  0.59452350  0.13917200  1
  Li  Li5  1  0.67722900  0.61239400  0.34259000  1
  Li  Li6  1  0.72389650  0.62147950  0.47124100  1
  Li  Li7  1  0.47389650  0.62852050  0.22124100  1
  Li  Li8  1  0.42722900  0.63760600  0.09259000  1
  Li  Li9  1  0.14796950  0.65547650  0.38917200  1
  Li  Li10  1  0.98020850  0.72487000  0.12650850  1
  Li  Li11  1  0.76869400  0.75079750  0.49578250  1
  Li  Li12  1  0.74315500  0.75000000  0.25000000  1
  Li  Li13  1  0.22927600  0.75000000  0.25000000  1
  Li  Li14  1  0.76869400  0.74920250  0.00421750  1
  Li  Li15  1  0.98020850  0.77513000  0.37349150  1
  Li  Li16  1  0.14796950  0.84452350  0.11082800  1
  Li  Li17  1  0.42722900  0.86239400  0.40741000  1
  Li  Li18  1  0.47389650  0.87147950  0.27875900  1
  Li  Li19  1  0.72389650  0.87852050  0.02875900  1
  Li  Li20  1  0.67722900  0.88760600  0.15741000  1
  Li  Li21  1  0.89796950  0.90547650  0.36082800  1
  Li  Li22  1  0.23020850  0.97487000  0.12349150  1
  Li  Li23  1  0.01869400  0.50079750  0.25421750  1
  Li  Li24  1  0.99315500  0.50000000  0.50000000  1
  Li  Li25  1  0.47927600  0.50000000  0.50000000  1
  Li  Li26  1  0.51869400  0.99920250  0.74578250  1
  Li  Li27  1  0.73020850  0.52513000  0.87650850  1
  Li  Li28  1  0.39796950  0.59452350  0.63917200  1
  Li  Li29  1  0.17722900  0.61239400  0.84259000  1
  Li  Li30  1  0.22389650  0.62147950  0.97124100  1
  Li  Li31  1  0.97389650  0.62852050  0.72124100  1
  Li  Li32  1  0.92722900  0.63760600  0.59259000  1
  Li  Li33  1  0.64796950  0.65547650  0.88917200  1
  Li  Li34  1  0.48020850  0.72487000  0.62650850  1
  Li  Li35  1  0.26869400  0.75079750  0.99578250  1
  Li  Li36  1  0.24315500  0.75000000  0.75000000  1
  Li  Li37  1  0.72927600  0.75000000  0.75000000  1
  Li  Li38  1  0.26869400  0.74920250  0.50421750  1
  Li  Li39  1  0.48020850  0.77513000  0.87349150  1
  Li  Li40  1  0.64796950  0.84452350  0.61082800  1
  Li  Li41  1  0.92722900  0.86239400  0.90741000  1
  Li  Li42  1  0.97389650  0.87147950  0.77875900  1
  Li  Li43  1  0.22389650  0.87852050  0.52875900  1
  Li  Li44  1  0.17722900  0.88760600  0.65741000  1
  Li  Li45  1  0.39796950  0.90547650  0.86082800  1
  Li  Li46  1  0.73020850  0.97487000  0.62349150  1
  Li  Li47  1  0.51869400  0.50079750  0.75421750  1
  Li  Li48  1  0.99315500  0.00000000  0.00000000  1
  Li  Li49  1  0.47927600  0.00000000  0.00000000  1
  Li  Li50  1  0.51869400  0.49920250  0.24578250  1
  Li  Li51  1  0.73020850  0.02513000  0.37650850  1
  Li  Li52  1  0.39796950  0.09452350  0.13917200  1
  Li  Li53  1  0.17722900  0.11239400  0.34259000  1
  Li  Li54  1  0.22389650  0.12147950  0.47124100  1
  Li  Li55  1  0.97389650  0.12852050  0.22124100  1
  Li  Li56  1  0.92722900  0.13760600  0.09259000  1
  Li  Li57  1  0.64796950  0.15547650  0.38917200  1
  Li  Li58  1  0.48020850  0.22487000  0.12650850  1
  Li  Li59  1  0.26869400  0.25079750  0.49578250  1
  Li  Li60  1  0.24315500  0.25000000  0.25000000  1
  Li  Li61  1  0.72927600  0.25000000  0.25000000  1
  Li  Li62  1  0.26869400  0.24920250  0.00421750  1
  Li  Li63  1  0.48020850  0.27513000  0.37349150  1
  Li  Li64  1  0.64796950  0.34452350  0.11082800  1
  Li  Li65  1  0.92722900  0.36239400  0.40741000  1
  Li  Li66  1  0.97389650  0.37147950  0.27875900  1
  Li  Li67  1  0.22389650  0.37852050  0.02875900  1
  Li  Li68  1  0.17722900  0.38760600  0.15741000  1
  Li  Li69  1  0.39796950  0.40547650  0.36082800  1
  Li  Li70  1  0.73020850  0.47487000  0.12349150  1
  Li  Li71  1  0.51869400  0.00079750  0.25421750  1
  Li  Li72  1  0.49315500  0.00000000  0.50000000  1
  Li  Li73  1  0.97927600  0.00000000  0.50000000  1
  Li  Li74  1  0.01869400  0.49920250  0.74578250  1
  Li  Li75  1  0.23020850  0.02513000  0.87650850  1
  Li  Li76  1  0.89796950  0.09452350  0.63917200  1
  Li  Li77  1  0.67722900  0.11239400  0.84259000  1
  Li  Li78  1  0.72389650  0.12147950  0.97124100  1
  Li  Li79  1  0.47389650  0.12852050  0.72124100  1
  Li  Li80  1  0.42722900  0.13760600  0.59259000  1
  Li  Li81  1  0.14796950  0.15547650  0.88917200  1
  Li  Li82  1  0.98020850  0.22487000  0.62650850  1
  Li  Li83  1  0.76869400  0.25079750  0.99578250  1
  Li  Li84  1  0.74315500  0.25000000  0.75000000  1
  Li  Li85  1  0.22927600  0.25000000  0.75000000  1
  Li  Li86  1  0.76869400  0.24920250  0.50421750  1
  Li  Li87  1  0.98020850  0.27513000  0.87349150  1
  Li  Li88  1  0.14796950  0.34452350  0.61082800  1
  Li  Li89  1  0.42722900  0.36239400  0.90741000  1
  Li  Li90  1  0.47389650  0.37147950  0.77875900  1
  Li  Li91  1  0.72389650  0.37852050  0.52875900  1
  Li  Li92  1  0.67722900  0.38760600  0.65741000  1
  Li  Li93  1  0.89796950  0.40547650  0.86082800  1
  Li  Li94  1  0.23020850  0.47487000  0.62349150  1
  Li  Li95  1  0.01869400  0.00079750  0.75421750  1
  Nb  Nb96  1  0.30146400  0.50982900  0.11520400  1
  Nb  Nb97  1  0.79748350  0.62220300  0.00612850  1
  Nb  Nb98  1  0.04748350  0.62779700  0.25612850  1
  Nb  Nb99  1  0.55146400  0.74017100  0.36520400  1
  Nb  Nb100  1  0.55146400  0.75982900  0.13479600  1
  Nb  Nb101  1  0.04748350  0.87220300  0.24387150  1
  Nb  Nb102  1  0.79748350  0.87779700  0.49387150  1
  Nb  Nb103  1  0.30146400  0.99017100  0.38479600  1
  Nb  Nb104  1  0.80146400  0.50982900  0.61520400  1
  Nb  Nb105  1  0.29748350  0.62220300  0.50612850  1
  Nb  Nb106  1  0.54748350  0.62779700  0.75612850  1
  Nb  Nb107  1  0.05146400  0.74017100  0.86520400  1
  Nb  Nb108  1  0.05146400  0.75982900  0.63479600  1
  Nb  Nb109  1  0.54748350  0.87220300  0.74387150  1
  Nb  Nb110  1  0.29748350  0.87779700  0.99387150  1
  Nb  Nb111  1  0.80146400  0.99017100  0.88479600  1
  Nb  Nb112  1  0.80146400  0.00982900  0.11520400  1
  Nb  Nb113  1  0.29748350  0.12220300  0.00612850  1
  Nb  Nb114  1  0.54748350  0.12779700  0.25612850  1
  Nb  Nb115  1  0.05146400  0.24017100  0.36520400  1
  Nb  Nb116  1  0.05146400  0.25982900  0.13479600  1
  Nb  Nb117  1  0.54748350  0.37220300  0.24387150  1
  Nb  Nb118  1  0.29748350  0.37779700  0.49387150  1
  Nb  Nb119  1  0.80146400  0.49017100  0.38479600  1
  Nb  Nb120  1  0.30146400  0.00982900  0.61520400  1
  Nb  Nb121  1  0.79748350  0.12220300  0.50612850  1
  Nb  Nb122  1  0.04748350  0.12779700  0.75612850  1
  Nb  Nb123  1  0.55146400  0.24017100  0.86520400  1
  Nb  Nb124  1  0.55146400  0.25982900  0.63479600  1
  Nb  Nb125  1  0.04748350  0.37220300  0.74387150  1
  Nb  Nb126  1  0.79748350  0.37779700  0.99387150  1
  Nb  Nb127  1  0.30146400  0.49017100  0.88479600  1
  S  S128  1  0.04288300  0.99772450  0.34156250  1
  S  S129  1  0.50719300  0.55066500  0.16367900  1
  S  S130  1  0.24919000  0.55675800  0.04333600  1
  S  S131  1  0.75194100  0.54925150  0.05482050  1
  S  S132  1  0.91862850  0.57056100  0.40551650  1
  S  S133  1  0.25371150  0.57195750  0.28811900  1
  S  S134  1  0.79162000  0.58063050  0.25144150  1
  S  S135  1  0.40169000  0.59526700  0.42897900  1
  S  S136  1  0.15169000  0.65473300  0.17897900  1
  S  S137  1  0.54162000  0.66936950  0.00144150  1
  S  S138  1  0.00371150  0.67804250  0.03811900  1
  S  S139  1  0.66862850  0.67943900  0.15551650  1
  S  S140  1  0.00194100  0.70074850  0.30482050  1
  S  S141  1  0.49919000  0.69324200  0.29333600  1
  S  S142  1  0.75719300  0.69933500  0.41367900  1
  S  S143  1  0.29288300  0.75227550  0.09156250  1
  S  S144  1  0.29288300  0.74772450  0.40843750  1
  S  S145  1  0.75719300  0.80066500  0.08632100  1
  S  S146  1  0.49919000  0.80675800  0.20666400  1
  S  S147  1  0.00194100  0.79925150  0.19517950  1
  S  S148  1  0.66862850  0.82056100  0.34448350  1
  S  S149  1  0.00371150  0.82195750  0.46188100  1
  S  S150  1  0.54162000  0.83063050  0.49855850  1
  S  S151  1  0.15169000  0.84526700  0.32102100  1
  S  S152  1  0.40169000  0.90473300  0.07102100  1
  S  S153  1  0.79162000  0.91936950  0.24855850  1
  S  S154  1  0.25371150  0.92804250  0.21188100  1
  S  S155  1  0.91862850  0.92943900  0.09448350  1
  S  S156  1  0.75194100  0.95074850  0.44517950  1
  S  S157  1  0.24919000  0.94324200  0.45666400  1
  S  S158  1  0.50719300  0.94933500  0.33632100  1
  S  S159  1  0.04288300  0.50227550  0.15843750  1
  S  S160  1  0.54288300  0.99772450  0.84156250  1
  S  S161  1  0.00719300  0.55066500  0.66367900  1
  S  S162  1  0.74919000  0.55675800  0.54333600  1
  S  S163  1  0.25194100  0.54925150  0.55482050  1
  S  S164  1  0.41862850  0.57056100  0.90551650  1
  S  S165  1  0.75371150  0.57195750  0.78811900  1
  S  S166  1  0.29162000  0.58063050  0.75144150  1
  S  S167  1  0.90169000  0.59526700  0.92897900  1
  S  S168  1  0.65169000  0.65473300  0.67897900  1
  S  S169  1  0.04162000  0.66936950  0.50144150  1
  S  S170  1  0.50371150  0.67804250  0.53811900  1
  S  S171  1  0.16862850  0.67943900  0.65551650  1
  S  S172  1  0.50194100  0.70074850  0.80482050  1
  S  S173  1  0.99919000  0.69324200  0.79333600  1
  S  S174  1  0.25719300  0.69933500  0.91367900  1
  S  S175  1  0.79288300  0.75227550  0.59156250  1
  S  S176  1  0.79288300  0.74772450  0.90843750  1
  S  S177  1  0.25719300  0.80066500  0.58632100  1
  S  S178  1  0.99919000  0.80675800  0.70666400  1
  S  S179  1  0.50194100  0.79925150  0.69517950  1
  S  S180  1  0.16862850  0.82056100  0.84448350  1
  S  S181  1  0.50371150  0.82195750  0.96188100  1
  S  S182  1  0.04162000  0.83063050  0.99855850  1
  S  S183  1  0.65169000  0.84526700  0.82102100  1
  S  S184  1  0.90169000  0.90473300  0.57102100  1
  S  S185  1  0.29162000  0.91936950  0.74855850  1
  S  S186  1  0.75371150  0.92804250  0.71188100  1
  S  S187  1  0.41862850  0.92943900  0.59448350  1
  S  S188  1  0.25194100  0.95074850  0.94517950  1
  S  S189  1  0.74919000  0.94324200  0.95666400  1
  S  S190  1  0.00719300  0.94933500  0.83632100  1
  S  S191  1  0.54288300  0.50227550  0.65843750  1
  S  S192  1  0.54288300  0.49772450  0.34156250  1
  S  S193  1  0.00719300  0.05066500  0.16367900  1
  S  S194  1  0.74919000  0.05675800  0.04333600  1
  S  S195  1  0.25194100  0.04925150  0.05482050  1
  S  S196  1  0.41862850  0.07056100  0.40551650  1
  S  S197  1  0.75371150  0.07195750  0.28811900  1
  S  S198  1  0.29162000  0.08063050  0.25144150  1
  S  S199  1  0.90169000  0.09526700  0.42897900  1
  S  S200  1  0.65169000  0.15473300  0.17897900  1
  S  S201  1  0.04162000  0.16936950  0.00144150  1
  S  S202  1  0.50371150  0.17804250  0.03811900  1
  S  S203  1  0.16862850  0.17943900  0.15551650  1
  S  S204  1  0.50194100  0.20074850  0.30482050  1
  S  S205  1  0.99919000  0.19324200  0.29333600  1
  S  S206  1  0.25719300  0.19933500  0.41367900  1
  S  S207  1  0.79288300  0.25227550  0.09156250  1
  S  S208  1  0.79288300  0.24772450  0.40843750  1
  S  S209  1  0.25719300  0.30066500  0.08632100  1
  S  S210  1  0.99919000  0.30675800  0.20666400  1
  S  S211  1  0.50194100  0.29925150  0.19517950  1
  S  S212  1  0.16862850  0.32056100  0.34448350  1
  S  S213  1  0.50371150  0.32195750  0.46188100  1
  S  S214  1  0.04162000  0.33063050  0.49855850  1
  S  S215  1  0.65169000  0.34526700  0.32102100  1
  S  S216  1  0.90169000  0.40473300  0.07102100  1
  S  S217  1  0.29162000  0.41936950  0.24855850  1
  S  S218  1  0.75371150  0.42804250  0.21188100  1
  S  S219  1  0.41862850  0.42943900  0.09448350  1
  S  S220  1  0.25194100  0.45074850  0.44517950  1
  S  S221  1  0.74919000  0.44324200  0.45666400  1
  S  S222  1  0.00719300  0.44933500  0.33632100  1
  S  S223  1  0.54288300  0.00227550  0.15843750  1
  S  S224  1  0.04288300  0.49772450  0.84156250  1
  S  S225  1  0.50719300  0.05066500  0.66367900  1
  S  S226  1  0.24919000  0.05675800  0.54333600  1
  S  S227  1  0.75194100  0.04925150  0.55482050  1
  S  S228  1  0.91862850  0.07056100  0.90551650  1
  S  S229  1  0.25371150  0.07195750  0.78811900  1
  S  S230  1  0.79162000  0.08063050  0.75144150  1
  S  S231  1  0.40169000  0.09526700  0.92897900  1
  S  S232  1  0.15169000  0.15473300  0.67897900  1
  S  S233  1  0.54162000  0.16936950  0.50144150  1
  S  S234  1  0.00371150  0.17804250  0.53811900  1
  S  S235  1  0.66862850  0.17943900  0.65551650  1
  S  S236  1  0.00194100  0.20074850  0.80482050  1
  S  S237  1  0.49919000  0.19324200  0.79333600  1
  S  S238  1  0.75719300  0.19933500  0.91367900  1
  S  S239  1  0.29288300  0.25227550  0.59156250  1
  S  S240  1  0.29288300  0.24772450  0.90843750  1
  S  S241  1  0.75719300  0.30066500  0.58632100  1
  S  S242  1  0.49919000  0.30675800  0.70666400  1
  S  S243  1  0.00194100  0.29925150  0.69517950  1
  S  S244  1  0.66862850  0.32056100  0.84448350  1
  S  S245  1  0.00371150  0.32195750  0.96188100  1
  S  S246  1  0.54162000  0.33063050  0.99855850  1
  S  S247  1  0.15169000  0.34526700  0.82102100  1
  S  S248  1  0.40169000  0.40473300  0.57102100  1
  S  S249  1  0.79162000  0.41936950  0.74855850  1
  S  S250  1  0.25371150  0.42804250  0.71188100  1
  S  S251  1  0.91862850  0.42943900  0.59448350  1
  S  S252  1  0.75194100  0.45074850  0.94517950  1
  S  S253  1  0.24919000  0.44324200  0.95666400  1
  S  S254  1  0.50719300  0.44933500  0.83632100  1
  S  S255  1  0.04288300  0.00227550  0.65843750  1
