# generated using pymatgen
data_LiVSiO5
_symmetry_space_group_name_H-M   'P 1'
_cell_length_a   4.49654500
_cell_length_b   8.99516100
_cell_length_c   9.32152100
_cell_angle_alpha   90.00000000
_cell_angle_beta   90.00000000
_cell_angle_gamma   90.00000000
_symmetry_Int_Tables_number   1
_chemical_formula_structural   LiVSiO5
_chemical_formula_sum   'Li4 V4 Si4 O20'
_cell_volume   377.02892287
_cell_formula_units_Z   4
loop_
 _symmetry_equiv_pos_site_id
 _symmetry_equiv_pos_as_xyz
  1  'x, y, z'
loop_
 _atom_site_type_symbol
 _atom_site_label
 _atom_site_symmetry_multiplicity
 _atom_site_fract_x
 _atom_site_fract_y
 _atom_site_fract_z
 _atom_site_occupancy
  Li  Li0  1  0.63435600  0.00000000  0.98992000  1
  Li  Li1  1  0.36564400  0.00000000  0.48992000  1
  Li  Li2  1  0.99291700  0.50000000  0.24656000  1
  Li  Li3  1  0.00708300  0.50000000  0.74656000  1
  V  V4  1  0.96158700  0.00000000  0.70952600  1
  V  V5  1  0.03841300  0.00000000  0.20952600  1
  V  V6  1  0.58239800  0.50000000  0.50262400  1
  V  V7  1  0.41760200  0.50000000  0.00262400  1
  Si  Si8  1  0.50068000  0.24979600  0.75158700  1
  Si  Si9  1  0.49932000  0.24979600  0.25158700  1
  Si  Si10  1  0.49932000  0.75020400  0.25158700  1
  Si  Si11  1  0.50068000  0.75020400  0.75158700  1
  O  O12  1  0.78974900  0.00000000  0.55454700  1
  O  O13  1  0.21025100  0.00000000  0.05454700  1
  O  O14  1  0.74696900  0.13946400  0.82715400  1
  O  O15  1  0.25303100  0.13946400  0.32715400  1
  O  O16  1  0.25255600  0.14441500  0.67096200  1
  O  O17  1  0.74744400  0.14441500  0.17096200  1
  O  O18  1  0.31371100  0.35738700  0.86121900  1
  O  O19  1  0.68628900  0.35738700  0.36121900  1
  O  O20  1  0.69062000  0.35837600  0.64334900  1
  O  O21  1  0.30938000  0.35837600  0.14334900  1
  O  O22  1  0.21949900  0.50000000  0.50544600  1
  O  O23  1  0.78050100  0.50000000  0.00544600  1
  O  O24  1  0.69062000  0.64162400  0.64334900  1
  O  O25  1  0.30938000  0.64162400  0.14334900  1
  O  O26  1  0.31371100  0.64261300  0.86121900  1
  O  O27  1  0.68628900  0.64261300  0.36121900  1
  O  O28  1  0.25255600  0.85558500  0.67096200  1
  O  O29  1  0.74744400  0.85558500  0.17096200  1
  O  O30  1  0.25303100  0.86053600  0.32715400  1
  O  O31  1  0.74696900  0.86053600  0.82715400  1
