# generated using pymatgen
data_NaMnAsCO7
_symmetry_space_group_name_H-M   'P 1'
_cell_length_a   5.39854300
_cell_length_b   6.43960300
_cell_length_c   9.28753237
_cell_angle_alpha   90.00000000
_cell_angle_beta   92.93266103
_cell_angle_gamma   90.00000000
_symmetry_Int_Tables_number   1
_chemical_formula_structural   NaMnAsCO7
_chemical_formula_sum   'Na2 Mn2 As2 C2 O14'
_cell_volume   322.45332164
_cell_formula_units_Z   2
loop_
 _symmetry_equiv_pos_site_id
 _symmetry_equiv_pos_as_xyz
  1  'x, y, z'
loop_
 _atom_site_type_symbol
 _atom_site_label
 _atom_site_symmetry_multiplicity
 _atom_site_fract_x
 _atom_site_fract_y
 _atom_site_fract_z
 _atom_site_occupancy
  Na  Na0  1  0.76513900  0.48050100  0.22530600  1
  Na  Na1  1  0.23486100  0.98050100  0.77469400  1
  Mn  Mn2  1  0.21237400  0.75810400  0.33769700  1
  Mn  Mn3  1  0.78762600  0.25810400  0.66230300  1
  As  As4  1  0.28047900  0.25218200  0.43571800  1
  As  As5  1  0.71952100  0.75218200  0.56428200  1
  C  C6  1  0.27575700  0.74622500  0.08118700  1
  C  C7  1  0.72424300  0.24622500  0.91881300  1
  O  O8  1  0.69121100  0.24835600  0.04877200  1
  O  O9  1  0.05723700  0.74853200  0.13914000  1
  O  O10  1  0.45595100  0.74358300  0.18417900  1
  O  O11  1  0.20813000  0.05309800  0.31825000  1
  O  O12  1  0.19785300  0.45589200  0.32366800  1
  O  O13  1  0.87300400  0.74394500  0.40832700  1
  O  O14  1  0.59601000  0.26743300  0.47820000  1
  O  O15  1  0.40399000  0.76743300  0.52180000  1
  O  O16  1  0.12699600  0.24394500  0.59167300  1
  O  O17  1  0.80214700  0.95589200  0.67633200  1
  O  O18  1  0.79187000  0.55309800  0.68175000  1
  O  O19  1  0.54404900  0.24358300  0.81582100  1
  O  O20  1  0.94276300  0.24853200  0.86086000  1
  O  O21  1  0.30878900  0.74835600  0.95122800  1
