# generated using pymatgen
data_Li2Nb4O11
_symmetry_space_group_name_H-M   'P 1'
_cell_length_a   11.04614400
_cell_length_b   6.28133200
_cell_length_c   12.92980225
_cell_angle_alpha   90.00000000
_cell_angle_beta   106.52847475
_cell_angle_gamma   90.00000000
_symmetry_Int_Tables_number   1
_chemical_formula_structural   Li2Nb4O11
_chemical_formula_sum   'Li8 Nb16 O44'
_cell_volume   860.05713812
_cell_formula_units_Z   4
loop_
 _symmetry_equiv_pos_site_id
 _symmetry_equiv_pos_as_xyz
  1  'x, y, z'
loop_
 _atom_site_type_symbol
 _atom_site_label
 _atom_site_symmetry_multiplicity
 _atom_site_fract_x
 _atom_site_fract_y
 _atom_site_fract_z
 _atom_site_occupancy
  Li  Li0  1  0.60617750  0.75101850  0.06010400  1
  Li  Li1  1  0.89382250  0.25101850  0.43989600  1
  Li  Li2  1  0.10617750  0.74898150  0.56010400  1
  Li  Li3  1  0.39382250  0.24898150  0.93989600  1
  Li  Li4  1  0.10617750  0.25101850  0.06010400  1
  Li  Li5  1  0.39382250  0.75101850  0.43989600  1
  Li  Li6  1  0.60617750  0.24898150  0.56010400  1
  Li  Li7  1  0.89382250  0.74898150  0.93989600  1
  Nb  Nb8  1  0.17738600  0.42628300  0.75011200  1
  Nb  Nb9  1  0.67738600  0.07371700  0.25011200  1
  Nb  Nb10  1  0.75000000  0.75000000  0.50000000  1
  Nb  Nb11  1  0.00000000  0.88664700  0.75000000  1
  Nb  Nb12  1  0.00000000  0.11335300  0.25000000  1
  Nb  Nb13  1  0.32261400  0.92628300  0.74988800  1
  Nb  Nb14  1  0.25000000  0.75000000  0.00000000  1
  Nb  Nb15  1  0.82261400  0.57371700  0.24988800  1
  Nb  Nb16  1  0.67738600  0.92628300  0.75011200  1
  Nb  Nb17  1  0.17738600  0.57371700  0.25011200  1
  Nb  Nb18  1  0.25000000  0.25000000  0.50000000  1
  Nb  Nb19  1  0.50000000  0.38664700  0.75000000  1
  Nb  Nb20  1  0.50000000  0.61335300  0.25000000  1
  Nb  Nb21  1  0.82261400  0.42628300  0.74988800  1
  Nb  Nb22  1  0.75000000  0.25000000  0.00000000  1
  Nb  Nb23  1  0.32261400  0.07371700  0.24988800  1
  O  O24  1  0.88136400  0.13041100  0.75137700  1
  O  O25  1  0.88136400  0.86958900  0.25137700  1
  O  O26  1  0.16789600  0.42186700  0.59408400  1
  O  O27  1  0.24591650  0.48906750  0.90714600  1
  O  O28  1  0.15694350  0.75060350  0.71951400  1
  O  O29  1  0.66789600  0.07813300  0.09408400  1
  O  O30  1  0.07646650  0.83633050  0.90718600  1
  O  O31  1  0.74591650  0.01093250  0.40714600  1
  O  O32  1  0.65694350  0.74939650  0.21951400  1
  O  O33  1  0.00000000  0.50161400  0.75000000  1
  O  O34  1  0.92353350  0.83633050  0.59281400  1
  O  O35  1  0.07646650  0.16366950  0.40718600  1
  O  O36  1  0.00000000  0.49838600  0.25000000  1
  O  O37  1  0.34305650  0.25060350  0.78048600  1
  O  O38  1  0.25408350  0.98906750  0.59285400  1
  O  O39  1  0.92353350  0.16366950  0.09281400  1
  O  O40  1  0.33210400  0.92186700  0.90591600  1
  O  O41  1  0.84305650  0.24939650  0.28048600  1
  O  O42  1  0.75408350  0.51093250  0.09285400  1
  O  O43  1  0.83210400  0.57813300  0.40591600  1
  O  O44  1  0.11863600  0.13041100  0.74862300  1
  O  O45  1  0.11863600  0.86958900  0.24862300  1
  O  O46  1  0.38136400  0.63041100  0.75137700  1
  O  O47  1  0.38136400  0.36958900  0.25137700  1
  O  O48  1  0.66789600  0.92186700  0.59408400  1
  O  O49  1  0.74591650  0.98906750  0.90714600  1
  O  O50  1  0.65694350  0.25060350  0.71951400  1
  O  O51  1  0.16789600  0.57813300  0.09408400  1
  O  O52  1  0.57646650  0.33633050  0.90718600  1
  O  O53  1  0.24591650  0.51093250  0.40714600  1
  O  O54  1  0.15694350  0.24939650  0.21951400  1
  O  O55  1  0.50000000  0.00161400  0.75000000  1
  O  O56  1  0.42353350  0.33633050  0.59281400  1
  O  O57  1  0.57646650  0.66366950  0.40718600  1
  O  O58  1  0.50000000  0.99838600  0.25000000  1
  O  O59  1  0.84305650  0.75060350  0.78048600  1
  O  O60  1  0.75408350  0.48906750  0.59285400  1
  O  O61  1  0.42353350  0.66366950  0.09281400  1
  O  O62  1  0.83210400  0.42186700  0.90591600  1
  O  O63  1  0.34305650  0.74939650  0.28048600  1
  O  O64  1  0.25408350  0.01093250  0.09285400  1
  O  O65  1  0.33210400  0.07813300  0.40591600  1
  O  O66  1  0.61863600  0.63041100  0.74862300  1
  O  O67  1  0.61863600  0.36958900  0.24862300  1
