# generated using pymatgen
data_Er2H16S3O20
_symmetry_space_group_name_H-M   'P 1'
_cell_length_a   13.46762000
_cell_length_b   6.69503600
_cell_length_c   18.26440836
_cell_angle_alpha   90.00000000
_cell_angle_beta   101.67279342
_cell_angle_gamma   90.00000000
_symmetry_Int_Tables_number   1
_chemical_formula_structural   Er2H16S3O20
_chemical_formula_sum   'Er8 H64 S12 O80'
_cell_volume   1612.77415968
_cell_formula_units_Z   4
loop_
 _symmetry_equiv_pos_site_id
 _symmetry_equiv_pos_as_xyz
  1  'x, y, z'
loop_
 _atom_site_type_symbol
 _atom_site_label
 _atom_site_symmetry_multiplicity
 _atom_site_fract_x
 _atom_site_fract_y
 _atom_site_fract_z
 _atom_site_occupancy
  Er  Er0  1  0.83416350  0.48192350  0.60915400  1
  Er  Er1  1  0.83416350  0.51807650  0.10915400  1
  Er  Er2  1  0.66583650  0.98192350  0.89084600  1
  Er  Er3  1  0.66583650  0.01807650  0.39084600  1
  Er  Er4  1  0.33416350  0.98192350  0.60915400  1
  Er  Er5  1  0.33416350  0.01807650  0.10915400  1
  Er  Er6  1  0.16583650  0.48192350  0.89084600  1
  Er  Er7  1  0.16583650  0.51807650  0.39084600  1
  H  H8  1  0.99172950  0.80255250  0.65608600  1
  H  H9  1  0.50294200  0.68363900  0.89407800  1
  H  H10  1  0.94836400  0.60248600  0.85637800  1
  H  H11  1  0.98390250  0.33997050  0.95440700  1
  H  H12  1  0.99172950  0.19744750  0.15608600  1
  H  H13  1  0.50294200  0.31636100  0.39407800  1
  H  H14  1  0.82882900  0.04919100  0.80308400  1
  H  H15  1  0.86785400  0.89699600  0.98577200  1
  H  H16  1  0.85613100  0.13108100  0.98601000  1
  H  H17  1  0.94836400  0.39751400  0.35637800  1
  H  H18  1  0.98390250  0.66002950  0.45440700  1
  H  H19  1  0.77291050  0.48491150  0.75441100  1
  H  H20  1  0.72708950  0.98491150  0.74558900  1
  H  H21  1  0.64386900  0.63108100  0.51399000  1
  H  H22  1  0.63214600  0.39699600  0.51422800  1
  H  H23  1  0.67117100  0.54919100  0.69691600  1
  H  H24  1  0.82882900  0.95080900  0.30308400  1
  H  H25  1  0.86785400  0.10300400  0.48577200  1
  H  H26  1  0.85613100  0.86891900  0.48601000  1
  H  H27  1  0.77291050  0.51508850  0.25441100  1
  H  H28  1  0.72708950  0.01508850  0.24558900  1
  H  H29  1  0.51609750  0.83997050  0.54559300  1
  H  H30  1  0.55163600  0.10248600  0.64362200  1
  H  H31  1  0.64386900  0.36891900  0.01399000  1
  H  H32  1  0.63214600  0.60300400  0.01422800  1
  H  H33  1  0.67117100  0.45080900  0.19691600  1
  H  H34  1  0.99705800  0.18363900  0.60592200  1
  H  H35  1  0.50827050  0.30255250  0.84391400  1
  H  H36  1  0.51609750  0.16002950  0.04559300  1
  H  H37  1  0.55163600  0.89751400  0.14362200  1
  H  H38  1  0.99705800  0.81636100  0.10592200  1
  H  H39  1  0.50827050  0.69744750  0.34391400  1
  H  H40  1  0.49172950  0.30255250  0.65608600  1
  H  H41  1  0.00294200  0.18363900  0.89407800  1
  H  H42  1  0.44836400  0.10248600  0.85637800  1
  H  H43  1  0.48390250  0.83997050  0.95440700  1
  H  H44  1  0.49172950  0.69744750  0.15608600  1
  H  H45  1  0.00294200  0.81636100  0.39407800  1
  H  H46  1  0.32882900  0.54919100  0.80308400  1
  H  H47  1  0.36785400  0.39699600  0.98577200  1
  H  H48  1  0.35613100  0.63108100  0.98601000  1
  H  H49  1  0.44836400  0.89751400  0.35637800  1
  H  H50  1  0.48390250  0.16002950  0.45440700  1
  H  H51  1  0.27291050  0.98491150  0.75441100  1
  H  H52  1  0.22708950  0.48491150  0.74558900  1
  H  H53  1  0.14386900  0.13108100  0.51399000  1
  H  H54  1  0.13214600  0.89699600  0.51422800  1
  H  H55  1  0.17117100  0.04919100  0.69691600  1
  H  H56  1  0.32882900  0.45080900  0.30308400  1
  H  H57  1  0.36785400  0.60300400  0.48577200  1
  H  H58  1  0.35613100  0.36891900  0.48601000  1
  H  H59  1  0.27291050  0.01508850  0.25441100  1
  H  H60  1  0.22708950  0.51508850  0.24558900  1
  H  H61  1  0.01609750  0.33997050  0.54559300  1
  H  H62  1  0.05163600  0.60248600  0.64362200  1
  H  H63  1  0.14386900  0.86891900  0.01399000  1
  H  H64  1  0.13214600  0.10300400  0.01422800  1
  H  H65  1  0.17117100  0.95080900  0.19691600  1
  H  H66  1  0.49705800  0.68363900  0.60592200  1
  H  H67  1  0.00827050  0.80255250  0.84391400  1
  H  H68  1  0.01609750  0.66002950  0.04559300  1
  H  H69  1  0.05163600  0.39751400  0.14362200  1
  H  H70  1  0.49705800  0.31636100  0.10592200  1
  H  H71  1  0.00827050  0.19744750  0.34391400  1
  S  S72  1  0.72000800  0.97523500  0.58881900  1
  S  S73  1  0.77999200  0.47523500  0.91118100  1
  S  S74  1  0.72000800  0.02476500  0.08881900  1
  S  S75  1  0.77999200  0.52476500  0.41118100  1
  S  S76  1  0.00000000  0.18085400  0.75000000  1
  S  S77  1  0.00000000  0.81914600  0.25000000  1
  S  S78  1  0.22000800  0.47523500  0.58881900  1
  S  S79  1  0.27999200  0.97523500  0.91118100  1
  S  S80  1  0.22000800  0.52476500  0.08881900  1
  S  S81  1  0.27999200  0.02476500  0.41118100  1
  S  S82  1  0.50000000  0.68085400  0.75000000  1
  S  S83  1  0.50000000  0.31914600  0.25000000  1
  O  O84  1  0.98332150  0.66455250  0.63697300  1
  O  O85  1  0.96193900  0.27218500  0.56496500  1
  O  O86  1  0.96400600  0.05299800  0.80694100  1
  O  O87  1  0.91510300  0.30706800  0.71168200  1
  O  O88  1  0.98332150  0.33544750  0.13697300  1
  O  O89  1  0.96193900  0.72781500  0.06496500  1
  O  O90  1  0.80228650  0.82425850  0.60202300  1
  O  O91  1  0.96400600  0.94700200  0.30694100  1
  O  O92  1  0.76444500  0.17443900  0.58211400  1
  O  O93  1  0.83776250  0.47016950  0.85050900  1
  O  O94  1  0.91510300  0.69293200  0.21168200  1
  O  O95  1  0.85168050  0.42897450  0.98439900  1
  O  O96  1  0.83972650  0.01151850  0.95464900  1
  O  O97  1  0.74357300  0.51565700  0.70141700  1
  O  O98  1  0.75642700  0.01565700  0.79858300  1
  O  O99  1  0.66027350  0.51151850  0.54535100  1
  O  O100  1  0.64831950  0.92897450  0.51560100  1
  O  O101  1  0.80228650  0.17574150  0.10202300  1
  O  O102  1  0.66223750  0.97016950  0.64949100  1
  O  O103  1  0.73555500  0.67443900  0.91788600  1
  O  O104  1  0.76444500  0.82556100  0.08211400  1
  O  O105  1  0.83776250  0.52983050  0.35050900  1
  O  O106  1  0.69771350  0.32425850  0.89797700  1
  O  O107  1  0.85168050  0.57102550  0.48439900  1
  O  O108  1  0.83972650  0.98848150  0.45464900  1
  O  O109  1  0.74357300  0.48434300  0.20141700  1
  O  O110  1  0.75642700  0.98434300  0.29858300  1
  O  O111  1  0.66027350  0.48848150  0.04535100  1
  O  O112  1  0.64831950  0.07102550  0.01560100  1
  O  O113  1  0.58489700  0.80706800  0.78831800  1
  O  O114  1  0.66223750  0.02983050  0.14949100  1
  O  O115  1  0.73555500  0.32556100  0.41788600  1
  O  O116  1  0.53599400  0.55299800  0.69305900  1
  O  O117  1  0.69771350  0.67574150  0.39797700  1
  O  O118  1  0.53806100  0.77218500  0.93503500  1
  O  O119  1  0.51667850  0.16455250  0.86302700  1
  O  O120  1  0.58489700  0.19293200  0.28831800  1
  O  O121  1  0.53599400  0.44700200  0.19305900  1
  O  O122  1  0.53806100  0.22781500  0.43503500  1
  O  O123  1  0.51667850  0.83544750  0.36302700  1
  O  O124  1  0.48332150  0.16455250  0.63697300  1
  O  O125  1  0.46193900  0.77218500  0.56496500  1
  O  O126  1  0.46400600  0.55299800  0.80694100  1
  O  O127  1  0.41510300  0.80706800  0.71168200  1
  O  O128  1  0.48332150  0.83544750  0.13697300  1
  O  O129  1  0.46193900  0.22781500  0.06496500  1
  O  O130  1  0.30228650  0.32425850  0.60202300  1
  O  O131  1  0.46400600  0.44700200  0.30694100  1
  O  O132  1  0.26444500  0.67443900  0.58211400  1
  O  O133  1  0.33776250  0.97016950  0.85050900  1
  O  O134  1  0.41510300  0.19293200  0.21168200  1
  O  O135  1  0.35168050  0.92897450  0.98439900  1
  O  O136  1  0.33972650  0.51151850  0.95464900  1
  O  O137  1  0.24357300  0.01565700  0.70141700  1
  O  O138  1  0.25642700  0.51565700  0.79858300  1
  O  O139  1  0.16027350  0.01151850  0.54535100  1
  O  O140  1  0.14831950  0.42897450  0.51560100  1
  O  O141  1  0.30228650  0.67574150  0.10202300  1
  O  O142  1  0.16223750  0.47016950  0.64949100  1
  O  O143  1  0.23555500  0.17443900  0.91788600  1
  O  O144  1  0.26444500  0.32556100  0.08211400  1
  O  O145  1  0.33776250  0.02983050  0.35050900  1
  O  O146  1  0.19771350  0.82425850  0.89797700  1
  O  O147  1  0.35168050  0.07102550  0.48439900  1
  O  O148  1  0.33972650  0.48848150  0.45464900  1
  O  O149  1  0.24357300  0.98434300  0.20141700  1
  O  O150  1  0.25642700  0.48434300  0.29858300  1
  O  O151  1  0.16027350  0.98848150  0.04535100  1
  O  O152  1  0.14831950  0.57102550  0.01560100  1
  O  O153  1  0.08489700  0.30706800  0.78831800  1
  O  O154  1  0.16223750  0.52983050  0.14949100  1
  O  O155  1  0.23555500  0.82556100  0.41788600  1
  O  O156  1  0.03599400  0.05299800  0.69305900  1
  O  O157  1  0.19771350  0.17574150  0.39797700  1
  O  O158  1  0.03806100  0.27218500  0.93503500  1
  O  O159  1  0.01667850  0.66455250  0.86302700  1
  O  O160  1  0.08489700  0.69293200  0.28831800  1
  O  O161  1  0.03599400  0.94700200  0.19305900  1
  O  O162  1  0.03806100  0.72781500  0.43503500  1
  O  O163  1  0.01667850  0.33544750  0.36302700  1
