# generated using pymatgen
data_K2HS2NO6
_symmetry_space_group_name_H-M   'P 1'
_cell_length_a   12.74314600
_cell_length_b   7.73230400
_cell_length_c   7.27815879
_cell_angle_alpha   90.00000000
_cell_angle_beta   90.02671855
_cell_angle_gamma   90.00000000
_symmetry_Int_Tables_number   1
_chemical_formula_structural   K2HS2NO6
_chemical_formula_sum   'K8 H4 S8 N4 O24'
_cell_volume   717.14513817
_cell_formula_units_Z   4
loop_
 _symmetry_equiv_pos_site_id
 _symmetry_equiv_pos_as_xyz
  1  'x, y, z'
loop_
 _atom_site_type_symbol
 _atom_site_label
 _atom_site_symmetry_multiplicity
 _atom_site_fract_x
 _atom_site_fract_y
 _atom_site_fract_z
 _atom_site_occupancy
  K  K0  1  0.84559450  0.86340550  0.14164900  1
  K  K1  1  0.15440550  0.86340550  0.35835100  1
  K  K2  1  0.15440550  0.13659450  0.85835100  1
  K  K3  1  0.84559450  0.13659450  0.64164900  1
  K  K4  1  0.34559450  0.36340550  0.14164900  1
  K  K5  1  0.65440550  0.36340550  0.35835100  1
  K  K6  1  0.65440550  0.63659450  0.85835100  1
  K  K7  1  0.34559450  0.63659450  0.64164900  1
  H  H8  1  0.50000000  0.04718600  0.25000000  1
  H  H9  1  0.50000000  0.95281400  0.75000000  1
  H  H10  1  0.00000000  0.54718600  0.25000000  1
  H  H11  1  0.00000000  0.45281400  0.75000000  1
  S  S12  1  0.40025150  0.82207050  0.13773000  1
  S  S13  1  0.59974850  0.82207050  0.36227000  1
  S  S14  1  0.59974850  0.17792950  0.86227000  1
  S  S15  1  0.40025150  0.17792950  0.63773000  1
  S  S16  1  0.90025150  0.32207050  0.13773000  1
  S  S17  1  0.09974850  0.32207050  0.36227000  1
  S  S18  1  0.09974850  0.67792950  0.86227000  1
  S  S19  1  0.90025150  0.67792950  0.63773000  1
  N  N20  1  0.50000000  0.91556700  0.25000000  1
  N  N21  1  0.50000000  0.08443300  0.75000000  1
  N  N22  1  0.00000000  0.41556700  0.25000000  1
  N  N23  1  0.00000000  0.58443300  0.75000000  1
  O  O24  1  0.44282700  0.73050700  0.97690500  1
  O  O25  1  0.55717300  0.73050700  0.52309500  1
  O  O26  1  0.55717300  0.26949300  0.02309500  1
  O  O27  1  0.44282700  0.26949300  0.47690500  1
  O  O28  1  0.33350900  0.96966600  0.09228900  1
  O  O29  1  0.66649100  0.96966600  0.40771100  1
  O  O30  1  0.66649100  0.03033400  0.90771100  1
  O  O31  1  0.33350900  0.03033400  0.59228900  1
  O  O32  1  0.35233950  0.70003750  0.26792600  1
  O  O33  1  0.64766050  0.70003750  0.23207400  1
  O  O34  1  0.64766050  0.29996250  0.73207400  1
  O  O35  1  0.35233950  0.29996250  0.76792600  1
  O  O36  1  0.94282700  0.23050700  0.97690500  1
  O  O37  1  0.05717300  0.23050700  0.52309500  1
  O  O38  1  0.05717300  0.76949300  0.02309500  1
  O  O39  1  0.94282700  0.76949300  0.47690500  1
  O  O40  1  0.83350900  0.46966600  0.09228900  1
  O  O41  1  0.16649100  0.46966600  0.40771100  1
  O  O42  1  0.16649100  0.53033400  0.90771100  1
  O  O43  1  0.83350900  0.53033400  0.59228900  1
  O  O44  1  0.85233950  0.20003750  0.26792600  1
  O  O45  1  0.14766050  0.20003750  0.23207400  1
  O  O46  1  0.14766050  0.79996250  0.73207400  1
  O  O47  1  0.85233950  0.79996250  0.76792600  1
