# generated using pymatgen
data_V2O2F3
_symmetry_space_group_name_H-M   'P 1'
_cell_length_a   9.95926200
_cell_length_b   5.13322400
_cell_length_c   7.25952420
_cell_angle_alpha   90.00000000
_cell_angle_beta   111.07994732
_cell_angle_gamma   90.00000000
_symmetry_Int_Tables_number   1
_chemical_formula_structural   V2O2F3
_chemical_formula_sum   'V8 O8 F12'
_cell_volume   346.29336097
_cell_formula_units_Z   4
loop_
 _symmetry_equiv_pos_site_id
 _symmetry_equiv_pos_as_xyz
  1  'x, y, z'
loop_
 _atom_site_type_symbol
 _atom_site_label
 _atom_site_symmetry_multiplicity
 _atom_site_fract_x
 _atom_site_fract_y
 _atom_site_fract_z
 _atom_site_occupancy
  V  V0  1  0.80019300  0.48774000  0.12211900  1
  V  V1  1  0.70653200  0.98931800  0.38068400  1
  V  V2  1  0.80019300  0.51226000  0.62211900  1
  V  V3  1  0.70653200  0.01068200  0.88068400  1
  V  V4  1  0.30019300  0.98774000  0.12211900  1
  V  V5  1  0.20653200  0.48931800  0.38068400  1
  V  V6  1  0.30019300  0.01226000  0.62211900  1
  V  V7  1  0.20653200  0.51068200  0.88068400  1
  O  O8  1  0.71204050  0.16402750  0.14731000  1
  O  O9  1  0.71204050  0.83597250  0.64731000  1
  O  O10  1  0.78696300  0.68893100  0.35875100  1
  O  O11  1  0.78696300  0.31106900  0.85875100  1
  O  O12  1  0.21204050  0.66402750  0.14731000  1
  O  O13  1  0.21204050  0.33597250  0.64731000  1
  O  O14  1  0.28696300  0.18893100  0.35875100  1
  O  O15  1  0.28696300  0.81106900  0.85875100  1
  F  F16  1  0.87979500  0.81799600  0.03882500  1
  F  F17  1  0.87979500  0.18200400  0.53882500  1
  F  F18  1  0.50356150  0.88855550  0.25096300  1
  F  F19  1  0.50356150  0.11144450  0.75096300  1
  F  F20  1  0.62641500  0.31226600  0.45892700  1
  F  F21  1  0.62641500  0.68773400  0.95892700  1
  F  F22  1  0.37979500  0.31799600  0.03882500  1
  F  F23  1  0.37979500  0.68200400  0.53882500  1
  F  F24  1  0.00356150  0.38855550  0.25096300  1
  F  F25  1  0.00356150  0.61144450  0.75096300  1
  F  F26  1  0.12641500  0.81226600  0.45892700  1
  F  F27  1  0.12641500  0.18773400  0.95892700  1
