# generated using pymatgen
data_Zr2N2O
_symmetry_space_group_name_H-M   'P 1'
_cell_length_a   8.86647700
_cell_length_b   8.87546051
_cell_length_c   8.87770185
_cell_angle_alpha   109.45060640
_cell_angle_beta   109.46046038
_cell_angle_gamma   109.46636721
_symmetry_Int_Tables_number   1
_chemical_formula_structural   Zr2N2O
_chemical_formula_sum   'Zr16 N16 O8'
_cell_volume   538.04012903
_cell_formula_units_Z   8
loop_
 _symmetry_equiv_pos_site_id
 _symmetry_equiv_pos_as_xyz
  1  'x, y, z'
loop_
 _atom_site_type_symbol
 _atom_site_label
 _atom_site_symmetry_multiplicity
 _atom_site_fract_x
 _atom_site_fract_y
 _atom_site_fract_z
 _atom_site_occupancy
  Zr  Zr0  1  0.01141400  0.00147400  0.50999500  1
  Zr  Zr1  1  0.79225600  0.75151100  0.03394600  1
  Zr  Zr2  1  0.74760600  0.52622500  0.28522200  1
  Zr  Zr3  1  0.24643500  0.96180500  0.21431500  1
  Zr  Zr4  1  0.97123800  0.22005300  0.25374600  1
  Zr  Zr5  1  0.46293800  0.71093400  0.24539700  1
  Zr  Zr6  1  0.70372600  0.23854500  0.45624700  1
  Zr  Zr7  1  0.00034400  0.49206200  0.98928800  1
  Zr  Zr8  1  0.50071000  0.99959900  0.99746600  1
  Zr  Zr9  1  0.48786200  0.49202700  0.49732000  1
  Zr  Zr10  1  0.28090900  0.75317800  0.54720400  1
  Zr  Zr11  1  0.03333300  0.78501500  0.74984600  1
  Zr  Zr12  1  0.53140900  0.28355600  0.74300700  1
  Zr  Zr13  1  0.75706200  0.04645800  0.78711600  1
  Zr  Zr14  1  0.25830100  0.46955700  0.71803500  1
  Zr  Zr15  1  0.21585500  0.25749000  0.96588200  1
  N  N16  1  0.51136600  0.96314200  0.23809700  1
  N  N17  1  0.95100300  0.98401100  0.72454800  1
  N  N18  1  0.74005600  0.27343400  0.22803200  1
  N  N19  1  0.98829900  0.72683900  0.95500100  1
  N  N20  1  0.47008900  0.45471300  0.22936300  1
  N  N21  1  0.77711300  0.26506600  0.72756400  1
  N  N22  1  0.53862600  0.55115900  0.77485200  1
  N  N23  1  0.03088100  0.75859000  0.48278400  1
  N  N24  1  0.22829000  0.46665200  0.45673900  1
  N  N25  1  0.00642500  0.27181700  0.04407500  1
  N  N26  1  0.45474600  0.22926400  0.46473900  1
  N  N27  1  0.26116400  0.73085200  0.77721800  1
  N  N28  1  0.04277000  0.01234300  0.27256100  1
  N  N29  1  0.23928800  0.51437200  0.97009500  1
  N  N30  1  0.49168000  0.03423600  0.76410700  1
  N  N31  1  0.27054600  0.22675700  0.73688300  1
  O  O32  1  0.72406400  0.76945300  0.25603500  1
  O  O33  1  0.76285200  0.49404100  0.03746800  1
  O  O34  1  0.54171400  0.77243700  0.52963900  1
  O  O35  1  0.77382400  0.53502100  0.54620300  1
  O  O36  1  0.23049600  0.74034700  0.27488200  1
  O  O37  1  0.72459300  0.95199200  0.98871600  1
  O  O38  1  0.96488400  0.23838300  0.51309000  1
  O  O39  1  0.27383300  0.04558800  0.01327400  1
