# generated using pymatgen
data_LaAl12O19
_symmetry_space_group_name_H-M   'P 1'
_cell_length_a   5.65046400
_cell_length_b   9.77221600
_cell_length_c   22.29927304
_cell_angle_alpha   90.00000000
_cell_angle_beta   90.00344814
_cell_angle_gamma   90.00000000
_symmetry_Int_Tables_number   1
_chemical_formula_structural   LaAl12O19
_chemical_formula_sum   'La4 Al48 O76'
_cell_volume   1231.31132683
_cell_formula_units_Z   4
loop_
 _symmetry_equiv_pos_site_id
 _symmetry_equiv_pos_as_xyz
  1  'x, y, z'
loop_
 _atom_site_type_symbol
 _atom_site_label
 _atom_site_symmetry_multiplicity
 _atom_site_fract_x
 _atom_site_fract_y
 _atom_site_fract_z
 _atom_site_occupancy
  La  La0  1  0.50731850  0.16420550  0.25133600  1
  La  La1  1  0.50731850  0.83579450  0.75133600  1
  La  La2  1  0.00731850  0.66420550  0.25133600  1
  La  La3  1  0.00731850  0.33579450  0.75133600  1
  Al  Al4  1  0.25062550  0.08368650  0.39107500  1
  Al  Al5  1  0.25306050  0.08450950  0.10800000  1
  Al  Al6  1  0.50104900  0.16724700  0.80994000  1
  Al  Al7  1  0.49975550  0.16673450  0.97340300  1
  Al  Al8  1  0.50107400  0.16726200  0.68973600  1
  Al  Al9  1  0.49971800  0.16673800  0.52609000  1
  Al  Al10  1  0.00168850  0.99941450  0.23979900  1
  Al  Al11  1  0.50004600  0.50018100  0.99981700  1
  Al  Al12  1  0.00168850  0.00058550  0.73979900  1
  Al  Al13  1  0.50004600  0.49981900  0.49981700  1
  Al  Al14  1  0.49988400  0.33294700  0.39106900  1
  Al  Al15  1  0.49985050  0.33132950  0.10802400  1
  Al  Al16  1  0.74682700  0.08445500  0.10779300  1
  Al  Al17  1  0.74919850  0.08366750  0.39137200  1
  Al  Al18  1  0.25062550  0.91631350  0.89107500  1
  Al  Al19  1  0.25306050  0.91549050  0.60800000  1
  Al  Al20  1  0.49985050  0.66867050  0.60802400  1
  Al  Al21  1  0.50104900  0.83275300  0.30994000  1
  Al  Al22  1  0.50107400  0.83273800  0.18973600  1
  Al  Al23  1  0.49975550  0.83326550  0.47340300  1
  Al  Al24  1  0.49971800  0.83326200  0.02609000  1
  Al  Al25  1  0.49988400  0.66705300  0.89106900  1
  Al  Al26  1  0.74919850  0.91633250  0.89137200  1
  Al  Al27  1  0.74682700  0.91554500  0.60779300  1
  Al  Al28  1  0.75062550  0.58368650  0.39107500  1
  Al  Al29  1  0.75306050  0.58450950  0.10800000  1
  Al  Al30  1  0.00104900  0.66724700  0.80994000  1
  Al  Al31  1  0.99975550  0.66673450  0.97340300  1
  Al  Al32  1  0.00107400  0.66726200  0.68973600  1
  Al  Al33  1  0.99971800  0.66673800  0.52609000  1
  Al  Al34  1  0.50168850  0.49941450  0.23979900  1
  Al  Al35  1  0.00004600  0.00018100  0.99981700  1
  Al  Al36  1  0.50168850  0.50058550  0.73979900  1
  Al  Al37  1  0.00004600  0.99981900  0.49981700  1
  Al  Al38  1  0.99988400  0.83294700  0.39106900  1
  Al  Al39  1  0.99985050  0.83132950  0.10802400  1
  Al  Al40  1  0.24682700  0.58445500  0.10779300  1
  Al  Al41  1  0.24919850  0.58366750  0.39137200  1
  Al  Al42  1  0.75062550  0.41631350  0.89107500  1
  Al  Al43  1  0.75306050  0.41549050  0.60800000  1
  Al  Al44  1  0.99985050  0.16867050  0.60802400  1
  Al  Al45  1  0.00104900  0.33275300  0.30994000  1
  Al  Al46  1  0.00107400  0.33273800  0.18973600  1
  Al  Al47  1  0.99975550  0.33326550  0.47340300  1
  Al  Al48  1  0.99971800  0.33326200  0.02609000  1
  Al  Al49  1  0.99988400  0.16705300  0.89106900  1
  Al  Al50  1  0.24919850  0.41633250  0.89137200  1
  Al  Al51  1  0.24682700  0.41554500  0.60779300  1
  O  O52  1  0.23271900  0.07776800  0.94751100  1
  O  O53  1  0.23122750  0.07726250  0.55335300  1
  O  O54  1  0.25652500  0.24795300  0.34937300  1
  O  O55  1  0.25700200  0.24779000  0.15015900  1
  O  O56  1  0.27377100  0.09141600  0.74910400  1
  O  O57  1  0.49977150  0.34587550  0.55330700  1
  O  O58  1  0.50001350  0.50011950  0.15126200  1
  O  O59  1  0.49991850  0.16682650  0.44300000  1
  O  O60  1  0.49986900  0.50015800  0.85155700  1
  O  O61  1  0.50001350  0.49988050  0.65126200  1
  O  O62  1  0.49986900  0.49984200  0.35155700  1
  O  O63  1  0.49988850  0.16681250  0.05655300  1
  O  O64  1  0.50021000  0.00419100  0.34944400  1
  O  O65  1  0.50020800  0.00464000  0.15013600  1
  O  O66  1  0.49849050  0.31917950  0.74908700  1
  O  O67  1  0.49987550  0.34488850  0.94756200  1
  O  O68  1  0.72765950  0.08995650  0.74908600  1
  O  O69  1  0.23271900  0.92223200  0.44751100  1
  O  O70  1  0.23122750  0.92273750  0.05335300  1
  O  O71  1  0.74396600  0.24795700  0.34941800  1
  O  O72  1  0.74330850  0.24773950  0.15014700  1
  O  O73  1  0.25700200  0.75221000  0.65015900  1
  O  O74  1  0.25652500  0.75204700  0.84937300  1
  O  O75  1  0.76703350  0.07782950  0.94755700  1
  O  O76  1  0.76849000  0.07733400  0.55331400  1
  O  O77  1  0.27377100  0.90858400  0.24910400  1
  O  O78  1  0.50020800  0.99536000  0.65013600  1
  O  O79  1  0.49988850  0.83318750  0.55655300  1
  O  O80  1  0.50021000  0.99580900  0.84944400  1
  O  O81  1  0.49849050  0.68082050  0.24908700  1
  O  O82  1  0.49991850  0.83317350  0.94300000  1
  O  O83  1  0.49987550  0.65511150  0.44756200  1
  O  O84  1  0.49977150  0.65412450  0.05330700  1
  O  O85  1  0.72765950  0.91004350  0.24908600  1
  O  O86  1  0.74396600  0.75204300  0.84941800  1
  O  O87  1  0.74330850  0.75226050  0.65014700  1
  O  O88  1  0.76703350  0.92217050  0.44755700  1
  O  O89  1  0.76849000  0.92266600  0.05331400  1
  O  O90  1  0.73271900  0.57776800  0.94751100  1
  O  O91  1  0.73122750  0.57726250  0.55335300  1
  O  O92  1  0.75652500  0.74795300  0.34937300  1
  O  O93  1  0.75700200  0.74779000  0.15015900  1
  O  O94  1  0.77377100  0.59141600  0.74910400  1
  O  O95  1  0.99977150  0.84587550  0.55330700  1
  O  O96  1  0.00001350  0.00011950  0.15126200  1
  O  O97  1  0.99991850  0.66682650  0.44300000  1
  O  O98  1  0.99986900  0.00015800  0.85155700  1
  O  O99  1  0.00001350  0.99988050  0.65126200  1
  O  O100  1  0.99986900  0.99984200  0.35155700  1
  O  O101  1  0.99988850  0.66681250  0.05655300  1
  O  O102  1  0.00021000  0.50419100  0.34944400  1
  O  O103  1  0.00020800  0.50464000  0.15013600  1
  O  O104  1  0.99849050  0.81917950  0.74908700  1
  O  O105  1  0.99987550  0.84488850  0.94756200  1
  O  O106  1  0.22765950  0.58995650  0.74908600  1
  O  O107  1  0.73271900  0.42223200  0.44751100  1
  O  O108  1  0.73122750  0.42273750  0.05335300  1
  O  O109  1  0.24396600  0.74795700  0.34941800  1
  O  O110  1  0.24330850  0.74773950  0.15014700  1
  O  O111  1  0.75700200  0.25221000  0.65015900  1
  O  O112  1  0.75652500  0.25204700  0.84937300  1
  O  O113  1  0.26703350  0.57782950  0.94755700  1
  O  O114  1  0.26849000  0.57733400  0.55331400  1
  O  O115  1  0.77377100  0.40858400  0.24910400  1
  O  O116  1  0.00020800  0.49536000  0.65013600  1
  O  O117  1  0.99988850  0.33318750  0.55655300  1
  O  O118  1  0.00021000  0.49580900  0.84944400  1
  O  O119  1  0.99849050  0.18082050  0.24908700  1
  O  O120  1  0.99991850  0.33317350  0.94300000  1
  O  O121  1  0.99987550  0.15511150  0.44756200  1
  O  O122  1  0.99977150  0.15412450  0.05330700  1
  O  O123  1  0.22765950  0.41004350  0.24908600  1
  O  O124  1  0.24396600  0.25204300  0.84941800  1
  O  O125  1  0.24330850  0.25226050  0.65014700  1
  O  O126  1  0.26703350  0.42217050  0.44755700  1
  O  O127  1  0.26849000  0.42266600  0.05331400  1
