# generated using pymatgen
data_Sn2P2O7
_symmetry_space_group_name_H-M   'P 1'
_cell_length_a   7.08485800
_cell_length_b   9.67707600
_cell_length_c   9.53555640
_cell_angle_alpha   90.00000000
_cell_angle_beta   99.96498635
_cell_angle_gamma   90.00000000
_symmetry_Int_Tables_number   1
_chemical_formula_structural   Sn2P2O7
_chemical_formula_sum   'Sn8 P8 O28'
_cell_volume   643.90161368
_cell_formula_units_Z   4
loop_
 _symmetry_equiv_pos_site_id
 _symmetry_equiv_pos_as_xyz
  1  'x, y, z'
loop_
 _atom_site_type_symbol
 _atom_site_label
 _atom_site_symmetry_multiplicity
 _atom_site_fract_x
 _atom_site_fract_y
 _atom_site_fract_z
 _atom_site_occupancy
  Sn  Sn0  1  0.49911400  0.80725000  0.00552400  1
  Sn  Sn1  1  0.50088600  0.80725000  0.49447600  1
  Sn  Sn2  1  0.49911400  0.19275000  0.50552400  1
  Sn  Sn3  1  0.50088600  0.19275000  0.99447600  1
  Sn  Sn4  1  0.99911400  0.30725000  0.00552400  1
  Sn  Sn5  1  0.00088600  0.30725000  0.49447600  1
  Sn  Sn6  1  0.99911400  0.69275000  0.50552400  1
  Sn  Sn7  1  0.00088600  0.69275000  0.99447600  1
  P  P8  1  0.20227350  0.97698350  0.71505000  1
  P  P9  1  0.20227350  0.02301650  0.21505000  1
  P  P10  1  0.79772650  0.97698350  0.78495000  1
  P  P11  1  0.79772650  0.02301650  0.28495000  1
  P  P12  1  0.70227350  0.47698350  0.71505000  1
  P  P13  1  0.70227350  0.52301650  0.21505000  1
  P  P14  1  0.29772650  0.47698350  0.78495000  1
  P  P15  1  0.29772650  0.52301650  0.28495000  1
  O  O16  1  0.16885350  0.11863850  0.64745400  1
  O  O17  1  0.25983750  0.86206450  0.61675100  1
  O  O18  1  0.34298050  0.98155550  0.85808300  1
  O  O19  1  0.16885350  0.88136150  0.14745400  1
  O  O20  1  0.50000000  0.41484200  0.75000000  1
  O  O21  1  0.25983750  0.13793550  0.11675100  1
  O  O22  1  0.34298050  0.01844450  0.35808300  1
  O  O23  1  0.65701950  0.98155550  0.64191700  1
  O  O24  1  0.74016250  0.86206450  0.88324900  1
  O  O25  1  0.50000000  0.58515800  0.25000000  1
  O  O26  1  0.83114650  0.11863850  0.85254600  1
  O  O27  1  0.65701950  0.01844450  0.14191700  1
  O  O28  1  0.74016250  0.13793550  0.38324900  1
  O  O29  1  0.83114650  0.88136150  0.35254600  1
  O  O30  1  0.66885350  0.61863850  0.64745400  1
  O  O31  1  0.75983750  0.36206450  0.61675100  1
  O  O32  1  0.84298050  0.48155550  0.85808300  1
  O  O33  1  0.66885350  0.38136150  0.14745400  1
  O  O34  1  0.00000000  0.91484200  0.75000000  1
  O  O35  1  0.75983750  0.63793550  0.11675100  1
  O  O36  1  0.84298050  0.51844450  0.35808300  1
  O  O37  1  0.15701950  0.48155550  0.64191700  1
  O  O38  1  0.24016250  0.36206450  0.88324900  1
  O  O39  1  0.00000000  0.08515800  0.25000000  1
  O  O40  1  0.33114650  0.61863850  0.85254600  1
  O  O41  1  0.15701950  0.51844450  0.14191700  1
  O  O42  1  0.24016250  0.63793550  0.38324900  1
  O  O43  1  0.33114650  0.38136150  0.35254600  1
