# generated using pymatgen
data_LiFe2C2O7
_symmetry_space_group_name_H-M   'P 1'
_cell_length_a   4.88280392
_cell_length_b   8.38672927
_cell_length_c   15.82945038
_cell_angle_alpha   90.00000000
_cell_angle_beta   90.14509548
_cell_angle_gamma   90.00000000
_symmetry_Int_Tables_number   1
_chemical_formula_structural   LiFe2C2O7
_chemical_formula_sum   'Li4 Fe8 C8 O28'
_cell_volume   648.22585931
_cell_formula_units_Z   4
loop_
 _symmetry_equiv_pos_site_id
 _symmetry_equiv_pos_as_xyz
  1  'x, y, z'
loop_
 _atom_site_type_symbol
 _atom_site_label
 _atom_site_symmetry_multiplicity
 _atom_site_fract_x
 _atom_site_fract_y
 _atom_site_fract_z
 _atom_site_occupancy
  Li  Li0  1  0.50113750  0.49907350  0.99587200  1
  Li  Li1  1  0.50113750  0.50092650  0.49587200  1
  Li  Li2  1  0.00113750  0.99907350  0.99587200  1
  Li  Li3  1  0.00113750  0.00092650  0.49587200  1
  Fe  Fe4  1  0.00317750  0.66947450  0.86719600  1
  Fe  Fe5  1  0.99606400  0.66349600  0.63508600  1
  Fe  Fe6  1  0.00317750  0.33052550  0.36719600  1
  Fe  Fe7  1  0.99606400  0.33650400  0.13508600  1
  Fe  Fe8  1  0.50317750  0.16947450  0.86719600  1
  Fe  Fe9  1  0.49606400  0.16349600  0.63508600  1
  Fe  Fe10  1  0.50317750  0.83052550  0.36719600  1
  Fe  Fe11  1  0.49606400  0.83650400  0.13508600  1
  C  C12  1  0.00026550  0.33175150  0.91590700  1
  C  C13  1  0.00083500  0.33190700  0.58612200  1
  C  C14  1  0.00026550  0.66824850  0.41590700  1
  C  C15  1  0.00083500  0.66809300  0.08612200  1
  C  C16  1  0.50026550  0.83175150  0.91590700  1
  C  C17  1  0.50083500  0.83190700  0.58612200  1
  C  C18  1  0.50026550  0.16824850  0.41590700  1
  C  C19  1  0.50083500  0.16809300  0.08612200  1
  O  O20  1  0.14665450  0.46218050  0.58521700  1
  O  O21  1  0.12043150  0.80545250  0.08522800  1
  O  O22  1  0.26529450  0.34653750  0.91544100  1
  O  O23  1  0.88821800  0.80593200  0.41625300  1
  O  O24  1  0.84928400  0.45716800  0.91672200  1
  O  O25  1  0.26529450  0.65346250  0.41544100  1
  O  O26  1  0.99848600  0.33959400  0.24446900  1
  O  O27  1  0.99848600  0.66040600  0.74446900  1
  O  O28  1  0.73607750  0.33941850  0.58657900  1
  O  O29  1  0.14665450  0.53781950  0.08521700  1
  O  O30  1  0.12043150  0.19454750  0.58522800  1
  O  O31  1  0.73607750  0.66058150  0.08657900  1
  O  O32  1  0.88821800  0.19406800  0.91625300  1
  O  O33  1  0.84928400  0.54283200  0.41672200  1
  O  O34  1  0.64665450  0.96218050  0.58521700  1
  O  O35  1  0.62043150  0.30545250  0.08522800  1
  O  O36  1  0.76529450  0.84653750  0.91544100  1
  O  O37  1  0.38821800  0.30593200  0.41625300  1
  O  O38  1  0.34928400  0.95716800  0.91672200  1
  O  O39  1  0.76529450  0.15346250  0.41544100  1
  O  O40  1  0.49848600  0.83959400  0.24446900  1
  O  O41  1  0.49848600  0.16040600  0.74446900  1
  O  O42  1  0.23607750  0.83941850  0.58657900  1
  O  O43  1  0.64665450  0.03781950  0.08521700  1
  O  O44  1  0.62043150  0.69454750  0.58522800  1
  O  O45  1  0.23607750  0.16058150  0.08657900  1
  O  O46  1  0.38821800  0.69406800  0.91625300  1
  O  O47  1  0.34928400  0.04283200  0.41672200  1
