# generated using pymatgen
data_Ba3YI9
_symmetry_space_group_name_H-M   'P 1'
_cell_length_a   8.26189200
_cell_length_b   14.30238200
_cell_length_c   20.41597400
_cell_angle_alpha   90.00000000
_cell_angle_beta   90.00000000
_cell_angle_gamma   90.00000000
_symmetry_Int_Tables_number   1
_chemical_formula_structural   Ba3YI9
_chemical_formula_sum   'Ba12 Y4 I36'
_cell_volume   2412.44816619
_cell_formula_units_Z   4
loop_
 _symmetry_equiv_pos_site_id
 _symmetry_equiv_pos_as_xyz
  1  'x, y, z'
loop_
 _atom_site_type_symbol
 _atom_site_label
 _atom_site_symmetry_multiplicity
 _atom_site_fract_x
 _atom_site_fract_y
 _atom_site_fract_z
 _atom_site_occupancy
  Ba  Ba0  1  0.75000000  0.54940800  0.40145800  1
  Ba  Ba1  1  0.75000000  0.69022300  0.97236200  1
  Ba  Ba2  1  0.25000000  0.73449000  0.17506000  1
  Ba  Ba3  1  0.75000000  0.76551000  0.67506000  1
  Ba  Ba4  1  0.25000000  0.80977700  0.47236200  1
  Ba  Ba5  1  0.25000000  0.95059200  0.90145800  1
  Ba  Ba6  1  0.75000000  0.04940800  0.09854200  1
  Ba  Ba7  1  0.75000000  0.19022300  0.52763800  1
  Ba  Ba8  1  0.25000000  0.23449000  0.32494000  1
  Ba  Ba9  1  0.75000000  0.26551000  0.82494000  1
  Ba  Ba10  1  0.25000000  0.30977700  0.02763800  1
  Ba  Ba11  1  0.25000000  0.45059200  0.59854200  1
  Y  Y12  1  0.25000000  0.52109100  0.82446400  1
  Y  Y13  1  0.75000000  0.97890900  0.32446400  1
  Y  Y14  1  0.25000000  0.02109100  0.67553600  1
  Y  Y15  1  0.75000000  0.47890900  0.17553600  1
  I  I16  1  0.00910200  0.56699900  0.08628200  1
  I  I17  1  0.49089800  0.56699900  0.08628200  1
  I  I18  1  0.99450600  0.58168200  0.73152400  1
  I  I19  1  0.50549400  0.58168200  0.73152400  1
  I  I20  1  0.75000000  0.66151900  0.24737100  1
  I  I21  1  0.25000000  0.66889200  0.33931300  1
  I  I22  1  0.99738200  0.63722200  0.53831800  1
  I  I23  1  0.50261800  0.63722200  0.53831800  1
  I  I24  1  0.25000000  0.68632200  0.91587100  1
  I  I25  1  0.75000000  0.81367800  0.41587100  1
  I  I26  1  0.49738200  0.86277800  0.03831800  1
  I  I27  1  0.00261800  0.86277800  0.03831800  1
  I  I28  1  0.75000000  0.83110800  0.83931300  1
  I  I29  1  0.25000000  0.83848100  0.74737100  1
  I  I30  1  0.00549400  0.91831800  0.23152400  1
  I  I31  1  0.49450600  0.91831800  0.23152400  1
  I  I32  1  0.50910200  0.93300100  0.58628200  1
  I  I33  1  0.99089800  0.93300100  0.58628200  1
  I  I34  1  0.00910200  0.06699900  0.41371800  1
  I  I35  1  0.49089800  0.06699900  0.41371800  1
  I  I36  1  0.50549400  0.08168200  0.76847600  1
  I  I37  1  0.99450600  0.08168200  0.76847600  1
  I  I38  1  0.75000000  0.16151900  0.25262900  1
  I  I39  1  0.25000000  0.16889200  0.16068700  1
  I  I40  1  0.99738200  0.13722200  0.96168200  1
  I  I41  1  0.50261800  0.13722200  0.96168200  1
  I  I42  1  0.25000000  0.18632200  0.58412900  1
  I  I43  1  0.75000000  0.31367800  0.08412900  1
  I  I44  1  0.49738200  0.36277800  0.46168200  1
  I  I45  1  0.00261800  0.36277800  0.46168200  1
  I  I46  1  0.75000000  0.33110800  0.66068700  1
  I  I47  1  0.25000000  0.33848100  0.75262900  1
  I  I48  1  0.00549400  0.41831800  0.26847600  1
  I  I49  1  0.49450600  0.41831800  0.26847600  1
  I  I50  1  0.50910200  0.43300100  0.91371800  1
  I  I51  1  0.99089800  0.43300100  0.91371800  1
