# generated using pymatgen
data_Fe5P4(H3O10)2
_symmetry_space_group_name_H-M   'P 1'
_cell_length_a   17.73337200
_cell_length_b   8.87664600
_cell_length_c   9.24728722
_cell_angle_alpha   90.00000000
_cell_angle_beta   96.72609150
_cell_angle_gamma   90.00000000
_symmetry_Int_Tables_number   1
_chemical_formula_structural   Fe5P4(H3O10)2
_chemical_formula_sum   'Fe20 P16 H24 O80'
_cell_volume   1445.62340414
_cell_formula_units_Z   4
loop_
 _symmetry_equiv_pos_site_id
 _symmetry_equiv_pos_as_xyz
  1  'x, y, z'
loop_
 _atom_site_type_symbol
 _atom_site_label
 _atom_site_symmetry_multiplicity
 _atom_site_fract_x
 _atom_site_fract_y
 _atom_site_fract_z
 _atom_site_occupancy
  Fe  Fe0  1  0.00000000  0.89627600  0.75000000  1
  Fe  Fe1  1  0.00000000  0.10372400  0.25000000  1
  Fe  Fe2  1  0.81244100  0.42540500  0.68282900  1
  Fe  Fe3  1  0.68755900  0.92540500  0.81717100  1
  Fe  Fe4  1  0.68755900  0.07459500  0.31717100  1
  Fe  Fe5  1  0.81244100  0.57459500  0.18282900  1
  Fe  Fe6  1  0.83435050  0.01369550  0.61419900  1
  Fe  Fe7  1  0.66564950  0.51369550  0.88580100  1
  Fe  Fe8  1  0.66564950  0.48630450  0.38580100  1
  Fe  Fe9  1  0.83435050  0.98630450  0.11419900  1
  Fe  Fe10  1  0.50000000  0.39627600  0.75000000  1
  Fe  Fe11  1  0.50000000  0.60372400  0.25000000  1
  Fe  Fe12  1  0.31244100  0.92540500  0.68282900  1
  Fe  Fe13  1  0.18755900  0.42540500  0.81717100  1
  Fe  Fe14  1  0.18755900  0.57459500  0.31717100  1
  Fe  Fe15  1  0.31244100  0.07459500  0.18282900  1
  Fe  Fe16  1  0.33435050  0.51369550  0.61419900  1
  Fe  Fe17  1  0.16564950  0.01369550  0.88580100  1
  Fe  Fe18  1  0.16564950  0.98630450  0.38580100  1
  Fe  Fe19  1  0.33435050  0.48630450  0.11419900  1
  P  P20  1  0.91870800  0.19714600  0.88962000  1
  P  P21  1  0.58129200  0.69714600  0.61038000  1
  P  P22  1  0.58129200  0.30285400  0.11038000  1
  P  P23  1  0.91870800  0.80285400  0.38962000  1
  P  P24  1  0.84443700  0.74359900  0.85813100  1
  P  P25  1  0.65556300  0.24359900  0.64186900  1
  P  P26  1  0.65556300  0.75640100  0.14186900  1
  P  P27  1  0.84443700  0.25640100  0.35813100  1
  P  P28  1  0.41870800  0.69714600  0.88962000  1
  P  P29  1  0.08129200  0.19714600  0.61038000  1
  P  P30  1  0.08129200  0.80285400  0.11038000  1
  P  P31  1  0.41870800  0.30285400  0.38962000  1
  P  P32  1  0.34443700  0.24359900  0.85813100  1
  P  P33  1  0.15556300  0.74359900  0.64186900  1
  P  P34  1  0.15556300  0.25640100  0.14186900  1
  P  P35  1  0.34443700  0.75640100  0.35813100  1
  H  H36  1  0.95824800  0.41601300  0.62763400  1
  H  H37  1  0.54175200  0.91601300  0.87236600  1
  H  H38  1  0.54175200  0.08398700  0.37236600  1
  H  H39  1  0.95824800  0.58398700  0.12763400  1
  H  H40  1  0.93377200  0.57853800  0.70564000  1
  H  H41  1  0.56622800  0.07853800  0.79436000  1
  H  H42  1  0.56622800  0.92146200  0.29436000  1
  H  H43  1  0.93377200  0.42146200  0.20564000  1
  H  H44  1  0.71422300  0.88401600  0.52104800  1
  H  H45  1  0.78577700  0.38401600  0.97895200  1
  H  H46  1  0.78577700  0.61598400  0.47895200  1
  H  H47  1  0.71422300  0.11598400  0.02104800  1
  H  H48  1  0.45824800  0.91601300  0.62763400  1
  H  H49  1  0.04175200  0.41601300  0.87236600  1
  H  H50  1  0.04175200  0.58398700  0.37236600  1
  H  H51  1  0.45824800  0.08398700  0.12763400  1
  H  H52  1  0.43377200  0.07853800  0.70564000  1
  H  H53  1  0.06622800  0.57853800  0.79436000  1
  H  H54  1  0.06622800  0.42146200  0.29436000  1
  H  H55  1  0.43377200  0.92146200  0.20564000  1
  H  H56  1  0.21422300  0.38401600  0.52104800  1
  H  H57  1  0.28577700  0.88401600  0.97895200  1
  H  H58  1  0.28577700  0.11598400  0.47895200  1
  H  H59  1  0.21422300  0.61598400  0.02104800  1
  O  O60  1  0.92549850  0.73836550  0.82019700  1
  O  O61  1  0.57450150  0.23836550  0.67980300  1
  O  O62  1  0.57450150  0.76163450  0.17980300  1
  O  O63  1  0.92549850  0.26163450  0.32019700  1
  O  O64  1  0.91874850  0.06867650  0.77071400  1
  O  O65  1  0.58125150  0.56867650  0.72928600  1
  O  O66  1  0.58125150  0.43132350  0.22928600  1
  O  O67  1  0.91874850  0.93132350  0.27071400  1
  O  O68  1  0.98883600  0.28999300  0.90626800  1
  O  O69  1  0.51116400  0.78999300  0.59373200  1
  O  O70  1  0.51116400  0.21000700  0.09373200  1
  O  O71  1  0.98883600  0.71000700  0.40626800  1
  O  O72  1  0.91107900  0.11090900  0.03825800  1
  O  O73  1  0.58892100  0.61090900  0.46174200  1
  O  O74  1  0.58892100  0.38909100  0.96174200  1
  O  O75  1  0.91107900  0.88909100  0.53825800  1
  O  O76  1  0.84367200  0.28645200  0.84457800  1
  O  O77  1  0.65632800  0.78645200  0.65542200  1
  O  O78  1  0.65632800  0.21354800  0.15542200  1
  O  O79  1  0.84367200  0.71354800  0.34457800  1
  O  O80  1  0.83608200  0.77357500  0.02440100  1
  O  O81  1  0.66391800  0.27357500  0.47559900  1
  O  O82  1  0.66391800  0.72642500  0.97559900  1
  O  O83  1  0.83608200  0.22642500  0.52440100  1
  O  O84  1  0.91560500  0.49154200  0.64332200  1
  O  O85  1  0.58439500  0.99154200  0.85667800  1
  O  O86  1  0.58439500  0.00845800  0.35667800  1
  O  O87  1  0.91560500  0.50845800  0.14332200  1
  O  O88  1  0.79849900  0.87403900  0.77083600  1
  O  O89  1  0.70150100  0.37403900  0.72916400  1
  O  O90  1  0.70150100  0.62596100  0.22916400  1
  O  O91  1  0.79849900  0.12596100  0.27083600  1
  O  O92  1  0.74729850  0.95331050  0.47376500  1
  O  O93  1  0.75270150  0.45331050  0.02623500  1
  O  O94  1  0.75270150  0.54668950  0.52623500  1
  O  O95  1  0.74729850  0.04668950  0.97376500  1
  O  O96  1  0.80263900  0.59581100  0.81546900  1
  O  O97  1  0.69736100  0.09581100  0.68453100  1
  O  O98  1  0.69736100  0.90418900  0.18453100  1
  O  O99  1  0.80263900  0.40418900  0.31546900  1
  O  O100  1  0.42549850  0.23836550  0.82019700  1
  O  O101  1  0.07450150  0.73836550  0.67980300  1
  O  O102  1  0.07450150  0.26163450  0.17980300  1
  O  O103  1  0.42549850  0.76163450  0.32019700  1
  O  O104  1  0.41874850  0.56867650  0.77071400  1
  O  O105  1  0.08125150  0.06867650  0.72928600  1
  O  O106  1  0.08125150  0.93132350  0.22928600  1
  O  O107  1  0.41874850  0.43132350  0.27071400  1
  O  O108  1  0.48883600  0.78999300  0.90626800  1
  O  O109  1  0.01116400  0.28999300  0.59373200  1
  O  O110  1  0.01116400  0.71000700  0.09373200  1
  O  O111  1  0.48883600  0.21000700  0.40626800  1
  O  O112  1  0.41107900  0.61090900  0.03825800  1
  O  O113  1  0.08892100  0.11090900  0.46174200  1
  O  O114  1  0.08892100  0.88909100  0.96174200  1
  O  O115  1  0.41107900  0.38909100  0.53825800  1
  O  O116  1  0.34367200  0.78645200  0.84457800  1
  O  O117  1  0.15632800  0.28645200  0.65542200  1
  O  O118  1  0.15632800  0.71354800  0.15542200  1
  O  O119  1  0.34367200  0.21354800  0.34457800  1
  O  O120  1  0.33608200  0.27357500  0.02440100  1
  O  O121  1  0.16391800  0.77357500  0.47559900  1
  O  O122  1  0.16391800  0.22642500  0.97559900  1
  O  O123  1  0.33608200  0.72642500  0.52440100  1
  O  O124  1  0.41560500  0.99154200  0.64332200  1
  O  O125  1  0.08439500  0.49154200  0.85667800  1
  O  O126  1  0.08439500  0.50845800  0.35667800  1
  O  O127  1  0.41560500  0.00845800  0.14332200  1
  O  O128  1  0.29849900  0.37403900  0.77083600  1
  O  O129  1  0.20150100  0.87403900  0.72916400  1
  O  O130  1  0.20150100  0.12596100  0.22916400  1
  O  O131  1  0.29849900  0.62596100  0.27083600  1
  O  O132  1  0.24729850  0.45331050  0.47376500  1
  O  O133  1  0.25270150  0.95331050  0.02623500  1
  O  O134  1  0.25270150  0.04668950  0.52623500  1
  O  O135  1  0.24729850  0.54668950  0.97376500  1
  O  O136  1  0.30263900  0.09581100  0.81546900  1
  O  O137  1  0.19736100  0.59581100  0.68453100  1
  O  O138  1  0.19736100  0.40418900  0.18453100  1
  O  O139  1  0.30263900  0.90418900  0.31546900  1
