# generated using pymatgen
data_Li3CuF6
_symmetry_space_group_name_H-M   'P 1'
_cell_length_a   8.50815250
_cell_length_b   8.50815250
_cell_length_c   10.08287933
_cell_angle_alpha   90.00000000
_cell_angle_beta   90.00000000
_cell_angle_gamma   120.00000000
_symmetry_Int_Tables_number   1
_chemical_formula_structural   Li3CuF6
_chemical_formula_sum   'Li18 Cu6 F36'
_cell_volume   632.09991573
_cell_formula_units_Z   6
loop_
 _symmetry_equiv_pos_site_id
 _symmetry_equiv_pos_as_xyz
  1  'x, y, z'
loop_
 _atom_site_type_symbol
 _atom_site_label
 _atom_site_symmetry_multiplicity
 _atom_site_fract_x
 _atom_site_fract_y
 _atom_site_fract_z
 _atom_site_occupancy
  Li  Li0  1  0.77638133  0.04280267  0.29182167  1
  Li  Li1  1  0.95719733  0.73357867  0.29182167  1
  Li  Li2  1  0.73357867  0.77638133  0.70817833  1
  Li  Li3  1  0.26642133  0.22361867  0.29182167  1
  Li  Li4  1  0.04280267  0.26642133  0.70817833  1
  Li  Li5  1  0.22361867  0.95719733  0.70817833  1
  Li  Li6  1  0.44304800  0.37613600  0.62515500  1
  Li  Li7  1  0.62386400  0.06691200  0.62515500  1
  Li  Li8  1  0.40024533  0.10971467  0.04151167  1
  Li  Li9  1  0.93308800  0.55695200  0.62515500  1
  Li  Li10  1  0.70946933  0.59975467  0.04151167  1
  Li  Li11  1  0.89028533  0.29053067  0.04151167  1
  Li  Li12  1  0.10971467  0.70946933  0.95848833  1
  Li  Li13  1  0.29053067  0.40024533  0.95848833  1
  Li  Li14  1  0.06691200  0.44304800  0.37484500  1
  Li  Li15  1  0.59975467  0.89028533  0.95848833  1
  Li  Li16  1  0.37613600  0.93308800  0.37484500  1
  Li  Li17  1  0.55695200  0.62386400  0.37484500  1
  Cu  Cu18  1  0.00000000  0.00000000  0.00000000  1
  Cu  Cu19  1  0.00000000  0.00000000  0.50000000  1
  Cu  Cu20  1  0.66666667  0.33333333  0.33333333  1
  Cu  Cu21  1  0.66666667  0.33333333  0.83333333  1
  Cu  Cu22  1  0.33333333  0.66666667  0.66666667  1
  Cu  Cu23  1  0.33333333  0.66666667  0.16666667  1
  F  F24  1  0.50840233  0.63910367  0.56422567  1
  F  F25  1  0.63910367  0.13070133  0.43577433  1
  F  F26  1  0.81286500  0.83526300  0.38196800  1
  F  F27  1  0.86929867  0.50840233  0.43577433  1
  F  F28  1  0.02239800  0.18713500  0.38196800  1
  F  F29  1  0.83526300  0.02239800  0.61803200  1
  F  F30  1  0.16473700  0.97760200  0.38196800  1
  F  F31  1  0.97760200  0.81286500  0.61803200  1
  F  F32  1  0.13070133  0.49159767  0.56422567  1
  F  F33  1  0.18713500  0.16473700  0.61803200  1
  F  F34  1  0.36089633  0.86929867  0.56422567  1
  F  F35  1  0.49159767  0.36089633  0.43577433  1
  F  F36  1  0.17506900  0.97243700  0.89755900  1
  F  F37  1  0.30577033  0.46403467  0.76910767  1
  F  F38  1  0.47953167  0.16859633  0.71530133  1
  F  F39  1  0.53596533  0.84173567  0.76910767  1
  F  F40  1  0.68906467  0.52046833  0.71530133  1
  F  F41  1  0.50192967  0.35573133  0.95136533  1
  F  F42  1  0.83140367  0.31093533  0.71530133  1
  F  F43  1  0.64426867  0.14619833  0.95136533  1
  F  F44  1  0.79736800  0.82493100  0.89755900  1
  F  F45  1  0.85380167  0.49807033  0.95136533  1
  F  F46  1  0.02756300  0.20263200  0.89755900  1
  F  F47  1  0.15826433  0.69422967  0.76910767  1
  F  F48  1  0.84173567  0.30577033  0.23089233  1
  F  F49  1  0.97243700  0.79736800  0.10244100  1
  F  F50  1  0.14619833  0.50192967  0.04863467  1
  F  F51  1  0.20263200  0.17506900  0.10244100  1
  F  F52  1  0.35573133  0.85380167  0.04863467  1
  F  F53  1  0.16859633  0.68906467  0.28469867  1
  F  F54  1  0.49807033  0.64426867  0.04863467  1
  F  F55  1  0.31093533  0.47953167  0.28469867  1
  F  F56  1  0.46403467  0.15826433  0.23089233  1
  F  F57  1  0.52046833  0.83140367  0.28469867  1
  F  F58  1  0.69422967  0.53596533  0.23089233  1
  F  F59  1  0.82493100  0.02756300  0.10244100  1
