# generated using pymatgen
data_Nd2Zr3(MoO4)9
_symmetry_space_group_name_H-M   'P 1'
_cell_length_a   9.98572848
_cell_length_b   9.98572848
_cell_length_c   59.59666346
_cell_angle_alpha   90.00000000
_cell_angle_beta   90.00000000
_cell_angle_gamma   120.00000000
_symmetry_Int_Tables_number   1
_chemical_formula_structural   Nd2Zr3(MoO4)9
_chemical_formula_sum   'Nd12 Zr18 Mo54 O216'
_cell_volume   5146.50126398
_cell_formula_units_Z   6
loop_
 _symmetry_equiv_pos_site_id
 _symmetry_equiv_pos_as_xyz
  1  'x, y, z'
loop_
 _atom_site_type_symbol
 _atom_site_label
 _atom_site_symmetry_multiplicity
 _atom_site_fract_x
 _atom_site_fract_y
 _atom_site_fract_z
 _atom_site_occupancy
  Nd  Nd0  1  0.66666667  0.33333333  0.02921833  1
  Nd  Nd1  1  0.66666667  0.33333333  0.13744833  1
  Nd  Nd2  1  0.00000000  0.00000000  0.30411500  1
  Nd  Nd3  1  0.00000000  0.00000000  0.19588500  1
  Nd  Nd4  1  0.33333333  0.66666667  0.36255167  1
  Nd  Nd5  1  0.33333333  0.66666667  0.47078167  1
  Nd  Nd6  1  0.66666667  0.33333333  0.63744833  1
  Nd  Nd7  1  0.66666667  0.33333333  0.52921833  1
  Nd  Nd8  1  0.00000000  0.00000000  0.69588500  1
  Nd  Nd9  1  0.00000000  1.00000000  0.80411500  1
  Nd  Nd10  1  0.33333333  0.66666667  0.97078167  1
  Nd  Nd11  1  0.33333333  0.66666667  0.86255167  1
  Zr  Zr12  1  0.33333333  0.66666667  0.26195267  1
  Zr  Zr13  1  0.66666667  0.33333333  0.23804733  1
  Zr  Zr14  1  0.33333333  0.66666667  0.07138067  1
  Zr  Zr15  1  0.00000000  0.00000000  0.00000000  1
  Zr  Zr16  1  0.33333333  0.66666667  0.16666667  1
  Zr  Zr17  1  0.00000000  0.00000000  0.09528600  1
  Zr  Zr18  1  0.00000000  0.00000000  0.59528600  1
  Zr  Zr19  1  0.33333333  0.66666667  0.57138067  1
  Zr  Zr20  1  0.00000000  0.00000000  0.40471400  1
  Zr  Zr21  1  0.66666667  0.33333333  0.33333333  1
  Zr  Zr22  1  0.00000000  0.00000000  0.50000000  1
  Zr  Zr23  1  0.66666667  0.33333333  0.42861933  1
  Zr  Zr24  1  0.66666667  0.33333333  0.92861933  1
  Zr  Zr25  1  0.00000000  0.00000000  0.90471400  1
  Zr  Zr26  1  0.66666667  0.33333333  0.73804733  1
  Zr  Zr27  1  0.33333333  0.66666667  0.66666667  1
  Zr  Zr28  1  0.66666667  0.33333333  0.83333333  1
  Zr  Zr29  1  0.33333333  0.66666667  0.76195267  1
  Mo  Mo30  1  0.70450333  0.76243167  0.14176167  1
  Mo  Mo31  1  0.57090167  0.96216333  0.30842833  1
  Mo  Mo32  1  0.27540500  0.90423500  0.02490500  1
  Mo  Mo33  1  0.38765467  0.33333333  0.08333333  1
  Mo  Mo34  1  0.66666667  0.05432133  0.08333333  1
  Mo  Mo35  1  0.42909833  0.39126167  0.19157167  1
  Mo  Mo36  1  0.00000000  0.27901200  0.25000000  1
  Mo  Mo37  1  0.39126167  0.42909833  0.30842833  1
  Mo  Mo38  1  0.60873833  0.03783667  0.19157167  1
  Mo  Mo39  1  0.05792833  0.29549667  0.14176167  1
  Mo  Mo40  1  0.94567867  0.61234533  0.08333333  1
  Mo  Mo41  1  0.72098800  0.72098800  0.25000000  1
  Mo  Mo42  1  0.27901200  0.00000000  0.25000000  1
  Mo  Mo43  1  0.03783667  0.60873833  0.30842833  1
  Mo  Mo44  1  0.09576500  0.37117000  0.02490500  1
  Mo  Mo45  1  0.96216333  0.57090167  0.19157167  1
  Mo  Mo46  1  0.23756833  0.94207167  0.14176167  1
  Mo  Mo47  1  0.62883000  0.72459500  0.02490500  1
  Mo  Mo48  1  0.37117000  0.09576500  0.47509500  1
  Mo  Mo49  1  0.23756833  0.29549667  0.64176167  1
  Mo  Mo50  1  0.94207167  0.23756833  0.35823833  1
  Mo  Mo51  1  0.05432133  0.66666667  0.41666667  1
  Mo  Mo52  1  0.33333333  0.38765467  0.41666667  1
  Mo  Mo53  1  0.09576500  0.72459500  0.52490500  1
  Mo  Mo54  1  0.66666667  0.61234533  0.58333333  1
  Mo  Mo55  1  0.05792833  0.76243167  0.64176167  1
  Mo  Mo56  1  0.27540500  0.37117000  0.52490500  1
  Mo  Mo57  1  0.72459500  0.62883000  0.47509500  1
  Mo  Mo58  1  0.61234533  0.94567867  0.41666667  1
  Mo  Mo59  1  0.38765467  0.05432133  0.58333333  1
  Mo  Mo60  1  0.94567867  0.33333333  0.58333333  1
  Mo  Mo61  1  0.70450333  0.94207167  0.64176167  1
  Mo  Mo62  1  0.76243167  0.70450333  0.35823833  1
  Mo  Mo63  1  0.62883000  0.90423500  0.52490500  1
  Mo  Mo64  1  0.90423500  0.27540500  0.47509500  1
  Mo  Mo65  1  0.29549667  0.05792833  0.35823833  1
  Mo  Mo66  1  0.03783667  0.42909833  0.80842833  1
  Mo  Mo67  1  0.90423500  0.62883000  0.97509500  1
  Mo  Mo68  1  0.60873833  0.57090167  0.69157167  1
  Mo  Mo69  1  0.72098800  0.00000000  0.75000000  1
  Mo  Mo70  1  0.00000000  0.72098800  0.75000000  1
  Mo  Mo71  1  0.76243167  0.05792833  0.85823833  1
  Mo  Mo72  1  0.33333333  0.94567867  0.91666667  1
  Mo  Mo73  1  0.72459500  0.09576500  0.97509500  1
  Mo  Mo74  1  0.94207167  0.70450333  0.85823833  1
  Mo  Mo75  1  0.39126167  0.96216333  0.80842833  1
  Mo  Mo76  1  0.27901200  0.27901200  0.75000000  1
  Mo  Mo77  1  0.05432133  0.38765467  0.91666667  1
  Mo  Mo78  1  0.61234533  0.66666667  0.91666667  1
  Mo  Mo79  1  0.37117000  0.27540500  0.97509500  1
  Mo  Mo80  1  0.42909833  0.03783667  0.69157167  1
  Mo  Mo81  1  0.29549667  0.23756833  0.85823833  1
  Mo  Mo82  1  0.57090167  0.60873833  0.80842833  1
  Mo  Mo83  1  0.96216333  0.39126167  0.69157167  1
  O  O84  1  0.17670367  0.00730433  0.16501133  1
  O  O85  1  0.14111133  0.59841267  0.28396267  1
  O  O86  1  0.32602900  0.48996300  0.33167800  1
  O  O87  1  0.20936533  0.47444467  0.04937067  1
  O  O88  1  0.40608033  0.10058467  0.02987967  1
  O  O89  1  0.54598367  0.12960733  0.31409133  1
  O  O90  1  0.80827167  0.83866633  0.27346133  1
  O  O91  1  0.40158733  0.54269867  0.28396267  1
  O  O92  1  0.85839500  0.49466700  0.05987200  1
  O  O93  1  0.87039267  0.41637633  0.31409133  1
  O  O94  1  0.82548567  0.29360633  0.25541133  1
  O  O95  1  0.80777800  0.87603200  0.11729600  1
  O  O96  1  0.06825400  0.19222200  0.11729600  1
  O  O97  1  0.82800033  0.52506167  0.10679467  1
  O  O98  1  0.96027300  0.80145400  0.07792200  1
  O  O99  1  0.85888867  0.45730133  0.21603733  1
  O  O100  1  0.46812067  0.17451433  0.25541133  1
  O  O101  1  0.83866633  0.80827167  0.22653867  1
  O  O102  1  0.53705933  0.78734967  0.14742467  1
  O  O103  1  0.58362367  0.45401633  0.31409133  1
  O  O104  1  0.26507933  0.79063467  0.04937067  1
  O  O105  1  0.17451433  0.46812067  0.24458867  1
  O  O106  1  0.12396800  0.93174600  0.11729600  1
  O  O107  1  0.37306033  0.50784767  0.08874467  1
  O  O108  1  0.21265033  0.74970967  0.14742467  1
  O  O109  1  0.23274867  0.26058633  0.19654633  1
  O  O110  1  0.19854600  0.15881900  0.07792200  1
  O  O111  1  0.50533300  0.36372800  0.05987200  1
  O  O112  1  0.83606600  0.51003700  0.16832200  1
  O  O113  1  0.29360633  0.82548567  0.24458867  1
  O  O114  1  0.79627400  0.91695700  0.01924200  1
  O  O115  1  0.08304300  0.87931700  0.01924200  1
  O  O116  1  0.12068300  0.20372600  0.01924200  1
  O  O117  1  0.54269867  0.40158733  0.21603733  1
  O  O118  1  0.70639367  0.53187933  0.25541133  1
  O  O119  1  0.63627200  0.14160500  0.05987200  1
  O  O120  1  0.67397100  0.16393400  0.16832200  1
  O  O121  1  0.53187933  0.70639367  0.24458867  1
  O  O122  1  0.89941533  0.30549567  0.02987967  1
  O  O123  1  0.99269567  0.16939933  0.16501133  1
  O  O124  1  0.96960533  0.16133367  0.22653867  1
  O  O125  1  0.48996300  0.32602900  0.16832200  1
  O  O126  1  0.83060067  0.82329633  0.16501133  1
  O  O127  1  0.03039467  0.19172833  0.27346133  1
  O  O128  1  0.52555533  0.73492067  0.04937067  1
  O  O129  1  0.47493833  0.30293867  0.10679467  1
  O  O130  1  0.41637633  0.87039267  0.18590867  1
  O  O131  1  0.92725300  0.36117100  0.13678700  1
  O  O132  1  0.69450433  0.59391967  0.02987967  1
  O  O133  1  0.69706133  0.17199967  0.10679467  1
  O  O134  1  0.26058633  0.23274867  0.30345367  1
  O  O135  1  0.12960733  0.54598367  0.18590867  1
  O  O136  1  0.02783767  0.76725133  0.19654633  1
  O  O137  1  0.16133367  0.96960533  0.27346133  1
  O  O138  1  0.84118100  0.03972700  0.07792200  1
  O  O139  1  0.25029033  0.46294067  0.14742467  1
  O  O140  1  0.63882900  0.56608200  0.13678700  1
  O  O141  1  0.19172833  0.03039467  0.22653867  1
  O  O142  1  0.13478733  0.62693967  0.08874467  1
  O  O143  1  0.76725133  0.02783767  0.30345367  1
  O  O144  1  0.59841267  0.14111133  0.21603733  1
  O  O145  1  0.16393400  0.67397100  0.33167800  1
  O  O146  1  0.97216233  0.73941367  0.30345367  1
  O  O147  1  0.50273267  0.65936233  0.00165533  1
  O  O148  1  0.73941367  0.97216233  0.19654633  1
  O  O149  1  0.45730133  0.85888867  0.28396267  1
  O  O150  1  0.43391800  0.07274700  0.13678700  1
  O  O151  1  0.34063767  0.84337033  0.00165533  1
  O  O152  1  0.45401633  0.58362367  0.18590867  1
  O  O153  1  0.49215233  0.86521267  0.08874467  1
  O  O154  1  0.51003700  0.83606600  0.33167800  1
  O  O155  1  0.15662967  0.49726733  0.00165533  1
  O  O156  1  0.84337033  0.34063767  0.49834467  1
  O  O157  1  0.80777800  0.93174600  0.61729600  1
  O  O158  1  0.99269567  0.82329633  0.66501133  1
  O  O159  1  0.87603200  0.80777800  0.38270400  1
  O  O160  1  0.07274700  0.43391800  0.36321300  1
  O  O161  1  0.21265033  0.46294067  0.64742467  1
  O  O162  1  0.47493833  0.17199967  0.60679467  1
  O  O163  1  0.06825400  0.87603200  0.61729600  1
  O  O164  1  0.52506167  0.82800033  0.39320533  1
  O  O165  1  0.53705933  0.74970967  0.64742467  1
  O  O166  1  0.49215233  0.62693967  0.58874467  1
  O  O167  1  0.47444467  0.20936533  0.45062933  1
  O  O168  1  0.73492067  0.52555533  0.45062933  1
  O  O169  1  0.49466700  0.85839500  0.44012800  1
  O  O170  1  0.62693967  0.13478733  0.41125533  1
  O  O171  1  0.52555533  0.79063467  0.54937067  1
  O  O172  1  0.13478733  0.50784767  0.58874467  1
  O  O173  1  0.50533300  0.14160500  0.55987200  1
  O  O174  1  0.20372600  0.12068300  0.48075800  1
  O  O175  1  0.25029033  0.78734967  0.64742467  1
  O  O176  1  0.93174600  0.12396800  0.38270400  1
  O  O177  1  0.84118100  0.80145400  0.57792200  1
  O  O178  1  0.79063467  0.26507933  0.45062933  1
  O  O179  1  0.03972700  0.84118100  0.42207800  1
  O  O180  1  0.87931700  0.08304300  0.48075800  1
  O  O181  1  0.89941533  0.59391967  0.52987967  1
  O  O182  1  0.86521267  0.49215233  0.41125533  1
  O  O183  1  0.17199967  0.69706133  0.39320533  1
  O  O184  1  0.50273267  0.84337033  0.50165533  1
  O  O185  1  0.96027300  0.15881900  0.57792200  1
  O  O186  1  0.46294067  0.25029033  0.35257533  1
  O  O187  1  0.74970967  0.21265033  0.35257533  1
  O  O188  1  0.78734967  0.53705933  0.35257533  1
  O  O189  1  0.20936533  0.73492067  0.54937067  1
  O  O190  1  0.37306033  0.86521267  0.58874467  1
  O  O191  1  0.30293867  0.47493833  0.39320533  1
  O  O192  1  0.34063767  0.49726733  0.50165533  1
  O  O193  1  0.19854600  0.03972700  0.57792200  1
  O  O194  1  0.56608200  0.63882900  0.36321300  1
  O  O195  1  0.65936233  0.50273267  0.49834467  1
  O  O196  1  0.63627200  0.49466700  0.55987200  1
  O  O197  1  0.15662967  0.65936233  0.50165533  1
  O  O198  1  0.49726733  0.15662967  0.49834467  1
  O  O199  1  0.69706133  0.52506167  0.60679467  1
  O  O200  1  0.19222200  0.06825400  0.38270400  1
  O  O201  1  0.14160500  0.63627200  0.44012800  1
  O  O202  1  0.08304300  0.20372600  0.51924200  1
  O  O203  1  0.59391967  0.69450433  0.47012033  1
  O  O204  1  0.36117100  0.92725300  0.36321300  1
  O  O205  1  0.36372800  0.50533300  0.44012800  1
  O  O206  1  0.92725300  0.56608200  0.63678700  1
  O  O207  1  0.79627400  0.87931700  0.51924200  1
  O  O208  1  0.69450433  0.10058467  0.52987967  1
  O  O209  1  0.82800033  0.30293867  0.60679467  1
  O  O210  1  0.50784767  0.37306033  0.41125533  1
  O  O211  1  0.91695700  0.79627400  0.48075800  1
  O  O212  1  0.30549567  0.89941533  0.47012033  1
  O  O213  1  0.85839500  0.36372800  0.55987200  1
  O  O214  1  0.80145400  0.96027300  0.42207800  1
  O  O215  1  0.43391800  0.36117100  0.63678700  1
  O  O216  1  0.26507933  0.47444467  0.54937067  1
  O  O217  1  0.83060067  0.00730433  0.66501133  1
  O  O218  1  0.63882900  0.07274700  0.63678700  1
  O  O219  1  0.16939933  0.99269567  0.33498867  1
  O  O220  1  0.40608033  0.30549567  0.52987967  1
  O  O221  1  0.12396800  0.19222200  0.61729600  1
  O  O222  1  0.10058467  0.40608033  0.47012033  1
  O  O223  1  0.00730433  0.17670367  0.33498867  1
  O  O224  1  0.12068300  0.91695700  0.51924200  1
  O  O225  1  0.15881900  0.19854600  0.42207800  1
  O  O226  1  0.17670367  0.16939933  0.66501133  1
  O  O227  1  0.82329633  0.83060067  0.33498867  1
  O  O228  1  0.51003700  0.67397100  0.83167800  1
  O  O229  1  0.47444467  0.26507933  0.95062933  1
  O  O230  1  0.65936233  0.15662967  0.99834467  1
  O  O231  1  0.54269867  0.14111133  0.71603733  1
  O  O232  1  0.73941367  0.76725133  0.69654633  1
  O  O233  1  0.87931700  0.79627400  0.98075800  1
  O  O234  1  0.14160500  0.50533300  0.94012800  1
  O  O235  1  0.73492067  0.20936533  0.95062933  1
  O  O236  1  0.19172833  0.16133367  0.72653867  1
  O  O237  1  0.20372600  0.08304300  0.98075800  1
  O  O238  1  0.15881900  0.96027300  0.92207800  1
  O  O239  1  0.14111133  0.54269867  0.78396267  1
  O  O240  1  0.40158733  0.85888867  0.78396267  1
  O  O241  1  0.16133367  0.19172833  0.77346133  1
  O  O242  1  0.29360633  0.46812067  0.74458867  1
  O  O243  1  0.19222200  0.12396800  0.88270400  1
  O  O244  1  0.80145400  0.84118100  0.92207800  1
  O  O245  1  0.17199967  0.47493833  0.89320533  1
  O  O246  1  0.87039267  0.45401633  0.81409133  1
  O  O247  1  0.91695700  0.12068300  0.98075800  1
  O  O248  1  0.59841267  0.45730133  0.71603733  1
  O  O249  1  0.50784767  0.13478733  0.91125533  1
  O  O250  1  0.45730133  0.59841267  0.78396267  1
  O  O251  1  0.70639367  0.17451433  0.75541133  1
  O  O252  1  0.54598367  0.41637633  0.81409133  1
  O  O253  1  0.56608200  0.92725300  0.86321300  1
  O  O254  1  0.53187933  0.82548567  0.74458867  1
  O  O255  1  0.83866633  0.03039467  0.72653867  1
  O  O256  1  0.16939933  0.17670367  0.83498867  1
  O  O257  1  0.62693967  0.49215233  0.91125533  1
  O  O258  1  0.12960733  0.58362367  0.68590867  1
  O  O259  1  0.41637633  0.54598367  0.68590867  1
  O  O260  1  0.45401633  0.87039267  0.68590867  1
  O  O261  1  0.87603200  0.06825400  0.88270400  1
  O  O262  1  0.03972700  0.19854600  0.92207800  1
  O  O263  1  0.96960533  0.80827167  0.72653867  1
  O  O264  1  0.00730433  0.83060067  0.83498867  1
  O  O265  1  0.86521267  0.37306033  0.91125533  1
  O  O266  1  0.23274867  0.97216233  0.69654633  1
  O  O267  1  0.32602900  0.83606600  0.83167800  1
  O  O268  1  0.30293867  0.82800033  0.89320533  1
  O  O269  1  0.82329633  0.99269567  0.83498867  1
  O  O270  1  0.16393400  0.48996300  0.83167800  1
  O  O271  1  0.36372800  0.85839500  0.94012800  1
  O  O272  1  0.85888867  0.40158733  0.71603733  1
  O  O273  1  0.80827167  0.96960533  0.77346133  1
  O  O274  1  0.74970967  0.53705933  0.85257533  1
  O  O275  1  0.26058633  0.02783767  0.80345367  1
  O  O276  1  0.02783767  0.26058633  0.69654633  1
  O  O277  1  0.03039467  0.83866633  0.77346133  1
  O  O278  1  0.59391967  0.89941533  0.97012033  1
  O  O279  1  0.46294067  0.21265033  0.85257533  1
  O  O280  1  0.36117100  0.43391800  0.86321300  1
  O  O281  1  0.49466700  0.63627200  0.94012800  1
  O  O282  1  0.17451433  0.70639367  0.74458867  1
  O  O283  1  0.58362367  0.12960733  0.81409133  1
  O  O284  1  0.97216233  0.23274867  0.80345367  1
  O  O285  1  0.52506167  0.69706133  0.89320533  1
  O  O286  1  0.46812067  0.29360633  0.75541133  1
  O  O287  1  0.10058467  0.69450433  0.97012033  1
  O  O288  1  0.93174600  0.80777800  0.88270400  1
  O  O289  1  0.49726733  0.34063767  0.99834467  1
  O  O290  1  0.30549567  0.40608033  0.97012033  1
  O  O291  1  0.83606600  0.32602900  0.66832200  1
  O  O292  1  0.07274700  0.63882900  0.86321300  1
  O  O293  1  0.79063467  0.52555533  0.95062933  1
  O  O294  1  0.76725133  0.73941367  0.80345367  1
  O  O295  1  0.67397100  0.51003700  0.66832200  1
  O  O296  1  0.78734967  0.25029033  0.85257533  1
  O  O297  1  0.82548567  0.53187933  0.75541133  1
  O  O298  1  0.84337033  0.50273267  0.99834467  1
  O  O299  1  0.48996300  0.16393400  0.66832200  1
