# generated using pymatgen
data_Ti3Mn2Sb(PO4)6
_symmetry_space_group_name_H-M   'P 1'
_cell_length_a   8.78686324
_cell_length_b   8.78686324
_cell_length_c   21.45320168
_cell_angle_alpha   90.00000000
_cell_angle_beta   90.00000000
_cell_angle_gamma   120.00000000
_symmetry_Int_Tables_number   1
_chemical_formula_structural   Ti3Mn2Sb(PO4)6
_chemical_formula_sum   'Ti9 Mn6 Sb3 P18 O72'
_cell_volume   1434.46673323
_cell_formula_units_Z   3
loop_
 _symmetry_equiv_pos_site_id
 _symmetry_equiv_pos_as_xyz
  1  'x, y, z'
loop_
 _atom_site_type_symbol
 _atom_site_label
 _atom_site_symmetry_multiplicity
 _atom_site_fract_x
 _atom_site_fract_y
 _atom_site_fract_z
 _atom_site_occupancy
  Ti  Ti0  1  0.33333333  0.66666667  0.81252467  1
  Ti  Ti1  1  0.33333333  0.66666667  0.01949767  1
  Ti  Ti2  1  0.33333333  0.66666667  0.31290967  1
  Ti  Ti3  1  0.00000000  0.00000000  0.14585800  1
  Ti  Ti4  1  0.00000000  0.00000000  0.35283100  1
  Ti  Ti5  1  0.00000000  0.00000000  0.64624300  1
  Ti  Ti6  1  0.66666667  0.33333333  0.47919133  1
  Ti  Ti7  1  0.66666667  0.33333333  0.68616433  1
  Ti  Ti8  1  0.66666667  0.33333333  0.97957633  1
  Mn  Mn9  1  0.33333333  0.66666667  0.66714567  1
  Mn  Mn10  1  0.33333333  0.66666667  0.16572367  1
  Mn  Mn11  1  0.00000000  0.00000000  0.00047900  1
  Mn  Mn12  1  0.00000000  0.00000000  0.49905700  1
  Mn  Mn13  1  0.66666667  0.33333333  0.33381233  1
  Mn  Mn14  1  0.66666667  0.33333333  0.83239033  1
  Sb  Sb15  1  0.33333333  0.66666667  0.51884367  1
  Sb  Sb16  1  0.00000000  0.00000000  0.85217700  1
  Sb  Sb17  1  0.66666667  0.33333333  0.18551033  1
  P  P18  1  0.97070133  0.33285967  0.08094767  1
  P  P19  1  0.36215833  0.02929867  0.08094767  1
  P  P20  1  0.00939667  0.71498133  0.25147733  1
  P  P21  1  0.28501867  0.29441533  0.25147733  1
  P  P22  1  0.70558467  0.99060333  0.25147733  1
  P  P23  1  0.66714033  0.63784167  0.08094767  1
  P  P24  1  0.63736800  0.66619300  0.41428100  1
  P  P25  1  0.02882500  0.36263200  0.41428100  1
  P  P26  1  0.67606333  0.04831467  0.58481067  1
  P  P27  1  0.95168533  0.62774867  0.58481067  1
  P  P28  1  0.37225133  0.32393667  0.58481067  1
  P  P29  1  0.33380700  0.97117500  0.41428100  1
  P  P30  1  0.30403467  0.99952633  0.74761433  1
  P  P31  1  0.69549167  0.69596533  0.74761433  1
  P  P32  1  0.34273000  0.38164800  0.91814400  1
  P  P33  1  0.61835200  0.96108200  0.91814400  1
  P  P34  1  0.03891800  0.65727000  0.91814400  1
  P  P35  1  0.00047367  0.30450833  0.74761433  1
  O  O36  1  0.13664200  0.64007400  0.97494600  1
  O  O37  1  0.35992600  0.49656800  0.97494600  1
  O  O38  1  0.98857600  0.16592700  0.07617100  1
  O  O39  1  0.50343200  0.86335800  0.97494600  1
  O  O40  1  0.88949800  0.33730000  0.14332400  1
  O  O41  1  0.15877467  0.49790233  0.08263633  1
  O  O42  1  0.17735100  0.01142400  0.07617100  1
  O  O43  1  0.33912767  0.84122533  0.08263633  1
  O  O44  1  0.99846933  0.80670867  0.19127067  1
  O  O45  1  0.50209767  0.66087233  0.08263633  1
  O  O46  1  0.84487233  0.53368167  0.26345267  1
  O  O47  1  0.19329133  0.19176067  0.19127067  1
  O  O48  1  0.44780200  0.11050200  0.14332400  1
  O  O49  1  0.83407300  0.82264900  0.07617100  1
  O  O50  1  0.17557900  0.69453200  0.24524400  1
  O  O51  1  0.66270000  0.55219800  0.14332400  1
  O  O52  1  0.30546800  0.48104700  0.24524400  1
  O  O53  1  0.46631833  0.31119067  0.26345267  1
  O  O54  1  0.51895300  0.82442100  0.24524400  1
  O  O55  1  0.80823933  0.00153067  0.19127067  1
  O  O56  1  0.14104600  0.47530800  0.35831600  1
  O  O57  1  0.68880933  0.15512767  0.26345267  1
  O  O58  1  0.33426200  0.85895400  0.35831600  1
  O  O59  1  0.52469200  0.66573800  0.35831600  1
  O  O60  1  0.80330867  0.97340733  0.30827933  1
  O  O61  1  0.02659267  0.82990133  0.30827933  1
  O  O62  1  0.65524267  0.49926033  0.40950433  1
  O  O63  1  0.17009867  0.19669133  0.30827933  1
  O  O64  1  0.55616467  0.67063333  0.47665733  1
  O  O65  1  0.82544133  0.83123567  0.41596967  1
  O  O66  1  0.84401767  0.34475733  0.40950433  1
  O  O67  1  0.00579433  0.17455867  0.41596967  1
  O  O68  1  0.66513600  0.14004200  0.52460400  1
  O  O69  1  0.16876433  0.99420567  0.41596967  1
  O  O70  1  0.51153900  0.86701500  0.59678600  1
  O  O71  1  0.85995800  0.52509400  0.52460400  1
  O  O72  1  0.11446867  0.44383533  0.47665733  1
  O  O73  1  0.50073967  0.15598233  0.40950433  1
  O  O74  1  0.84224567  0.02786533  0.57857733  1
  O  O75  1  0.32936667  0.88553133  0.47665733  1
  O  O76  1  0.97213467  0.81438033  0.57857733  1
  O  O77  1  0.13298500  0.64452400  0.59678600  1
  O  O78  1  0.18561967  0.15775433  0.57857733  1
  O  O79  1  0.47490600  0.33486400  0.52460400  1
  O  O80  1  0.80771267  0.80864133  0.69164933  1
  O  O81  1  0.35547600  0.48846100  0.59678600  1
  O  O82  1  0.00092867  0.19228733  0.69164933  1
  O  O83  1  0.19135867  0.99907133  0.69164933  1
  O  O84  1  0.46997533  0.30674067  0.64161267  1
  O  O85  1  0.69325933  0.16323467  0.64161267  1
  O  O86  1  0.32190933  0.83259367  0.74283767  1
  O  O87  1  0.83676533  0.53002467  0.64161267  1
  O  O88  1  0.22283133  0.00396667  0.80999067  1
  O  O89  1  0.49210800  0.16456900  0.74930300  1
  O  O90  1  0.51068433  0.67809067  0.74283767  1
  O  O91  1  0.67246100  0.50789200  0.74930300  1
  O  O92  1  0.33180267  0.47337533  0.85793733  1
  O  O93  1  0.83543100  0.32753900  0.74930300  1
  O  O94  1  0.17820567  0.20034833  0.93011933  1
  O  O95  1  0.52662467  0.85842733  0.85793733  1
  O  O96  1  0.78113533  0.77716867  0.80999067  1
  O  O97  1  0.16740633  0.48931567  0.74283767  1
  O  O98  1  0.50891233  0.36119867  0.91191067  1
  O  O99  1  0.99603333  0.21886467  0.80999067  1
  O  O100  1  0.63880133  0.14771367  0.91191067  1
  O  O101  1  0.79965167  0.97785733  0.93011933  1
  O  O102  1  0.85228633  0.49108767  0.91191067  1
  O  O103  1  0.14157267  0.66819733  0.85793733  1
  O  O104  1  0.47437933  0.14197467  0.02498267  1
  O  O105  1  0.02214267  0.82179433  0.93011933  1
  O  O106  1  0.66759533  0.52562067  0.02498267  1
  O  O107  1  0.85802533  0.33240467  0.02498267  1
