# generated using pymatgen
data_Li2V3O3F5
_symmetry_space_group_name_H-M   'P 1'
_cell_length_a   10.25949829
_cell_length_b   6.06474786
_cell_length_c   5.92647038
_cell_angle_alpha   90.00000000
_cell_angle_beta   122.86951081
_cell_angle_gamma   90.00000000
_symmetry_Int_Tables_number   1
_chemical_formula_structural   Li2V3O3F5
_chemical_formula_sum   'Li4 V6 O6 F10'
_cell_volume   309.71847866
_cell_formula_units_Z   2
loop_
 _symmetry_equiv_pos_site_id
 _symmetry_equiv_pos_as_xyz
  1  'x, y, z'
loop_
 _atom_site_type_symbol
 _atom_site_label
 _atom_site_symmetry_multiplicity
 _atom_site_fract_x
 _atom_site_fract_y
 _atom_site_fract_z
 _atom_site_occupancy
  Li  Li0  1  0.50745350  0.50000000  0.00386800  1
  Li  Li1  1  0.24307050  0.50000000  0.23681050  1
  Li  Li2  1  0.00745350  0.00000000  0.00386800  1
  Li  Li3  1  0.74307050  0.00000000  0.23681050  1
  V  V4  1  0.87646175  0.50000000  0.12050950  1
  V  V5  1  0.12433775  0.26073275  0.63536450  1
  V  V6  1  0.12433775  0.73926725  0.63536450  1
  V  V7  1  0.37646175  0.00000000  0.12050950  1
  V  V8  1  0.62433775  0.76073275  0.63536450  1
  V  V9  1  0.62433775  0.23926725  0.63536450  1
  O  O10  1  0.13495725  0.50000000  0.85240050  1
  O  O11  1  0.64663800  0.50000000  0.86906700  1
  O  O12  1  0.10597000  0.50000000  0.37577150  1
  O  O13  1  0.63495725  0.00000000  0.85240050  1
  O  O14  1  0.14663800  0.00000000  0.86906700  1
  O  O15  1  0.60597000  0.00000000  0.37577150  1
  F  F16  1  0.61753700  0.50000000  0.39538750  1
  F  F17  1  0.86845775  0.74394425  0.87794200  1
  F  F18  1  0.86845775  0.25605575  0.87794200  1
  F  F19  1  0.88460475  0.74212425  0.36590800  1
  F  F20  1  0.88460475  0.25787575  0.36590800  1
  F  F21  1  0.11753700  0.00000000  0.39538750  1
  F  F22  1  0.36845775  0.24394425  0.87794200  1
  F  F23  1  0.36845775  0.75605575  0.87794200  1
  F  F24  1  0.38460475  0.24212425  0.36590800  1
  F  F25  1  0.38460475  0.75787575  0.36590800  1
