# generated using pymatgen
data_CrFe3Sn2(PO4)6
_symmetry_space_group_name_H-M   'P 1'
_cell_length_a   8.66774404
_cell_length_b   8.66774404
_cell_length_c   21.78295233
_cell_angle_alpha   90.00000000
_cell_angle_beta   90.00000000
_cell_angle_gamma   120.00000000
_symmetry_Int_Tables_number   1
_chemical_formula_structural   CrFe3Sn2(PO4)6
_chemical_formula_sum   'Cr3 Fe9 Sn6 P18 O72'
_cell_volume   1417.29263041
_cell_formula_units_Z   3
loop_
 _symmetry_equiv_pos_site_id
 _symmetry_equiv_pos_as_xyz
  1  'x, y, z'
loop_
 _atom_site_type_symbol
 _atom_site_label
 _atom_site_symmetry_multiplicity
 _atom_site_fract_x
 _atom_site_fract_y
 _atom_site_fract_z
 _atom_site_occupancy
  Cr  Cr0  1  0.00000000  0.00000000  0.14487300  1
  Cr  Cr1  1  0.66666667  0.33333333  0.47820633  1
  Cr  Cr2  1  0.33333333  0.66666667  0.81153967  1
  Fe  Fe3  1  0.66666667  0.33333333  0.18471333  1
  Fe  Fe4  1  0.33333333  0.66666667  0.31603867  1
  Fe  Fe5  1  0.33333333  0.66666667  0.01850067  1
  Fe  Fe6  1  0.33333333  0.66666667  0.51804667  1
  Fe  Fe7  1  0.00000000  0.00000000  0.64937200  1
  Fe  Fe8  1  0.00000000  0.00000000  0.35183400  1
  Fe  Fe9  1  0.00000000  0.00000000  0.85138000  1
  Fe  Fe10  1  0.66666667  0.33333333  0.98270533  1
  Fe  Fe11  1  0.66666667  0.33333333  0.68516733  1
  Sn  Sn12  1  0.66666667  0.33333333  0.33033733  1
  Sn  Sn13  1  0.33333333  0.66666667  0.16747767  1
  Sn  Sn14  1  0.33333333  0.66666667  0.66367067  1
  Sn  Sn15  1  0.00000000  0.00000000  0.50081100  1
  Sn  Sn16  1  0.00000000  0.00000000  0.99700400  1
  Sn  Sn17  1  0.66666667  0.33333333  0.83414433  1
  P  P18  1  0.28710933  0.99853967  0.24929667  1
  P  P19  1  0.37483300  0.33321900  0.08440000  1
  P  P20  1  0.95838600  0.62516700  0.08440000  1
  P  P21  1  0.66678100  0.04161400  0.08440000  1
  P  P22  1  0.00146033  0.28856967  0.24929667  1
  P  P23  1  0.71143033  0.71289067  0.24929667  1
  P  P24  1  0.95377600  0.33187300  0.58263000  1
  P  P25  1  0.04149967  0.66655233  0.41773333  1
  P  P26  1  0.62505267  0.95850033  0.41773333  1
  P  P27  1  0.33344767  0.37494733  0.41773333  1
  P  P28  1  0.66812700  0.62190300  0.58263000  1
  P  P29  1  0.37809700  0.04622400  0.58263000  1
  P  P30  1  0.62044267  0.66520633  0.91596333  1
  P  P31  1  0.70816633  0.99988567  0.75106667  1
  P  P32  1  0.29171933  0.29183367  0.75106667  1
  P  P33  1  0.00011433  0.70828067  0.75106667  1
  P  P34  1  0.33479367  0.95523633  0.91596333  1
  P  P35  1  0.04476367  0.37955733  0.91596333  1
  O  O36  1  0.67393800  0.13934900  0.02511400  1
  O  O37  1  0.46541100  0.32606200  0.02511400  1
  O  O38  1  0.83143500  0.31043500  0.25110000  1
  O  O39  1  0.86065100  0.53458900  0.02511400  1
  O  O40  1  0.00777667  0.19717333  0.19077033  1
  O  O41  1  0.17029000  0.48182600  0.24675700  1
  O  O42  1  0.68956500  0.52100000  0.25110000  1
  O  O43  1  0.51817400  0.68846400  0.24675700  1
  O  O44  1  0.47371433  0.33874567  0.14275467  1
  O  O45  1  0.31153600  0.82971000  0.24675700  1
  O  O46  1  0.18385067  0.16457733  0.08281933  1
  O  O47  1  0.86503133  0.52628567  0.14275467  1
  O  O48  1  0.80282667  0.81060333  0.19077033  1
  O  O49  1  0.47900000  0.16856500  0.25110000  1
  O  O50  1  0.35263867  0.50229033  0.08656733  1
  O  O51  1  0.18939667  0.99222333  0.19077033  1
  O  O52  1  0.14965167  0.64736133  0.08656733  1
  O  O53  1  0.98072667  0.81614933  0.08281933  1
  O  O54  1  0.49770967  0.85034833  0.08656733  1
  O  O55  1  0.66125433  0.13496867  0.14275467  1
  O  O56  1  0.80454000  0.80309600  0.30866400  1
  O  O57  1  0.83542267  0.01927333  0.08281933  1
  O  O58  1  0.19690400  0.00144400  0.30866400  1
  O  O59  1  0.99855600  0.19546000  0.30866400  1
  O  O60  1  0.34060467  0.47268233  0.35844733  1
  O  O61  1  0.13207767  0.65939533  0.35844733  1
  O  O62  1  0.49810167  0.64376833  0.58443333  1
  O  O63  1  0.52731767  0.86792233  0.35844733  1
  O  O64  1  0.67444333  0.53050667  0.52410367  1
  O  O65  1  0.83695667  0.81515933  0.58009033  1
  O  O66  1  0.35623167  0.85433333  0.58443333  1
  O  O67  1  0.18484067  0.02179733  0.58009033  1
  O  O68  1  0.14038100  0.67207900  0.47608800  1
  O  O69  1  0.97820267  0.16304333  0.58009033  1
  O  O70  1  0.85051733  0.49791067  0.41615267  1
  O  O71  1  0.53169800  0.85961900  0.47608800  1
  O  O72  1  0.46949333  0.14393667  0.52410367  1
  O  O73  1  0.14566667  0.50189833  0.58443333  1
  O  O74  1  0.01930533  0.83562367  0.41990067  1
  O  O75  1  0.85606333  0.32555667  0.52410367  1
  O  O76  1  0.81631833  0.98069467  0.41990067  1
  O  O77  1  0.64739333  0.14948267  0.41615267  1
  O  O78  1  0.16437633  0.18368167  0.41990067  1
  O  O79  1  0.32792100  0.46830200  0.47608800  1
  O  O80  1  0.47120667  0.13642933  0.64199733  1
  O  O81  1  0.50208933  0.35260667  0.41615267  1
  O  O82  1  0.86357067  0.33477733  0.64199733  1
  O  O83  1  0.66522267  0.52879333  0.64199733  1
  O  O84  1  0.00727133  0.80601567  0.69178067  1
  O  O85  1  0.79874433  0.99272867  0.69178067  1
  O  O86  1  0.16476833  0.97710167  0.91776667  1
  O  O87  1  0.19398433  0.20125567  0.69178067  1
  O  O88  1  0.34111000  0.86384000  0.85743700  1
  O  O89  1  0.50362333  0.14849267  0.91342367  1
  O  O90  1  0.02289833  0.18766667  0.91776667  1
  O  O91  1  0.85150733  0.35513067  0.91342367  1
  O  O92  1  0.80704767  0.00541233  0.80942133  1
  O  O93  1  0.64486933  0.49637667  0.91342367  1
  O  O94  1  0.51718400  0.83124400  0.74948600  1
  O  O95  1  0.19836467  0.19295233  0.80942133  1
  O  O96  1  0.13616000  0.47727000  0.85743700  1
  O  O97  1  0.81233333  0.83523167  0.91776667  1
  O  O98  1  0.68597200  0.16895700  0.75323400  1
  O  O99  1  0.52273000  0.65889000  0.85743700  1
  O  O100  1  0.48298500  0.31402800  0.75323400  1
  O  O101  1  0.31406000  0.48281600  0.74948600  1
  O  O102  1  0.83104300  0.51701500  0.75323400  1
  O  O103  1  0.99458767  0.80163533  0.80942133  1
  O  O104  1  0.13787333  0.46976267  0.97533067  1
  O  O105  1  0.16875600  0.68594000  0.74948600  1
  O  O106  1  0.53023733  0.66811067  0.97533067  1
  O  O107  1  0.33188933  0.86212667  0.97533067  1
