# generated using pymatgen
data_Li3Bi2(PO4)3
_symmetry_space_group_name_H-M   'P 1'
_cell_length_a   15.33634000
_cell_length_b   9.51704600
_cell_length_c   8.87696845
_cell_angle_alpha   90.00000000
_cell_angle_beta   121.93083826
_cell_angle_gamma   90.00000000
_symmetry_Int_Tables_number   1
_chemical_formula_structural   Li3Bi2(PO4)3
_chemical_formula_sum   'Li12 Bi8 P12 O48'
_cell_volume   1099.60370961
_cell_formula_units_Z   4
loop_
 _symmetry_equiv_pos_site_id
 _symmetry_equiv_pos_as_xyz
  1  'x, y, z'
loop_
 _atom_site_type_symbol
 _atom_site_label
 _atom_site_symmetry_multiplicity
 _atom_site_fract_x
 _atom_site_fract_y
 _atom_site_fract_z
 _atom_site_occupancy
  Li  Li0  1  0.25000000  0.25000000  0.00000000  1
  Li  Li1  1  0.69404950  0.97165250  0.61581600  1
  Li  Li2  1  0.69404950  0.02834750  0.11581600  1
  Li  Li3  1  0.25000000  0.75000000  0.50000000  1
  Li  Li4  1  0.30595050  0.97165250  0.88418400  1
  Li  Li5  1  0.30595050  0.02834750  0.38418400  1
  Li  Li6  1  0.75000000  0.75000000  0.00000000  1
  Li  Li7  1  0.19404950  0.47165250  0.61581600  1
  Li  Li8  1  0.19404950  0.52834750  0.11581600  1
  Li  Li9  1  0.75000000  0.25000000  0.50000000  1
  Li  Li10  1  0.80595050  0.47165250  0.88418400  1
  Li  Li11  1  0.80595050  0.52834750  0.38418400  1
  Bi  Bi12  1  0.59549000  0.73600500  0.14800500  1
  Bi  Bi13  1  0.40451000  0.73600500  0.35199500  1
  Bi  Bi14  1  0.59549000  0.26399500  0.64800500  1
  Bi  Bi15  1  0.40451000  0.26399500  0.85199500  1
  Bi  Bi16  1  0.09549000  0.23600500  0.14800500  1
  Bi  Bi17  1  0.90451000  0.23600500  0.35199500  1
  Bi  Bi18  1  0.09549000  0.76399500  0.64800500  1
  Bi  Bi19  1  0.90451000  0.76399500  0.85199500  1
  P  P20  1  0.82222650  0.92125250  0.43603000  1
  P  P21  1  0.50000000  0.05984400  0.25000000  1
  P  P22  1  0.82222650  0.07874750  0.93603000  1
  P  P23  1  0.17777350  0.92125250  0.06397000  1
  P  P24  1  0.50000000  0.94015600  0.75000000  1
  P  P25  1  0.17777350  0.07874750  0.56397000  1
  P  P26  1  0.32222650  0.42125250  0.43603000  1
  P  P27  1  0.00000000  0.55984400  0.25000000  1
  P  P28  1  0.32222650  0.57874750  0.93603000  1
  P  P29  1  0.67777350  0.42125250  0.06397000  1
  P  P30  1  0.00000000  0.44015600  0.75000000  1
  P  P31  1  0.67777350  0.57874750  0.56397000  1
  O  O32  1  0.78979400  0.11597200  0.06851300  1
  O  O33  1  0.56684450  0.62320950  0.49493700  1
  O  O34  1  0.75078900  0.85123200  0.24883900  1
  O  O35  1  0.78979400  0.88402800  0.56851300  1
  O  O36  1  0.80440600  0.91545600  0.90240800  1
  O  O37  1  0.43998150  0.96942350  0.30995500  1
  O  O38  1  0.56001850  0.96942350  0.19004500  1
  O  O39  1  0.80440600  0.08454400  0.40240800  1
  O  O40  1  0.58396500  0.15239900  0.40655000  1
  O  O41  1  0.41603500  0.15239900  0.09345000  1
  O  O42  1  0.43315550  0.62320950  0.00506300  1
  O  O43  1  0.75078900  0.14876800  0.74883900  1
  O  O44  1  0.24921100  0.85123200  0.25116100  1
  O  O45  1  0.56684450  0.37679050  0.99493700  1
  O  O46  1  0.58396500  0.84760100  0.90655000  1
  O  O47  1  0.41603500  0.84760100  0.59345000  1
  O  O48  1  0.19559400  0.91545600  0.59759200  1
  O  O49  1  0.43998150  0.03057650  0.80995500  1
  O  O50  1  0.56001850  0.03057650  0.69004500  1
  O  O51  1  0.19559400  0.08454400  0.09759200  1
  O  O52  1  0.21020600  0.11597200  0.43148700  1
  O  O53  1  0.24921100  0.14876800  0.75116100  1
  O  O54  1  0.43315550  0.37679050  0.50506300  1
  O  O55  1  0.21020600  0.88402800  0.93148700  1
  O  O56  1  0.28979400  0.61597200  0.06851300  1
  O  O57  1  0.06684450  0.12320950  0.49493700  1
  O  O58  1  0.25078900  0.35123200  0.24883900  1
  O  O59  1  0.28979400  0.38402800  0.56851300  1
  O  O60  1  0.30440600  0.41545600  0.90240800  1
  O  O61  1  0.93998150  0.46942350  0.30995500  1
  O  O62  1  0.06001850  0.46942350  0.19004500  1
  O  O63  1  0.30440600  0.58454400  0.40240800  1
  O  O64  1  0.08396500  0.65239900  0.40655000  1
  O  O65  1  0.91603500  0.65239900  0.09345000  1
  O  O66  1  0.93315550  0.12320950  0.00506300  1
  O  O67  1  0.25078900  0.64876800  0.74883900  1
  O  O68  1  0.74921100  0.35123200  0.25116100  1
  O  O69  1  0.06684450  0.87679050  0.99493700  1
  O  O70  1  0.08396500  0.34760100  0.90655000  1
  O  O71  1  0.91603500  0.34760100  0.59345000  1
  O  O72  1  0.69559400  0.41545600  0.59759200  1
  O  O73  1  0.93998150  0.53057650  0.80995500  1
  O  O74  1  0.06001850  0.53057650  0.69004500  1
  O  O75  1  0.69559400  0.58454400  0.09759200  1
  O  O76  1  0.71020600  0.61597200  0.43148700  1
  O  O77  1  0.74921100  0.64876800  0.75116100  1
  O  O78  1  0.93315550  0.87679050  0.50506300  1
  O  O79  1  0.71020600  0.38402800  0.93148700  1
