# generated using pymatgen
data_K2Se3
_symmetry_space_group_name_H-M   'P 1'
_cell_length_a   7.68462000
_cell_length_b   10.74691400
_cell_length_c   7.75218400
_cell_angle_alpha   90.00000000
_cell_angle_beta   90.00000000
_cell_angle_gamma   90.00000000
_symmetry_Int_Tables_number   1
_chemical_formula_structural   K2Se3
_chemical_formula_sum   'K8 Se12'
_cell_volume   640.22148225
_cell_formula_units_Z   4
loop_
 _symmetry_equiv_pos_site_id
 _symmetry_equiv_pos_as_xyz
  1  'x, y, z'
loop_
 _atom_site_type_symbol
 _atom_site_label
 _atom_site_symmetry_multiplicity
 _atom_site_fract_x
 _atom_site_fract_y
 _atom_site_fract_z
 _atom_site_occupancy
  K  K0  1  0.50000000  0.59847400  0.62893200  1
  K  K1  1  0.50000000  0.40152600  0.12893200  1
  K  K2  1  0.50000000  0.08813800  0.35024800  1
  K  K3  1  0.50000000  0.91186200  0.85024800  1
  K  K4  1  0.00000000  0.09847400  0.62893200  1
  K  K5  1  0.00000000  0.90152600  0.12893200  1
  K  K6  1  0.00000000  0.58813800  0.35024800  1
  K  K7  1  0.00000000  0.41186200  0.85024800  1
  Se  Se8  1  0.50000000  0.29276200  0.68215900  1
  Se  Se9  1  0.50000000  0.70723800  0.18215900  1
  Se  Se10  1  0.24808800  0.84037800  0.50043100  1
  Se  Se11  1  0.75191200  0.15962200  0.00043100  1
  Se  Se12  1  0.75191200  0.84037800  0.50043100  1
  Se  Se13  1  0.24808800  0.15962200  0.00043100  1
  Se  Se14  1  0.00000000  0.79276200  0.68215900  1
  Se  Se15  1  0.00000000  0.20723800  0.18215900  1
  Se  Se16  1  0.74808800  0.34037800  0.50043100  1
  Se  Se17  1  0.25191200  0.65962200  0.00043100  1
  Se  Se18  1  0.25191200  0.34037800  0.50043100  1
  Se  Se19  1  0.74808800  0.65962200  0.00043100  1
