# generated using pymatgen
data_Cd(FeO2)2
_symmetry_space_group_name_H-M   'P 1'
_cell_length_a   3.03404700
_cell_length_b   9.37785100
_cell_length_c   10.86744200
_cell_angle_alpha   90.00000000
_cell_angle_beta   90.00000000
_cell_angle_gamma   90.00000000
_symmetry_Int_Tables_number   1
_chemical_formula_structural   Cd(FeO2)2
_chemical_formula_sum   'Cd4 Fe8 O16'
_cell_volume   309.20959597
_cell_formula_units_Z   4
loop_
 _symmetry_equiv_pos_site_id
 _symmetry_equiv_pos_as_xyz
  1  'x, y, z'
loop_
 _atom_site_type_symbol
 _atom_site_label
 _atom_site_symmetry_multiplicity
 _atom_site_fract_x
 _atom_site_fract_y
 _atom_site_fract_z
 _atom_site_occupancy
  Cd  Cd0  1  0.75000000  0.75724400  0.65642800  1
  Cd  Cd1  1  0.75000000  0.25724400  0.84357200  1
  Cd  Cd2  1  0.25000000  0.74275600  0.15642800  1
  Cd  Cd3  1  0.25000000  0.24275600  0.34357200  1
  Fe  Fe4  1  0.25000000  0.08422900  0.60363900  1
  Fe  Fe5  1  0.75000000  0.43731700  0.61361800  1
  Fe  Fe6  1  0.75000000  0.93731700  0.88638200  1
  Fe  Fe7  1  0.25000000  0.58422900  0.89636100  1
  Fe  Fe8  1  0.75000000  0.41577100  0.10363900  1
  Fe  Fe9  1  0.25000000  0.06268300  0.11361800  1
  Fe  Fe10  1  0.25000000  0.56268300  0.38638200  1
  Fe  Fe11  1  0.75000000  0.91577100  0.39636100  1
  O  O12  1  0.25000000  0.88326600  0.52568200  1
  O  O13  1  0.25000000  0.58210100  0.57103500  1
  O  O14  1  0.25000000  0.29726900  0.66138500  1
  O  O15  1  0.75000000  0.03129600  0.71573100  1
  O  O16  1  0.75000000  0.53129600  0.78426900  1
  O  O17  1  0.25000000  0.79726900  0.83861500  1
  O  O18  1  0.25000000  0.08210100  0.92896500  1
  O  O19  1  0.25000000  0.38326600  0.97431800  1
  O  O20  1  0.75000000  0.61673400  0.02568200  1
  O  O21  1  0.75000000  0.91789900  0.07103500  1
  O  O22  1  0.75000000  0.20273100  0.16138500  1
  O  O23  1  0.25000000  0.46870400  0.21573100  1
  O  O24  1  0.25000000  0.96870400  0.28426900  1
  O  O25  1  0.75000000  0.70273100  0.33861500  1
  O  O26  1  0.75000000  0.41789900  0.42896500  1
  O  O27  1  0.75000000  0.11673400  0.47431800  1
