# generated using pymatgen
data_LiZn2Fe9O16
_symmetry_space_group_name_H-M   'P 1'
_cell_length_a   10.47318922
_cell_length_b   6.04964077
_cell_length_c   19.99603424
_cell_angle_alpha   90.00000000
_cell_angle_beta   99.80628061
_cell_angle_gamma   90.00000000
_symmetry_Int_Tables_number   1
_chemical_formula_structural   LiZn2Fe9O16
_chemical_formula_sum   'Li4 Zn8 Fe36 O64'
_cell_volume   1248.41857487
_cell_formula_units_Z   4
loop_
 _symmetry_equiv_pos_site_id
 _symmetry_equiv_pos_as_xyz
  1  'x, y, z'
loop_
 _atom_site_type_symbol
 _atom_site_label
 _atom_site_symmetry_multiplicity
 _atom_site_fract_x
 _atom_site_fract_y
 _atom_site_fract_z
 _atom_site_occupancy
  Li  Li0  1  0.19048200  0.00000000  0.56016800  1
  Li  Li1  1  0.44179750  0.50000000  0.81310100  1
  Li  Li2  1  0.69048200  0.50000000  0.56016800  1
  Li  Li3  1  0.94179750  0.00000000  0.81310100  1
  Zn  Zn4  1  0.34745650  0.00000000  0.03079500  1
  Zn  Zn5  1  0.22321700  0.00000000  0.15627800  1
  Zn  Zn6  1  0.10018250  0.00000000  0.28279200  1
  Zn  Zn7  1  0.47690750  0.50000000  0.40870200  1
  Zn  Zn8  1  0.84745650  0.50000000  0.03079500  1
  Zn  Zn9  1  0.72321700  0.50000000  0.15627800  1
  Zn  Zn10  1  0.60018250  0.50000000  0.28279200  1
  Zn  Zn11  1  0.97690750  0.00000000  0.40870200  1
  Fe  Fe12  1  0.50165000  0.50000000  0.99619800  1
  Fe  Fe13  1  0.47315350  0.74414150  0.15634600  1
  Fe  Fe14  1  0.47315350  0.25585850  0.15634600  1
  Fe  Fe15  1  0.19591200  0.50000000  0.06535700  1
  Fe  Fe16  1  0.44841250  0.00000000  0.31358100  1
  Fe  Fe17  1  0.25009550  0.50000000  0.25064300  1
  Fe  Fe18  1  0.22248200  0.24203300  0.40809500  1
  Fe  Fe19  1  0.22248200  0.75796700  0.40809500  1
  Fe  Fe20  1  0.47029200  0.25688600  0.65480800  1
  Fe  Fe21  1  0.34806000  0.50000000  0.53414700  1
  Fe  Fe22  1  0.22855200  0.50000000  0.65475600  1
  Fe  Fe23  1  0.49807150  0.00000000  0.50135500  1
  Fe  Fe24  1  0.25502600  0.00000000  0.74767100  1
  Fe  Fe25  1  0.22122250  0.74419450  0.90392800  1
  Fe  Fe26  1  0.47029200  0.74311400  0.65480800  1
  Fe  Fe27  1  0.47503350  0.00000000  0.90365400  1
  Fe  Fe28  1  0.09963800  0.50000000  0.78313900  1
  Fe  Fe29  1  0.22122250  0.25580550  0.90392800  1
  Fe  Fe30  1  0.00165000  0.00000000  0.99619800  1
  Fe  Fe31  1  0.97315350  0.24414150  0.15634600  1
  Fe  Fe32  1  0.97315350  0.75585850  0.15634600  1
  Fe  Fe33  1  0.69591200  0.00000000  0.06535700  1
  Fe  Fe34  1  0.94841250  0.50000000  0.31358100  1
  Fe  Fe35  1  0.75009550  0.00000000  0.25064300  1
  Fe  Fe36  1  0.72248200  0.74203300  0.40809500  1
  Fe  Fe37  1  0.72248200  0.25796700  0.40809500  1
  Fe  Fe38  1  0.97029200  0.75688600  0.65480800  1
  Fe  Fe39  1  0.84806000  0.00000000  0.53414700  1
  Fe  Fe40  1  0.72855200  0.00000000  0.65475600  1
  Fe  Fe41  1  0.99807150  0.50000000  0.50135500  1
  Fe  Fe42  1  0.75502600  0.50000000  0.74767100  1
  Fe  Fe43  1  0.72122250  0.24419450  0.90392800  1
  Fe  Fe44  1  0.97029200  0.24311400  0.65480800  1
  Fe  Fe45  1  0.97503350  0.50000000  0.90365400  1
  Fe  Fe46  1  0.59963800  0.00000000  0.78313900  1
  Fe  Fe47  1  0.72122250  0.75580550  0.90392800  1
  O  O48  1  0.29485750  0.23696550  0.09568100  1
  O  O49  1  0.03009550  0.50000000  0.09712900  1
  O  O50  1  0.41412500  0.00000000  0.21341900  1
  O  O51  1  0.03141700  0.00000000  0.09572700  1
  O  O52  1  0.15156900  0.23802200  0.21574500  1
  O  O53  1  0.15156900  0.76197800  0.21574500  1
  O  O54  1  0.40076600  0.26166200  0.47177500  1
  O  O55  1  0.04477750  0.74956550  0.34652000  1
  O  O56  1  0.29485750  0.76303450  0.09568100  1
  O  O57  1  0.28621600  0.00000000  0.34867100  1
  O  O58  1  0.02470550  0.00000000  0.59741600  1
  O  O59  1  0.16441250  0.00000000  0.45947000  1
  O  O60  1  0.41394600  0.50000000  0.21437900  1
  O  O61  1  0.28449700  0.50000000  0.34993300  1
  O  O62  1  0.16487100  0.50000000  0.46816000  1
  O  O63  1  0.40076600  0.73833800  0.47177500  1
  O  O64  1  0.15533250  0.73116850  0.71783100  1
  O  O65  1  0.04477750  0.25043450  0.34652000  1
  O  O66  1  0.29442450  0.72754750  0.59708500  1
  O  O67  1  0.29442450  0.27245250  0.59708500  1
  O  O68  1  0.40752050  0.50000000  0.71103500  1
  O  O69  1  0.16448650  0.00000000  0.96288600  1
  O  O70  1  0.42115450  0.00000000  0.71714500  1
  O  O71  1  0.03787000  0.50000000  0.60095800  1
  O  O72  1  0.28716800  0.00000000  0.84744100  1
  O  O73  1  0.40308450  0.75501650  0.96185200  1
  O  O74  1  0.15533250  0.26883150  0.71783100  1
  O  O75  1  0.40308450  0.24498350  0.96185200  1
  O  O76  1  0.04614700  0.72036800  0.84763000  1
  O  O77  1  0.04614700  0.27963200  0.84763000  1
  O  O78  1  0.27031650  0.50000000  0.84762900  1
  O  O79  1  0.15890650  0.50000000  0.96577200  1
  O  O80  1  0.79485750  0.73696550  0.09568100  1
  O  O81  1  0.53009550  0.00000000  0.09712900  1
  O  O82  1  0.91412500  0.50000000  0.21341900  1
  O  O83  1  0.53141700  0.50000000  0.09572700  1
  O  O84  1  0.65156900  0.73802200  0.21574500  1
  O  O85  1  0.65156900  0.26197800  0.21574500  1
  O  O86  1  0.90076600  0.76166200  0.47177500  1
  O  O87  1  0.54477750  0.24956550  0.34652000  1
  O  O88  1  0.79485750  0.26303450  0.09568100  1
  O  O89  1  0.78621600  0.50000000  0.34867100  1
  O  O90  1  0.52470550  0.50000000  0.59741600  1
  O  O91  1  0.66441250  0.50000000  0.45947000  1
  O  O92  1  0.91394600  0.00000000  0.21437900  1
  O  O93  1  0.78449700  0.00000000  0.34993300  1
  O  O94  1  0.66487100  0.00000000  0.46816000  1
  O  O95  1  0.90076600  0.23833800  0.47177500  1
  O  O96  1  0.65533250  0.23116850  0.71783100  1
  O  O97  1  0.54477750  0.75043450  0.34652000  1
  O  O98  1  0.79442450  0.22754750  0.59708500  1
  O  O99  1  0.79442450  0.77245250  0.59708500  1
  O  O100  1  0.90752050  0.00000000  0.71103500  1
  O  O101  1  0.66448650  0.50000000  0.96288600  1
  O  O102  1  0.92115450  0.50000000  0.71714500  1
  O  O103  1  0.53787000  0.00000000  0.60095800  1
  O  O104  1  0.78716800  0.50000000  0.84744100  1
  O  O105  1  0.90308450  0.25501650  0.96185200  1
  O  O106  1  0.65533250  0.76883150  0.71783100  1
  O  O107  1  0.90308450  0.74498350  0.96185200  1
  O  O108  1  0.54614700  0.22036800  0.84763000  1
  O  O109  1  0.54614700  0.77963200  0.84763000  1
  O  O110  1  0.77031650  0.00000000  0.84762900  1
  O  O111  1  0.65890650  0.00000000  0.96577200  1
