# generated using pymatgen
data_Li6Mn5Fe(BO3)6
_symmetry_space_group_name_H-M   'P 1'
_cell_length_a   16.54530400
_cell_length_b   6.37662400
_cell_length_c   8.26034051
_cell_angle_alpha   90.00000000
_cell_angle_beta   119.91607203
_cell_angle_gamma   90.00000000
_symmetry_Int_Tables_number   1
_chemical_formula_structural   Li6Mn5Fe(BO3)6
_chemical_formula_sum   'Li12 Mn10 Fe2 B12 O36'
_cell_volume   755.37187480
_cell_formula_units_Z   2
loop_
 _symmetry_equiv_pos_site_id
 _symmetry_equiv_pos_as_xyz
  1  'x, y, z'
loop_
 _atom_site_type_symbol
 _atom_site_label
 _atom_site_symmetry_multiplicity
 _atom_site_fract_x
 _atom_site_fract_y
 _atom_site_fract_z
 _atom_site_occupancy
  Li  Li0  1  0.49152900  0.24943600  0.69901800  1
  Li  Li1  1  0.49152900  0.75056400  0.69901800  1
  Li  Li2  1  0.15075050  0.74945350  0.28323100  1
  Li  Li3  1  0.15075050  0.25054650  0.28323100  1
  Li  Li4  1  0.35824000  0.25021300  0.01760300  1
  Li  Li5  1  0.35824000  0.74978700  0.01760300  1
  Li  Li6  1  0.99152900  0.74943600  0.69901800  1
  Li  Li7  1  0.99152900  0.25056400  0.69901800  1
  Li  Li8  1  0.65075050  0.24945350  0.28323100  1
  Li  Li9  1  0.65075050  0.75054650  0.28323100  1
  Li  Li10  1  0.85824000  0.75021300  0.01760300  1
  Li  Li11  1  0.85824000  0.24978700  0.01760300  1
  Mn  Mn12  1  0.17951700  0.00000000  0.98781000  1
  Mn  Mn13  1  0.00600700  0.50000000  0.37230000  1
  Mn  Mn14  1  0.00609200  0.00000000  0.37134000  1
  Mn  Mn15  1  0.31438900  0.50000000  0.64063600  1
  Mn  Mn16  1  0.31391600  0.00000000  0.64009500  1
  Mn  Mn17  1  0.67951700  0.50000000  0.98781000  1
  Mn  Mn18  1  0.50600700  0.00000000  0.37230000  1
  Mn  Mn19  1  0.50609200  0.50000000  0.37134000  1
  Mn  Mn20  1  0.81438900  0.00000000  0.64063600  1
  Mn  Mn21  1  0.81391600  0.50000000  0.64009500  1
  Fe  Fe22  1  0.18025300  0.50000000  0.99149100  1
  Fe  Fe23  1  0.68025300  0.00000000  0.99149100  1
  B  B24  1  0.33284650  0.74806150  0.33242700  1
  B  B25  1  0.33284650  0.25193850  0.33242700  1
  B  B26  1  0.16676250  0.74871950  0.66814000  1
  B  B27  1  0.16676250  0.25128050  0.66814000  1
  B  B28  1  0.49993800  0.50000000  0.99995500  1
  B  B29  1  0.00019200  0.50000000  0.99822300  1
  B  B30  1  0.83284650  0.24806150  0.33242700  1
  B  B31  1  0.83284650  0.75193850  0.33242700  1
  B  B32  1  0.66676250  0.24871950  0.66814000  1
  B  B33  1  0.66676250  0.75128050  0.66814000  1
  B  B34  1  0.99993800  0.00000000  0.99995500  1
  B  B35  1  0.50019200  0.00000000  0.99822300  1
  O  O36  1  0.46028900  0.00000000  0.80483200  1
  O  O37  1  0.46108200  0.50000000  0.80632400  1
  O  O38  1  0.29003100  0.25003900  0.44039800  1
  O  O39  1  0.29003100  0.74996100  0.44039800  1
  O  O40  1  0.09660000  0.00000000  0.11580400  1
  O  O41  1  0.09736500  0.50000000  0.11069900  1
  O  O42  1  0.42954600  0.74978400  0.41828000  1
  O  O43  1  0.42954600  0.25021600  0.41828000  1
  O  O44  1  0.27893750  0.25395150  0.13865200  1
  O  O45  1  0.27893750  0.74604850  0.13865200  1
  O  O46  1  0.12589850  0.74769150  0.78011100  1
  O  O47  1  0.12589850  0.25230850  0.78011100  1
  O  O48  1  0.44367700  0.00000000  0.07907100  1
  O  O49  1  0.44209100  0.50000000  0.07793200  1
  O  O50  1  0.26356000  0.74966800  0.74986200  1
  O  O51  1  0.26356000  0.25033200  0.74986200  1
  O  O52  1  0.11119400  0.74982100  0.47402500  1
  O  O53  1  0.11119400  0.25017900  0.47402500  1
  O  O54  1  0.96028900  0.50000000  0.80483200  1
  O  O55  1  0.96108200  0.00000000  0.80632400  1
  O  O56  1  0.79003100  0.75003900  0.44039800  1
  O  O57  1  0.79003100  0.24996100  0.44039800  1
  O  O58  1  0.59660000  0.50000000  0.11580400  1
  O  O59  1  0.59736500  0.00000000  0.11069900  1
  O  O60  1  0.92954600  0.24978400  0.41828000  1
  O  O61  1  0.92954600  0.75021600  0.41828000  1
  O  O62  1  0.77893750  0.75395150  0.13865200  1
  O  O63  1  0.77893750  0.24604850  0.13865200  1
  O  O64  1  0.62589850  0.24769150  0.78011100  1
  O  O65  1  0.62589850  0.75230850  0.78011100  1
  O  O66  1  0.94367700  0.50000000  0.07907100  1
  O  O67  1  0.94209100  0.00000000  0.07793200  1
  O  O68  1  0.76356000  0.24966800  0.74986200  1
  O  O69  1  0.76356000  0.75033200  0.74986200  1
  O  O70  1  0.61119400  0.24982100  0.47402500  1
  O  O71  1  0.61119400  0.75017900  0.47402500  1
