# generated using pymatgen
data_FeOF
_symmetry_space_group_name_H-M   'P 1'
_cell_length_a   6.74573400
_cell_length_b   6.75100800
_cell_length_c   12.22597100
_cell_angle_alpha   90.00000000
_cell_angle_beta   90.00000000
_cell_angle_gamma   90.00000000
_symmetry_Int_Tables_number   1
_chemical_formula_structural   FeOF
_chemical_formula_sum   'Fe16 O16 F16'
_cell_volume   556.77688367
_cell_formula_units_Z   16
loop_
 _symmetry_equiv_pos_site_id
 _symmetry_equiv_pos_as_xyz
  1  'x, y, z'
loop_
 _atom_site_type_symbol
 _atom_site_label
 _atom_site_symmetry_multiplicity
 _atom_site_fract_x
 _atom_site_fract_y
 _atom_site_fract_z
 _atom_site_occupancy
  Fe  Fe0  1  0.50000000  0.53642000  0.00000000  1
  Fe  Fe1  1  0.48140600  0.46385600  0.75000000  1
  Fe  Fe2  1  0.50000000  0.53642000  0.50000000  1
  Fe  Fe3  1  0.51859400  0.46385600  0.25000000  1
  Fe  Fe4  1  0.52892100  0.00015200  0.87535700  1
  Fe  Fe5  1  0.47107900  0.00015200  0.37535700  1
  Fe  Fe6  1  0.47107900  0.00015200  0.12464300  1
  Fe  Fe7  1  0.52892100  0.00015200  0.62464300  1
  Fe  Fe8  1  0.00000000  0.03642000  0.00000000  1
  Fe  Fe9  1  0.98140600  0.96385600  0.75000000  1
  Fe  Fe10  1  0.00000000  0.03642000  0.50000000  1
  Fe  Fe11  1  0.01859400  0.96385600  0.25000000  1
  Fe  Fe12  1  0.02892100  0.50015200  0.87535700  1
  Fe  Fe13  1  0.97107900  0.50015200  0.37535700  1
  Fe  Fe14  1  0.97107900  0.50015200  0.12464300  1
  Fe  Fe15  1  0.02892100  0.50015200  0.62464300  1
  O  O16  1  0.18393650  0.99891950  0.37793500  1
  O  O17  1  0.18393650  0.99891950  0.12206500  1
  O  O18  1  0.50670050  0.17970250  0.75000000  1
  O  O19  1  0.49329950  0.17970250  0.25000000  1
  O  O20  1  0.50000000  0.82087200  0.00000000  1
  O  O21  1  0.50000000  0.82087200  0.50000000  1
  O  O22  1  0.81606350  0.99891950  0.87793500  1
  O  O23  1  0.81606350  0.99891950  0.62206500  1
  O  O24  1  0.68393650  0.49891950  0.37793500  1
  O  O25  1  0.68393650  0.49891950  0.12206500  1
  O  O26  1  0.00670050  0.67970250  0.75000000  1
  O  O27  1  0.99329950  0.67970250  0.25000000  1
  O  O28  1  0.00000000  0.32087200  0.00000000  1
  O  O29  1  0.00000000  0.32087200  0.50000000  1
  O  O30  1  0.31606350  0.49891950  0.87793500  1
  O  O31  1  0.31606350  0.49891950  0.62206500  1
  F  F32  1  0.20111500  0.00123800  0.87290400  1
  F  F33  1  0.20111500  0.00123800  0.62709600  1
  F  F34  1  0.50000000  0.20425800  0.00000000  1
  F  F35  1  0.50000000  0.20425800  0.50000000  1
  F  F36  1  0.51062650  0.79427250  0.75000000  1
  F  F37  1  0.48937350  0.79427250  0.25000000  1
  F  F38  1  0.79888500  0.00123800  0.37290400  1
  F  F39  1  0.79888500  0.00123800  0.12709600  1
  F  F40  1  0.70111500  0.50123800  0.87290400  1
  F  F41  1  0.70111500  0.50123800  0.62709600  1
  F  F42  1  0.00000000  0.70425800  0.00000000  1
  F  F43  1  0.00000000  0.70425800  0.50000000  1
  F  F44  1  0.01062650  0.29427250  0.75000000  1
  F  F45  1  0.98937350  0.29427250  0.25000000  1
  F  F46  1  0.29888500  0.50123800  0.37290400  1
  F  F47  1  0.29888500  0.50123800  0.12709600  1
