# generated using pymatgen
data_K3SrPCO7
_symmetry_space_group_name_H-M   'P 1'
_cell_length_a   5.76335200
_cell_length_b   7.59896500
_cell_length_c   10.03172446
_cell_angle_alpha   90.00000000
_cell_angle_beta   90.84597201
_cell_angle_gamma   90.00000000
_symmetry_Int_Tables_number   1
_chemical_formula_structural   K3SrPCO7
_chemical_formula_sum   'K6 Sr2 P2 C2 O14'
_cell_volume   439.29660158
_cell_formula_units_Z   2
loop_
 _symmetry_equiv_pos_site_id
 _symmetry_equiv_pos_as_xyz
  1  'x, y, z'
loop_
 _atom_site_type_symbol
 _atom_site_label
 _atom_site_symmetry_multiplicity
 _atom_site_fract_x
 _atom_site_fract_y
 _atom_site_fract_z
 _atom_site_occupancy
  K  K0  1  0.76112700  0.75000000  0.08363300  1
  K  K1  1  0.25185300  0.99462300  0.25802300  1
  K  K2  1  0.25185300  0.50537700  0.25802300  1
  K  K3  1  0.74814700  0.49462300  0.74197700  1
  K  K4  1  0.74814700  0.00537700  0.74197700  1
  K  K5  1  0.23887300  0.25000000  0.91636700  1
  Sr  Sr6  1  0.77411100  0.25000000  0.36556800  1
  Sr  Sr7  1  0.22588900  0.75000000  0.63443200  1
  P  P8  1  0.70128600  0.75000000  0.41064200  1
  P  P9  1  0.29871400  0.25000000  0.58935800  1
  C  C10  1  0.73662700  0.25000000  0.06306800  1
  C  C11  1  0.26337300  0.75000000  0.93693200  1
  O  O12  1  0.27957200  0.75000000  0.06647900  1
  O  O13  1  0.94033700  0.25000000  0.12221400  1
  O  O14  1  0.54961900  0.25000000  0.13555300  1
  O  O15  1  0.77562600  0.91746100  0.33103700  1
  O  O16  1  0.77562600  0.58253900  0.33103700  1
  O  O17  1  0.43144100  0.75000000  0.42401400  1
  O  O18  1  0.18689300  0.25000000  0.44632900  1
  O  O19  1  0.81310700  0.75000000  0.55367100  1
  O  O20  1  0.56855900  0.25000000  0.57598600  1
  O  O21  1  0.22437400  0.41746100  0.66896300  1
  O  O22  1  0.22437400  0.08253900  0.66896300  1
  O  O23  1  0.45038100  0.75000000  0.86444700  1
  O  O24  1  0.05966300  0.75000000  0.87778600  1
  O  O25  1  0.72042800  0.25000000  0.93352100  1
