# generated using pymatgen
data_Ba2SrI6
_symmetry_space_group_name_H-M   'P 1'
_cell_length_a   10.87627600
_cell_length_b   9.77497900
_cell_length_c   18.55454924
_cell_angle_alpha   90.00000000
_cell_angle_beta   123.75479010
_cell_angle_gamma   90.00000000
_symmetry_Int_Tables_number   1
_chemical_formula_structural   Ba2SrI6
_chemical_formula_sum   'Ba8 Sr4 I24'
_cell_volume   1640.09339696
_cell_formula_units_Z   4
loop_
 _symmetry_equiv_pos_site_id
 _symmetry_equiv_pos_as_xyz
  1  'x, y, z'
loop_
 _atom_site_type_symbol
 _atom_site_label
 _atom_site_symmetry_multiplicity
 _atom_site_fract_x
 _atom_site_fract_y
 _atom_site_fract_z
 _atom_site_occupancy
  Ba  Ba0  1  0.29652400  0.28876500  0.90882500  1
  Ba  Ba1  1  0.64234700  0.10149200  0.28660700  1
  Ba  Ba2  1  0.35765300  0.60149200  0.21339300  1
  Ba  Ba3  1  0.70347600  0.78876500  0.59117500  1
  Ba  Ba4  1  0.29652400  0.21123500  0.40882500  1
  Ba  Ba5  1  0.64234700  0.39850800  0.78660700  1
  Ba  Ba6  1  0.35765300  0.89850800  0.71339300  1
  Ba  Ba7  1  0.70347600  0.71123500  0.09117500  1
  Sr  Sr8  1  0.92910000  0.34965500  0.57328800  1
  Sr  Sr9  1  0.07090000  0.84965500  0.92671200  1
  Sr  Sr10  1  0.92910000  0.15034500  0.07328800  1
  Sr  Sr11  1  0.07090000  0.65034500  0.42671200  1
  I  I12  1  0.02763700  0.67115700  0.58909900  1
  I  I13  1  0.71868000  0.73733200  0.29270600  1
  I  I14  1  0.57636800  0.38839700  0.13571400  1
  I  I15  1  0.82434500  0.04367200  0.51117500  1
  I  I16  1  0.41594100  0.94387900  0.07418700  1
  I  I17  1  0.10124600  0.95965100  0.77331600  1
  I  I18  1  0.89875400  0.45965100  0.72668400  1
  I  I19  1  0.17565500  0.54367200  0.98882500  1
  I  I20  1  0.58405900  0.44387900  0.42581300  1
  I  I21  1  0.42363200  0.88839700  0.36428600  1
  I  I22  1  0.28132000  0.23733200  0.20729400  1
  I  I23  1  0.97236300  0.17115700  0.91090100  1
  I  I24  1  0.02763700  0.82884300  0.08909900  1
  I  I25  1  0.71868000  0.76266800  0.79270600  1
  I  I26  1  0.57636800  0.11160300  0.63571400  1
  I  I27  1  0.41594100  0.55612100  0.57418700  1
  I  I28  1  0.82434500  0.45632800  0.01117500  1
  I  I29  1  0.10124600  0.54034900  0.27331600  1
  I  I30  1  0.89875400  0.04034900  0.22668400  1
  I  I31  1  0.58405900  0.05612100  0.92581300  1
  I  I32  1  0.17565500  0.95632800  0.48882500  1
  I  I33  1  0.42363200  0.61160300  0.86428600  1
  I  I34  1  0.28132000  0.26266800  0.70729400  1
  I  I35  1  0.97236300  0.32884300  0.41090100  1
