# generated using pymatgen
data_Sr2LaCl7
_symmetry_space_group_name_H-M   'P 1'
_cell_length_a   7.20691000
_cell_length_b   13.35307400
_cell_length_c   12.51469174
_cell_angle_alpha   90.00000000
_cell_angle_beta   91.25431120
_cell_angle_gamma   90.00000000
_symmetry_Int_Tables_number   1
_chemical_formula_structural   Sr2LaCl7
_chemical_formula_sum   'Sr8 La4 Cl28'
_cell_volume   1204.05530064
_cell_formula_units_Z   4
loop_
 _symmetry_equiv_pos_site_id
 _symmetry_equiv_pos_as_xyz
  1  'x, y, z'
loop_
 _atom_site_type_symbol
 _atom_site_label
 _atom_site_symmetry_multiplicity
 _atom_site_fract_x
 _atom_site_fract_y
 _atom_site_fract_z
 _atom_site_occupancy
  Sr  Sr0  1  0.69796700  0.45048800  0.22276800  1
  Sr  Sr1  1  0.79172700  0.14245200  0.22110800  1
  Sr  Sr2  1  0.20827300  0.64245200  0.27889200  1
  Sr  Sr3  1  0.30203300  0.95048800  0.27723200  1
  Sr  Sr4  1  0.69796700  0.04951200  0.72276800  1
  Sr  Sr5  1  0.79172700  0.35754800  0.72110800  1
  Sr  Sr6  1  0.20827300  0.85754800  0.77889200  1
  Sr  Sr7  1  0.30203300  0.54951200  0.77723200  1
  La  La8  1  0.78999000  0.76094300  0.02935400  1
  La  La9  1  0.21001000  0.26094300  0.47064600  1
  La  La10  1  0.78999000  0.73905700  0.52935400  1
  La  La11  1  0.21001000  0.23905700  0.97064600  1
  Cl  Cl12  1  0.15334600  0.81229100  0.10709500  1
  Cl  Cl13  1  0.95765900  0.58082500  0.11028600  1
  Cl  Cl14  1  0.50311600  0.61879100  0.11851000  1
  Cl  Cl15  1  0.12937800  0.07577000  0.10827100  1
  Cl  Cl16  1  0.64398000  0.93934900  0.14377500  1
  Cl  Cl17  1  0.99573600  0.31723600  0.13941100  1
  Cl  Cl18  1  0.48994300  0.26953900  0.13575400  1
  Cl  Cl19  1  0.51005700  0.76953900  0.36424600  1
  Cl  Cl20  1  0.00426400  0.81723600  0.36058900  1
  Cl  Cl21  1  0.35602000  0.43934900  0.35622500  1
  Cl  Cl22  1  0.87062200  0.57577000  0.39172900  1
  Cl  Cl23  1  0.49688400  0.11879100  0.38149000  1
  Cl  Cl24  1  0.04234100  0.08082500  0.38971400  1
  Cl  Cl25  1  0.84665400  0.31229100  0.39290500  1
  Cl  Cl26  1  0.15334600  0.68770900  0.60709500  1
  Cl  Cl27  1  0.95765900  0.91917500  0.61028600  1
  Cl  Cl28  1  0.50311600  0.88120900  0.61851000  1
  Cl  Cl29  1  0.12937800  0.42423000  0.60827100  1
  Cl  Cl30  1  0.64398000  0.56065100  0.64377500  1
  Cl  Cl31  1  0.99573600  0.18276400  0.63941100  1
  Cl  Cl32  1  0.48994300  0.23046100  0.63575400  1
  Cl  Cl33  1  0.51005700  0.73046100  0.86424600  1
  Cl  Cl34  1  0.00426400  0.68276400  0.86058900  1
  Cl  Cl35  1  0.35602000  0.06065100  0.85622500  1
  Cl  Cl36  1  0.87062200  0.92423000  0.89172900  1
  Cl  Cl37  1  0.49688400  0.38120900  0.88149000  1
  Cl  Cl38  1  0.04234100  0.41917500  0.88971400  1
  Cl  Cl39  1  0.84665400  0.18770900  0.89290500  1
