# generated using pymatgen
data_Zr2N2O
_symmetry_space_group_name_H-M   'P 1'
_cell_length_a   9.63227400
_cell_length_b   16.65084800
_cell_length_c   5.88464355
_cell_angle_alpha   90.00000000
_cell_angle_beta   122.99192501
_cell_angle_gamma   90.00000000
_symmetry_Int_Tables_number   1
_chemical_formula_structural   Zr2N2O
_chemical_formula_sum   'Zr24 N24 O12'
_cell_volume   791.61951293
_cell_formula_units_Z   12
loop_
 _symmetry_equiv_pos_site_id
 _symmetry_equiv_pos_as_xyz
  1  'x, y, z'
loop_
 _atom_site_type_symbol
 _atom_site_label
 _atom_site_symmetry_multiplicity
 _atom_site_fract_x
 _atom_site_fract_y
 _atom_site_fract_z
 _atom_site_occupancy
  Zr  Zr0  1  0.60466300  0.08173000  0.06077800  1
  Zr  Zr1  1  0.39533700  0.08173000  0.43922200  1
  Zr  Zr2  1  0.11094550  0.08152750  0.58678800  1
  Zr  Zr3  1  0.88905450  0.08152750  0.91321200  1
  Zr  Zr4  1  0.60884150  0.25029950  0.57400100  1
  Zr  Zr5  1  0.89115850  0.24970050  0.42599900  1
  Zr  Zr6  1  0.61094550  0.41847250  0.08678800  1
  Zr  Zr7  1  0.89533700  0.41827000  0.93922200  1
  Zr  Zr8  1  0.39115850  0.25029950  0.92599900  1
  Zr  Zr9  1  0.10884150  0.24970050  0.07400100  1
  Zr  Zr10  1  0.38905450  0.41847250  0.41321200  1
  Zr  Zr11  1  0.10466300  0.41827000  0.56077800  1
  Zr  Zr12  1  0.10466300  0.58173000  0.06077800  1
  Zr  Zr13  1  0.89533700  0.58173000  0.43922200  1
  Zr  Zr14  1  0.61094550  0.58152750  0.58678800  1
  Zr  Zr15  1  0.38905450  0.58152750  0.91321200  1
  Zr  Zr16  1  0.10884150  0.75029950  0.57400100  1
  Zr  Zr17  1  0.39115850  0.74970050  0.42599900  1
  Zr  Zr18  1  0.11094550  0.91847250  0.08678800  1
  Zr  Zr19  1  0.39533700  0.91827000  0.93922200  1
  Zr  Zr20  1  0.89115850  0.75029950  0.92599900  1
  Zr  Zr21  1  0.60884150  0.74970050  0.07400100  1
  Zr  Zr22  1  0.88905450  0.91847250  0.41321200  1
  Zr  Zr23  1  0.60466300  0.91827000  0.56077800  1
  N  N24  1  0.50000000  0.18333400  0.75000000  1
  N  N25  1  0.15077950  0.20018350  0.75163800  1
  N  N26  1  0.84922050  0.20018350  0.74836200  1
  N  N27  1  0.65077950  0.29981650  0.25163800  1
  N  N28  1  0.00000000  0.31666600  0.25000000  1
  N  N29  1  0.35228500  0.03374400  0.75549000  1
  N  N30  1  0.14771500  0.46625600  0.24451000  1
  N  N31  1  0.85228500  0.46625600  0.25549000  1
  N  N32  1  0.34922050  0.29981650  0.24836200  1
  N  N33  1  0.00000000  0.01380200  0.75000000  1
  N  N34  1  0.64771500  0.03374400  0.74451000  1
  N  N35  1  0.50000000  0.48619800  0.25000000  1
  N  N36  1  0.00000000  0.68333400  0.75000000  1
  N  N37  1  0.65077950  0.70018350  0.75163800  1
  N  N38  1  0.34922050  0.70018350  0.74836200  1
  N  N39  1  0.15077950  0.79981650  0.25163800  1
  N  N40  1  0.50000000  0.81666600  0.25000000  1
  N  N41  1  0.85228500  0.53374400  0.75549000  1
  N  N42  1  0.64771500  0.96625600  0.24451000  1
  N  N43  1  0.35228500  0.96625600  0.25549000  1
  N  N44  1  0.84922050  0.79981650  0.24836200  1
  N  N45  1  0.50000000  0.51380200  0.75000000  1
  N  N46  1  0.14771500  0.53374400  0.74451000  1
  N  N47  1  0.00000000  0.98619800  0.25000000  1
  O  O48  1  0.85040850  0.13407150  0.24698800  1
  O  O49  1  0.50000000  0.14845800  0.25000000  1
  O  O50  1  0.64959150  0.36592850  0.75301200  1
  O  O51  1  0.14959150  0.13407150  0.25301200  1
  O  O52  1  0.00000000  0.35154200  0.75000000  1
  O  O53  1  0.35040850  0.36592850  0.74698800  1
  O  O54  1  0.35040850  0.63407150  0.24698800  1
  O  O55  1  0.00000000  0.64845800  0.25000000  1
  O  O56  1  0.14959150  0.86592850  0.75301200  1
  O  O57  1  0.64959150  0.63407150  0.25301200  1
  O  O58  1  0.50000000  0.85154200  0.75000000  1
  O  O59  1  0.85040850  0.86592850  0.74698800  1
