# generated using pymatgen
data_Ca2Mn2Si4H6O17
_symmetry_space_group_name_H-M   'P 1'
_cell_length_a   9.08875200
_cell_length_b   6.03641200
_cell_length_c   12.03166940
_cell_angle_alpha   90.00000000
_cell_angle_beta   94.14324862
_cell_angle_gamma   90.00000000
_symmetry_Int_Tables_number   1
_chemical_formula_structural   Ca2Mn2Si4H6O17
_chemical_formula_sum   'Ca4 Mn4 Si8 H12 O34'
_cell_volume   658.37376393
_cell_formula_units_Z   2
loop_
 _symmetry_equiv_pos_site_id
 _symmetry_equiv_pos_as_xyz
  1  'x, y, z'
loop_
 _atom_site_type_symbol
 _atom_site_label
 _atom_site_symmetry_multiplicity
 _atom_site_fract_x
 _atom_site_fract_y
 _atom_site_fract_z
 _atom_site_occupancy
  Ca  Ca0  1  0.69784800  0.99580700  0.26617500  1
  Ca  Ca1  1  0.30215200  0.99580700  0.73382500  1
  Ca  Ca2  1  0.19784800  0.49580700  0.26617500  1
  Ca  Ca3  1  0.80215200  0.49580700  0.73382500  1
  Mn  Mn4  1  0.74932700  0.24414600  0.99976400  1
  Mn  Mn5  1  0.25067300  0.24414600  0.00023600  1
  Mn  Mn6  1  0.24932700  0.74414600  0.99976400  1
  Mn  Mn7  1  0.75067300  0.74414600  0.00023600  1
  Si  Si8  1  0.03599850  0.99539650  0.14854500  1
  Si  Si9  1  0.96400150  0.99539650  0.85145500  1
  Si  Si10  1  0.09967550  0.98572350  0.39591100  1
  Si  Si11  1  0.90032450  0.98572350  0.60408900  1
  Si  Si12  1  0.53599850  0.49539650  0.14854500  1
  Si  Si13  1  0.46400150  0.49539650  0.85145500  1
  Si  Si14  1  0.59967550  0.48572350  0.39591100  1
  Si  Si15  1  0.40032450  0.48572350  0.60408900  1
  H  H16  1  0.71444200  0.76395200  0.49298800  1
  H  H17  1  0.28555800  0.76395200  0.50701200  1
  H  H18  1  0.37547400  0.93639200  0.32522300  1
  H  H19  1  0.62452600  0.93639200  0.67477700  1
  H  H20  1  0.39742600  0.00317300  0.19807300  1
  H  H21  1  0.60257400  0.00317300  0.80192700  1
  H  H22  1  0.21444200  0.26395200  0.49298800  1
  H  H23  1  0.78555800  0.26395200  0.50701200  1
  H  H24  1  0.87547400  0.43639200  0.32522300  1
  H  H25  1  0.12452600  0.43639200  0.67477700  1
  H  H26  1  0.89742600  0.50317300  0.19807300  1
  H  H27  1  0.10257400  0.50317300  0.80192700  1
  O  O28  1  0.86848400  0.99538600  0.07908700  1
  O  O29  1  0.13151600  0.99538600  0.92091300  1
  O  O30  1  0.98831550  0.00196550  0.27943900  1
  O  O31  1  0.01168450  0.00196550  0.72056100  1
  O  O32  1  0.62638600  0.26852900  0.12639100  1
  O  O33  1  0.37361400  0.26852900  0.87360900  1
  O  O34  1  0.37077950  0.72020350  0.87293600  1
  O  O35  1  0.62922050  0.72020350  0.12706400  1
  O  O36  1  0.50000000  0.43327400  0.50000000  1
  O  O37  1  0.22436450  0.79801750  0.38620900  1
  O  O38  1  0.77563550  0.79801750  0.61379100  1
  O  O39  1  0.32838250  0.73645650  0.58814600  1
  O  O40  1  0.67161750  0.73645650  0.41185400  1
  O  O41  1  0.35609900  0.99325200  0.05713700  1
  O  O42  1  0.64390100  0.99325200  0.94286300  1
  O  O43  1  0.44043300  0.01846300  0.27689400  1
  O  O44  1  0.55956700  0.01846300  0.72310600  1
  O  O45  1  0.36848400  0.49538600  0.07908700  1
  O  O46  1  0.63151600  0.49538600  0.92091300  1
  O  O47  1  0.48831550  0.50196550  0.27943900  1
  O  O48  1  0.51168450  0.50196550  0.72056100  1
  O  O49  1  0.12638600  0.76852900  0.12639100  1
  O  O50  1  0.87361400  0.76852900  0.87360900  1
  O  O51  1  0.87077950  0.22020350  0.87293600  1
  O  O52  1  0.12922050  0.22020350  0.12706400  1
  O  O53  1  0.00000000  0.93327400  0.50000000  1
  O  O54  1  0.72436450  0.29801750  0.38620900  1
  O  O55  1  0.27563550  0.29801750  0.61379100  1
  O  O56  1  0.82838250  0.23645650  0.58814600  1
  O  O57  1  0.17161750  0.23645650  0.41185400  1
  O  O58  1  0.85609900  0.49325200  0.05713700  1
  O  O59  1  0.14390100  0.49325200  0.94286300  1
  O  O60  1  0.94043300  0.51846300  0.27689400  1
  O  O61  1  0.05956700  0.51846300  0.72310600  1
