# generated using pymatgen
data_LiV(CO3)2
_symmetry_space_group_name_H-M   'P 1'
_cell_length_a   4.69259388
_cell_length_b   4.69259388
_cell_length_c   15.27622632
_cell_angle_alpha   90.00000000
_cell_angle_beta   90.00000000
_cell_angle_gamma   120.00000000
_symmetry_Int_Tables_number   1
_chemical_formula_structural   LiV(CO3)2
_chemical_formula_sum   'Li3 V3 C6 O18'
_cell_volume   291.32157855
_cell_formula_units_Z   3
loop_
 _symmetry_equiv_pos_site_id
 _symmetry_equiv_pos_as_xyz
  1  'x, y, z'
loop_
 _atom_site_type_symbol
 _atom_site_label
 _atom_site_symmetry_multiplicity
 _atom_site_fract_x
 _atom_site_fract_y
 _atom_site_fract_z
 _atom_site_occupancy
  Li  Li0  1  0.00000000  0.00000000  0.00000000  1
  Li  Li1  1  0.66666667  0.33333333  0.33333333  1
  Li  Li2  1  0.33333333  0.66666667  0.66666667  1
  V  V3  1  0.33333333  0.66666667  0.16666667  1
  V  V4  1  1.00000000  0.00000000  0.50000000  1
  V  V5  1  0.66666667  0.33333333  0.83333333  1
  C  C6  1  0.00000000  0.00000000  0.24490900  1
  C  C7  1  0.66666667  0.33333333  0.08842433  1
  C  C8  1  0.66666667  0.33333333  0.57824233  1
  C  C9  1  0.33333333  0.66666667  0.42175767  1
  C  C10  1  0.33333333  0.66666667  0.91157567  1
  C  C11  1  0.00000000  0.00000000  0.75509100  1
  O  O12  1  0.65439867  0.60312833  0.08805233  1
  O  O13  1  0.71793700  0.98773200  0.24528100  1
  O  O14  1  0.26979500  0.28206300  0.24528100  1
  O  O15  1  0.39687167  0.05127033  0.08805233  1
  O  O16  1  0.94872967  0.34560133  0.08805233  1
  O  O17  1  0.01226800  0.73020500  0.24528100  1
  O  O18  1  0.32106533  0.93646167  0.42138567  1
  O  O19  1  0.38460367  0.32106533  0.57861433  1
  O  O20  1  0.93646167  0.61539633  0.57861433  1
  O  O21  1  0.06353833  0.38460367  0.42138567  1
  O  O22  1  0.61539633  0.67893467  0.42138567  1
  O  O23  1  0.67893467  0.06353833  0.57861433  1
  O  O24  1  0.98773200  0.26979500  0.75471900  1
  O  O25  1  0.05127033  0.65439867  0.91194767  1
  O  O26  1  0.60312833  0.94872967  0.91194767  1
  O  O27  1  0.73020500  0.71793700  0.75471900  1
  O  O28  1  0.28206300  0.01226800  0.75471900  1
  O  O29  1  0.34560133  0.39687167  0.91194767  1
