# generated using pymatgen
data_BaLaCl5
_symmetry_space_group_name_H-M   'P 1'
_cell_length_a   7.13334700
_cell_length_b   12.46689400
_cell_length_c   9.97785963
_cell_angle_alpha   90.00000000
_cell_angle_beta   92.87807531
_cell_angle_gamma   90.00000000
_symmetry_Int_Tables_number   1
_chemical_formula_structural   BaLaCl5
_chemical_formula_sum   'Ba4 La4 Cl20'
_cell_volume   886.21860232
_cell_formula_units_Z   4
loop_
 _symmetry_equiv_pos_site_id
 _symmetry_equiv_pos_as_xyz
  1  'x, y, z'
loop_
 _atom_site_type_symbol
 _atom_site_label
 _atom_site_symmetry_multiplicity
 _atom_site_fract_x
 _atom_site_fract_y
 _atom_site_fract_z
 _atom_site_occupancy
  Ba  Ba0  1  0.96600300  0.97250500  0.82393100  1
  Ba  Ba1  1  0.55064200  0.63686700  0.62501400  1
  Ba  Ba2  1  0.44935800  0.13686700  0.37498600  1
  Ba  Ba3  1  0.03399700  0.47250500  0.17606900  1
  La  La4  1  0.01387000  0.37894000  0.61268200  1
  La  La5  1  0.47488700  0.78629400  0.10580200  1
  La  La6  1  0.52511300  0.28629400  0.89419800  1
  La  La7  1  0.98613000  0.87894000  0.38731800  1
  Cl  Cl8  1  0.04496200  0.22938100  0.41112400  1
  Cl  Cl9  1  0.81109800  0.47119500  0.82832500  1
  Cl  Cl10  1  0.85221700  0.71035700  0.21470300  1
  Cl  Cl11  1  0.76987000  0.48537200  0.43076100  1
  Cl  Cl12  1  0.68919600  0.77820000  0.87797800  1
  Cl  Cl13  1  0.73185500  0.98017400  0.55226700  1
  Cl  Cl14  1  0.79726700  0.27570300  0.09485900  1
  Cl  Cl15  1  0.64818200  0.26144000  0.62545100  1
  Cl  Cl16  1  0.68497100  0.96797500  0.21372400  1
  Cl  Cl17  1  0.57117800  0.06709800  0.88814600  1
  Cl  Cl18  1  0.42882200  0.56709800  0.11185400  1
  Cl  Cl19  1  0.31502900  0.46797500  0.78627600  1
  Cl  Cl20  1  0.35181800  0.76144000  0.37454900  1
  Cl  Cl21  1  0.20273300  0.77570300  0.90514100  1
  Cl  Cl22  1  0.26814500  0.48017400  0.44773300  1
  Cl  Cl23  1  0.31080400  0.27820000  0.12202200  1
  Cl  Cl24  1  0.23013000  0.98537200  0.56923900  1
  Cl  Cl25  1  0.14778300  0.21035700  0.78529700  1
  Cl  Cl26  1  0.18890200  0.97119500  0.17167500  1
  Cl  Cl27  1  0.95503800  0.72938100  0.58887600  1
