# generated using pymatgen
data_HgF
_symmetry_space_group_name_H-M   'P 1'
_cell_length_a   3.84154800
_cell_length_b   3.84154800
_cell_length_c   11.01805200
_cell_angle_alpha   90.00000000
_cell_angle_beta   90.00000000
_cell_angle_gamma   90.00000000
_symmetry_Int_Tables_number   1
_chemical_formula_structural   HgF
_chemical_formula_sum   'Hg4 F4'
_cell_volume   162.59880363
_cell_formula_units_Z   4
loop_
 _symmetry_equiv_pos_site_id
 _symmetry_equiv_pos_as_xyz
  1  'x, y, z'
loop_
 _atom_site_type_symbol
 _atom_site_label
 _atom_site_symmetry_multiplicity
 _atom_site_fract_x
 _atom_site_fract_y
 _atom_site_fract_z
 _atom_site_occupancy
  Hg  Hg0  1  0.50000000  0.50000000  0.38294900  1
  Hg  Hg1  1  0.00000000  0.00000000  0.11705100  1
  Hg  Hg2  1  0.00000000  0.00000000  0.88294900  1
  Hg  Hg3  1  0.50000000  0.50000000  0.61705100  1
  F  F4  1  0.50000000  0.50000000  0.18606000  1
  F  F5  1  0.00000000  0.00000000  0.31394000  1
  F  F6  1  0.00000000  0.00000000  0.68606000  1
  F  F7  1  0.50000000  0.50000000  0.81394000  1
