# generated using pymatgen
data_Tm2P4O13
_symmetry_space_group_name_H-M   'P 1'
_cell_length_a   7.00322000
_cell_length_b   17.45236800
_cell_length_c   8.54622500
_cell_angle_alpha   90.00000000
_cell_angle_beta   90.00000000
_cell_angle_gamma   90.00000000
_symmetry_Int_Tables_number   1
_chemical_formula_structural   Tm2P4O13
_chemical_formula_sum   'Tm8 P16 O52'
_cell_volume   1044.54331498
_cell_formula_units_Z   4
loop_
 _symmetry_equiv_pos_site_id
 _symmetry_equiv_pos_as_xyz
  1  'x, y, z'
loop_
 _atom_site_type_symbol
 _atom_site_label
 _atom_site_symmetry_multiplicity
 _atom_site_fract_x
 _atom_site_fract_y
 _atom_site_fract_z
 _atom_site_occupancy
  Tm  Tm0  1  0.74592800  0.85287700  0.35210100  1
  Tm  Tm1  1  0.25407200  0.85287700  0.14789900  1
  Tm  Tm2  1  0.24592800  0.64712300  0.64789900  1
  Tm  Tm3  1  0.75407200  0.64712300  0.85210100  1
  Tm  Tm4  1  0.24592800  0.35287700  0.35210100  1
  Tm  Tm5  1  0.75407200  0.35287700  0.14789900  1
  Tm  Tm6  1  0.74592800  0.14712300  0.64789900  1
  Tm  Tm7  1  0.25407200  0.14712300  0.85210100  1
  P  P8  1  0.77743350  0.94205250  0.72439400  1
  P  P9  1  0.22256650  0.94205250  0.77560600  1
  P  P10  1  0.25524600  0.83977400  0.50218600  1
  P  P11  1  0.74475400  0.83977400  0.99781400  1
  P  P12  1  0.75524600  0.66022600  0.49781400  1
  P  P13  1  0.24475400  0.66022600  0.00218600  1
  P  P14  1  0.72256650  0.55794750  0.22439400  1
  P  P15  1  0.27743350  0.55794750  0.27560600  1
  P  P16  1  0.27743350  0.44205250  0.72439400  1
  P  P17  1  0.72256650  0.44205250  0.77560600  1
  P  P18  1  0.75524600  0.33977400  0.50218600  1
  P  P19  1  0.24475400  0.33977400  0.99781400  1
  P  P20  1  0.25524600  0.16022600  0.49781400  1
  P  P21  1  0.74475400  0.16022600  0.00218600  1
  P  P22  1  0.22256650  0.05794750  0.22439400  1
  P  P23  1  0.77743350  0.05794750  0.27560600  1
  O  O24  1  0.28062400  0.97604500  0.20266000  1
  O  O25  1  0.71937600  0.97604500  0.29734000  1
  O  O26  1  0.00000000  0.93838700  0.75000000  1
  O  O27  1  0.29976850  0.91477950  0.60872700  1
  O  O28  1  0.70023150  0.91477950  0.89127300  1
  O  O29  1  0.27334450  0.88520750  0.90045500  1
  O  O30  1  0.72665550  0.88520750  0.59954500  1
  O  O31  1  0.07540350  0.85493650  0.40121800  1
  O  O32  1  0.92459650  0.85493650  0.09878200  1
  O  O33  1  0.57911050  0.83879150  0.11593500  1
  O  O34  1  0.42088950  0.83879150  0.38406500  1
  O  O35  1  0.75554300  0.77098000  0.89126900  1
  O  O36  1  0.24445700  0.77098000  0.60873100  1
  O  O37  1  0.74445700  0.72902000  0.39126900  1
  O  O38  1  0.25554300  0.72902000  0.10873100  1
  O  O39  1  0.92088950  0.66120850  0.61593500  1
  O  O40  1  0.07911050  0.66120850  0.88406500  1
  O  O41  1  0.42459650  0.64506350  0.90121800  1
  O  O42  1  0.57540350  0.64506350  0.59878200  1
  O  O43  1  0.22665550  0.61479250  0.40045500  1
  O  O44  1  0.77334450  0.61479250  0.09954500  1
  O  O45  1  0.79976850  0.58522050  0.39127300  1
  O  O46  1  0.20023150  0.58522050  0.10872700  1
  O  O47  1  0.50000000  0.56161300  0.25000000  1
  O  O48  1  0.78062400  0.52395500  0.79734000  1
  O  O49  1  0.21937600  0.52395500  0.70266000  1
  O  O50  1  0.78062400  0.47604500  0.20266000  1
  O  O51  1  0.21937600  0.47604500  0.29734000  1
  O  O52  1  0.50000000  0.43838700  0.75000000  1
  O  O53  1  0.79976850  0.41477950  0.60872700  1
  O  O54  1  0.20023150  0.41477950  0.89127300  1
  O  O55  1  0.77334450  0.38520750  0.90045500  1
  O  O56  1  0.22665550  0.38520750  0.59954500  1
  O  O57  1  0.57540350  0.35493650  0.40121800  1
  O  O58  1  0.42459650  0.35493650  0.09878200  1
  O  O59  1  0.07911050  0.33879150  0.11593500  1
  O  O60  1  0.92088950  0.33879150  0.38406500  1
  O  O61  1  0.25554300  0.27098000  0.89126900  1
  O  O62  1  0.74445700  0.27098000  0.60873100  1
  O  O63  1  0.24445700  0.22902000  0.39126900  1
  O  O64  1  0.75554300  0.22902000  0.10873100  1
  O  O65  1  0.42088950  0.16120850  0.61593500  1
  O  O66  1  0.57911050  0.16120850  0.88406500  1
  O  O67  1  0.92459650  0.14506350  0.90121800  1
  O  O68  1  0.07540350  0.14506350  0.59878200  1
  O  O69  1  0.72665550  0.11479250  0.40045500  1
  O  O70  1  0.27334450  0.11479250  0.09954500  1
  O  O71  1  0.29976850  0.08522050  0.39127300  1
  O  O72  1  0.70023150  0.08522050  0.10872700  1
  O  O73  1  0.00000000  0.06161300  0.25000000  1
  O  O74  1  0.28062400  0.02395500  0.79734000  1
  O  O75  1  0.71937600  0.02395500  0.70266000  1
