# generated using pymatgen
data_Fe23O32
_symmetry_space_group_name_H-M   'P 1'
_cell_length_a   8.41857200
_cell_length_b   8.45028182
_cell_length_c   8.46130407
_cell_angle_alpha   90.40275259
_cell_angle_beta   90.06718014
_cell_angle_gamma   90.17142080
_symmetry_Int_Tables_number   1
_chemical_formula_structural   Fe23O32
_chemical_formula_sum   'Fe23 O32'
_cell_volume   601.91330487
_cell_formula_units_Z   1
loop_
 _symmetry_equiv_pos_site_id
 _symmetry_equiv_pos_as_xyz
  1  'x, y, z'
loop_
 _atom_site_type_symbol
 _atom_site_label
 _atom_site_symmetry_multiplicity
 _atom_site_fract_x
 _atom_site_fract_y
 _atom_site_fract_z
 _atom_site_occupancy
  Fe  Fe0  1  0.50748700  0.00237500  0.50321300  1
  Fe  Fe1  1  0.87095600  0.12522400  0.36934700  1
  Fe  Fe2  1  0.12159600  0.12385100  0.62445700  1
  Fe  Fe3  1  0.38303800  0.12885400  0.88244000  1
  Fe  Fe4  1  0.24048600  0.25185800  0.24862700  1
  Fe  Fe5  1  0.74840500  0.24743500  0.75178000  1
  Fe  Fe6  1  0.87241700  0.37314000  0.12441800  1
  Fe  Fe7  1  0.12422100  0.37572600  0.87602400  1
  Fe  Fe8  1  0.62466000  0.36558700  0.36638600  1
  Fe  Fe9  1  0.37908100  0.37597900  0.62530800  1
  Fe  Fe10  1  0.00196200  0.49460100  0.49570900  1
  Fe  Fe11  1  0.50678000  0.50316000  0.00222600  1
  Fe  Fe12  1  0.12320800  0.62474700  0.12505900  1
  Fe  Fe13  1  0.87601100  0.62409600  0.87472000  1
  Fe  Fe14  1  0.37696200  0.62572900  0.37205400  1
  Fe  Fe15  1  0.62731100  0.62511400  0.62480000  1
  Fe  Fe16  1  0.74871200  0.75109600  0.24445300  1
  Fe  Fe17  1  0.24925500  0.75048300  0.75177300  1
  Fe  Fe18  1  0.12251900  0.87485700  0.37248800  1
  Fe  Fe19  1  0.87295200  0.87322600  0.62343800  1
  Fe  Fe20  1  0.37926600  0.88289100  0.12852900  1
  Fe  Fe21  1  0.62690600  0.87718200  0.87942700  1
  Fe  Fe22  1  0.99826300  0.00206800  0.00854000  1
  O  O23  1  0.11106200  0.11970700  0.38379900  1
  O  O24  1  0.35450200  0.11324900  0.11557300  1
  O  O25  1  0.61442900  0.10575200  0.86437400  1
  O  O26  1  0.13122100  0.12787000  0.86459100  1
  O  O27  1  0.88467300  0.12781500  0.60836700  1
  O  O28  1  0.89133600  0.14478200  0.14284100  1
  O  O29  1  0.64428900  0.12892300  0.38725700  1
  O  O30  1  0.36407500  0.13656700  0.63057100  1
  O  O31  1  0.87125500  0.36307300  0.36100700  1
  O  O32  1  0.13593200  0.36769200  0.63020600  1
  O  O33  1  0.37372500  0.36858600  0.86718900  1
  O  O34  1  0.37670600  0.38054800  0.38273100  1
  O  O35  1  0.64516300  0.38918100  0.12626400  1
  O  O36  1  0.11097100  0.39109700  0.12063600  1
  O  O37  1  0.87645400  0.38266400  0.88906600  1
  O  O38  1  0.61492100  0.37798000  0.62717700  1
  O  O39  1  0.88918500  0.61098100  0.11957200  1
  O  O40  1  0.61233100  0.62381300  0.37707500  1
  O  O41  1  0.36861100  0.61434400  0.61443300  1
  O  O42  1  0.88261500  0.61987600  0.63745900  1
  O  O43  1  0.11738600  0.62334200  0.88973000  1
  O  O44  1  0.13109800  0.62856300  0.35833800  1
  O  O45  1  0.35865400  0.63118100  0.13148900  1
  O  O46  1  0.63573000  0.64082500  0.87244200  1
  O  O47  1  0.13367300  0.85787200  0.12658500  1
  O  O48  1  0.86360500  0.86688800  0.88189900  1
  O  O49  1  0.62763700  0.87193300  0.64426100  1
  O  O50  1  0.61243800  0.86068700  0.10482800  1
  O  O51  1  0.37408900  0.86800400  0.36671400  1
  O  O52  1  0.87674500  0.88953500  0.37028700  1
  O  O53  1  0.12091600  0.88140400  0.62071600  1
  O  O54  1  0.38711500  0.88098600  0.88230800  1
