# generated using pymatgen
data_TlNi4(PO4)3
_symmetry_space_group_name_H-M   'P 1'
_cell_length_a   6.32312000
_cell_length_b   16.32352400
_cell_length_c   9.76835400
_cell_angle_alpha   90.00000000
_cell_angle_beta   90.00000000
_cell_angle_gamma   90.00000000
_symmetry_Int_Tables_number   1
_chemical_formula_structural   TlNi4(PO4)3
_chemical_formula_sum   'Tl4 Ni16 P12 O48'
_cell_volume   1008.24652962
_cell_formula_units_Z   4
loop_
 _symmetry_equiv_pos_site_id
 _symmetry_equiv_pos_as_xyz
  1  'x, y, z'
loop_
 _atom_site_type_symbol
 _atom_site_label
 _atom_site_symmetry_multiplicity
 _atom_site_fract_x
 _atom_site_fract_y
 _atom_site_fract_z
 _atom_site_occupancy
  Tl  Tl0  1  0.00000000  0.02620100  0.53532000  1
  Tl  Tl1  1  0.50000000  0.47379900  0.03532000  1
  Tl  Tl2  1  0.50000000  0.52620100  0.53532000  1
  Tl  Tl3  1  0.00000000  0.97379900  0.03532000  1
  Ni  Ni4  1  0.74958200  0.20344300  0.00185600  1
  Ni  Ni5  1  0.75041800  0.29655700  0.50185600  1
  Ni  Ni6  1  0.00000000  0.37821900  0.80244400  1
  Ni  Ni7  1  0.50000000  0.12178100  0.30244400  1
  Ni  Ni8  1  0.24958200  0.29655700  0.50185600  1
  Ni  Ni9  1  0.25041800  0.20344300  0.00185600  1
  Ni  Ni10  1  0.50000000  0.12012600  0.76650500  1
  Ni  Ni11  1  0.00000000  0.37987400  0.26650500  1
  Ni  Ni12  1  0.24958200  0.70344300  0.00185600  1
  Ni  Ni13  1  0.25041800  0.79655700  0.50185600  1
  Ni  Ni14  1  0.50000000  0.87821900  0.80244400  1
  Ni  Ni15  1  0.00000000  0.62178100  0.30244400  1
  Ni  Ni16  1  0.74958200  0.79655700  0.50185600  1
  Ni  Ni17  1  0.75041800  0.70344300  0.00185600  1
  Ni  Ni18  1  0.00000000  0.62012600  0.76650500  1
  Ni  Ni19  1  0.50000000  0.87987400  0.26650500  1
  P  P20  1  0.00000000  0.46617100  0.51261300  1
  P  P21  1  0.50000000  0.32018900  0.78833500  1
  P  P22  1  0.00000000  0.17981100  0.28833500  1
  P  P23  1  0.50000000  0.29962300  0.21381700  1
  P  P24  1  0.50000000  0.03382900  0.01261300  1
  P  P25  1  0.00000000  0.20037700  0.71381700  1
  P  P26  1  0.50000000  0.96617100  0.51261300  1
  P  P27  1  0.00000000  0.82018900  0.78833500  1
  P  P28  1  0.50000000  0.67981100  0.28833500  1
  P  P29  1  0.00000000  0.79962300  0.21381700  1
  P  P30  1  0.00000000  0.53382900  0.01261300  1
  P  P31  1  0.50000000  0.70037700  0.71381700  1
  O  O32  1  0.50000000  0.02921100  0.17051100  1
  O  O33  1  0.69065900  0.08415500  0.94742500  1
  O  O34  1  0.80934100  0.41584500  0.44742500  1
  O  O35  1  0.00000000  0.26800900  0.36407000  1
  O  O36  1  0.00000000  0.44500100  0.96828700  1
  O  O37  1  0.50000000  0.28084800  0.37143200  1
  O  O38  1  0.69643250  0.36510450  0.83468400  1
  O  O39  1  0.30356750  0.36510450  0.83468400  1
  O  O40  1  0.30934100  0.08415500  0.94742500  1
  O  O41  1  0.19643250  0.13489550  0.33468400  1
  O  O42  1  0.50000000  0.05499900  0.46828700  1
  O  O43  1  0.20683300  0.15856300  0.66903400  1
  O  O44  1  0.70683300  0.34143700  0.16903400  1
  O  O45  1  0.80356750  0.13489550  0.33468400  1
  O  O46  1  0.29316700  0.34143700  0.16903400  1
  O  O47  1  0.50000000  0.21106300  0.14081400  1
  O  O48  1  0.00000000  0.28893700  0.64081400  1
  O  O49  1  0.19065900  0.41584500  0.44742500  1
  O  O50  1  0.50000000  0.30637300  0.63007400  1
  O  O51  1  0.00000000  0.47078900  0.67051100  1
  O  O52  1  0.00000000  0.19362700  0.13007400  1
  O  O53  1  0.79316700  0.15856300  0.66903400  1
  O  O54  1  0.50000000  0.23199100  0.86407000  1
  O  O55  1  0.00000000  0.21915200  0.87143200  1
  O  O56  1  0.00000000  0.52921100  0.17051100  1
  O  O57  1  0.19065900  0.58415500  0.94742500  1
  O  O58  1  0.30934100  0.91584500  0.44742500  1
  O  O59  1  0.50000000  0.76800900  0.36407000  1
  O  O60  1  0.50000000  0.94500100  0.96828700  1
  O  O61  1  0.00000000  0.78084800  0.37143200  1
  O  O62  1  0.19643250  0.86510450  0.83468400  1
  O  O63  1  0.80356750  0.86510450  0.83468400  1
  O  O64  1  0.80934100  0.58415500  0.94742500  1
  O  O65  1  0.69643250  0.63489550  0.33468400  1
  O  O66  1  0.00000000  0.55499900  0.46828700  1
  O  O67  1  0.70683300  0.65856300  0.66903400  1
  O  O68  1  0.20683300  0.84143700  0.16903400  1
  O  O69  1  0.30356750  0.63489550  0.33468400  1
  O  O70  1  0.79316700  0.84143700  0.16903400  1
  O  O71  1  0.00000000  0.71106300  0.14081400  1
  O  O72  1  0.50000000  0.78893700  0.64081400  1
  O  O73  1  0.69065900  0.91584500  0.44742500  1
  O  O74  1  0.00000000  0.80637300  0.63007400  1
  O  O75  1  0.50000000  0.97078900  0.67051100  1
  O  O76  1  0.50000000  0.69362700  0.13007400  1
  O  O77  1  0.29316700  0.65856300  0.66903400  1
  O  O78  1  0.00000000  0.73199100  0.86407000  1
  O  O79  1  0.50000000  0.71915200  0.87143200  1
