# generated using pymatgen
data_LiVOF3
_symmetry_space_group_name_H-M   'P 1'
_cell_length_a   4.71449201
_cell_length_b   5.57165900
_cell_length_c   10.28377102
_cell_angle_alpha   90.00000000
_cell_angle_beta   90.00000000
_cell_angle_gamma   90.00000000
_symmetry_Int_Tables_number   1
_chemical_formula_structural   LiVOF3
_chemical_formula_sum   'Li4 V4 O4 F12'
_cell_volume   270.12938529
_cell_formula_units_Z   4
loop_
 _symmetry_equiv_pos_site_id
 _symmetry_equiv_pos_as_xyz
  1  'x, y, z'
loop_
 _atom_site_type_symbol
 _atom_site_label
 _atom_site_symmetry_multiplicity
 _atom_site_fract_x
 _atom_site_fract_y
 _atom_site_fract_z
 _atom_site_occupancy
  Li  Li0  1  0.01018100  0.24195850  0.50304850  1
  Li  Li1  1  0.01018100  0.25804150  0.00304850  1
  Li  Li2  1  0.51018100  0.75804150  0.49695150  1
  Li  Li3  1  0.51018100  0.74195850  0.99695150  1
  V  V4  1  0.97225300  0.91731450  0.75967550  1
  V  V5  1  0.47225300  0.41731450  0.74032450  1
  V  V6  1  0.97225300  0.58268550  0.25967550  1
  V  V7  1  0.47225300  0.08268550  0.24032450  1
  O  O8  1  0.24633500  0.20561250  0.68680050  1
  O  O9  1  0.24633500  0.29438750  0.18680050  1
  O  O10  1  0.74633500  0.70561250  0.81319950  1
  O  O11  1  0.74633500  0.79438750  0.31319950  1
  F  F12  1  0.19754200  0.96335950  0.91286750  1
  F  F13  1  0.19754200  0.53664050  0.41286750  1
  F  F14  1  0.69754200  0.46335950  0.58713250  1
  F  F15  1  0.69754200  0.03664050  0.08713250  1
  F  F16  1  0.26051700  0.79466150  0.17667150  1
  F  F17  1  0.26051700  0.70533850  0.67667150  1
  F  F18  1  0.76051700  0.20533850  0.82332850  1
  F  F19  1  0.76051700  0.29466150  0.32332850  1
  F  F20  1  0.31271500  0.46444850  0.91114650  1
  F  F21  1  0.31271500  0.03555150  0.41114650  1
  F  F22  1  0.81271500  0.53555150  0.08885350  1
  F  F23  1  0.81271500  0.96444850  0.58885350  1
