# generated using pymatgen
data_TaIn3O7
_symmetry_space_group_name_H-M   'P 1'
_cell_length_a   7.31931000
_cell_length_b   7.49386300
_cell_length_c   10.51179600
_cell_angle_alpha   90.00000000
_cell_angle_beta   90.00000000
_cell_angle_gamma   90.00000000
_symmetry_Int_Tables_number   1
_chemical_formula_structural   TaIn3O7
_chemical_formula_sum   'Ta4 In12 O28'
_cell_volume   576.57102664
_cell_formula_units_Z   4
loop_
 _symmetry_equiv_pos_site_id
 _symmetry_equiv_pos_as_xyz
  1  'x, y, z'
loop_
 _atom_site_type_symbol
 _atom_site_label
 _atom_site_symmetry_multiplicity
 _atom_site_fract_x
 _atom_site_fract_y
 _atom_site_fract_z
 _atom_site_occupancy
  Ta  Ta0  1  0.50075800  0.74219200  0.75000000  1
  Ta  Ta1  1  0.99924200  0.24219200  0.25000000  1
  Ta  Ta2  1  0.00075800  0.75780800  0.75000000  1
  Ta  Ta3  1  0.49924200  0.25780800  0.25000000  1
  In  In4  1  0.50751700  0.79786300  0.25000000  1
  In  In5  1  0.75055400  0.98451900  0.99136000  1
  In  In6  1  0.75055400  0.98451900  0.50864000  1
  In  In7  1  0.74944600  0.48451900  0.49136000  1
  In  In8  1  0.74944600  0.48451900  0.00864000  1
  In  In9  1  0.99248300  0.29786300  0.75000000  1
  In  In10  1  0.00751700  0.70213700  0.25000000  1
  In  In11  1  0.25055400  0.51548100  0.99136000  1
  In  In12  1  0.25055400  0.51548100  0.50864000  1
  In  In13  1  0.24944600  0.01548100  0.49136000  1
  In  In14  1  0.24944600  0.01548100  0.00864000  1
  In  In15  1  0.49248300  0.20213700  0.75000000  1
  O  O16  1  0.52464700  0.04392700  0.37713400  1
  O  O17  1  0.52464700  0.04392700  0.12286600  1
  O  O18  1  0.52444200  0.57688100  0.89025000  1
  O  O19  1  0.52444200  0.57688100  0.60975000  1
  O  O20  1  0.75104500  0.31692200  0.25000000  1
  O  O21  1  0.75373800  0.73812100  0.38402400  1
  O  O22  1  0.75373800  0.73812100  0.11597600  1
  O  O23  1  0.74626200  0.23812100  0.88402400  1
  O  O24  1  0.74626200  0.23812100  0.61597600  1
  O  O25  1  0.74895500  0.81692200  0.75000000  1
  O  O26  1  0.97555800  0.07688100  0.39025000  1
  O  O27  1  0.97555800  0.07688100  0.10975000  1
  O  O28  1  0.97535300  0.54392700  0.87713400  1
  O  O29  1  0.97535300  0.54392700  0.62286600  1
  O  O30  1  0.02464700  0.45607300  0.37713400  1
  O  O31  1  0.02464700  0.45607300  0.12286600  1
  O  O32  1  0.02444200  0.92311900  0.89025000  1
  O  O33  1  0.02444200  0.92311900  0.60975000  1
  O  O34  1  0.25104500  0.18307800  0.25000000  1
  O  O35  1  0.25373800  0.76187900  0.38402400  1
  O  O36  1  0.25373800  0.76187900  0.11597600  1
  O  O37  1  0.24626200  0.26187900  0.88402400  1
  O  O38  1  0.24626200  0.26187900  0.61597600  1
  O  O39  1  0.24895500  0.68307800  0.75000000  1
  O  O40  1  0.47555800  0.42311900  0.39025000  1
  O  O41  1  0.47555800  0.42311900  0.10975000  1
  O  O42  1  0.47535300  0.95607300  0.87713400  1
  O  O43  1  0.47535300  0.95607300  0.62286600  1
