# generated using pymatgen
data_LiFe2(BO3)2
_symmetry_space_group_name_H-M   'P 1'
_cell_length_a   5.26593600
_cell_length_b   9.07275600
_cell_length_c   10.21963558
_cell_angle_alpha   90.00000000
_cell_angle_beta   91.32572753
_cell_angle_gamma   90.00000000
_symmetry_Int_Tables_number   1
_chemical_formula_structural   LiFe2(BO3)2
_chemical_formula_sum   'Li4 Fe8 B8 O24'
_cell_volume   488.12825862
_cell_formula_units_Z   4
loop_
 _symmetry_equiv_pos_site_id
 _symmetry_equiv_pos_as_xyz
  1  'x, y, z'
loop_
 _atom_site_type_symbol
 _atom_site_label
 _atom_site_symmetry_multiplicity
 _atom_site_fract_x
 _atom_site_fract_y
 _atom_site_fract_z
 _atom_site_occupancy
  Li  Li0  1  0.35531800  0.00431300  0.91484300  1
  Li  Li1  1  0.14717400  0.48619500  0.66652800  1
  Li  Li2  1  0.14717400  0.51380500  0.16652800  1
  Li  Li3  1  0.35531800  0.99568700  0.41484300  1
  Fe  Fe4  1  0.83931700  0.17439000  0.87358800  1
  Fe  Fe5  1  0.15756900  0.15208300  0.62781000  1
  Fe  Fe6  1  0.65923600  0.32442400  0.13514600  1
  Fe  Fe7  1  0.34441100  0.34267300  0.38476600  1
  Fe  Fe8  1  0.65923600  0.67557600  0.63514600  1
  Fe  Fe9  1  0.83931700  0.82561000  0.37358800  1
  Fe  Fe10  1  0.34441100  0.65732700  0.88476600  1
  Fe  Fe11  1  0.15756900  0.84791700  0.12781000  1
  B  B12  1  0.84669900  0.15489200  0.37263100  1
  B  B13  1  0.65504500  0.34510200  0.63543100  1
  B  B14  1  0.17390000  0.18024600  0.12043800  1
  B  B15  1  0.33254000  0.32073800  0.87690700  1
  B  B16  1  0.65504500  0.65489800  0.13543100  1
  B  B17  1  0.33254000  0.67926200  0.37690700  1
  B  B18  1  0.84669900  0.84510800  0.87263100  1
  B  B19  1  0.17390000  0.81975400  0.62043800  1
  O  O20  1  0.71613300  0.02241700  0.37837800  1
  O  O21  1  0.92239000  0.19237500  0.07505800  1
  O  O22  1  0.29837400  0.04927700  0.11411500  1
  O  O23  1  0.79304400  0.22254400  0.68140800  1
  O  O24  1  0.71235100  0.27804600  0.32686000  1
  O  O25  1  0.20722000  0.18707000  0.84343700  1
  O  O26  1  0.10071500  0.16369700  0.41260400  1
  O  O27  1  0.57526700  0.30637200  0.93332500  1
  O  O28  1  0.78117700  0.47805700  0.63147300  1
  O  O29  1  0.40057400  0.33357000  0.59559600  1
  O  O30  1  0.29192800  0.31101200  0.16385600  1
  O  O31  1  0.78117700  0.52194300  0.13147300  1
  O  O32  1  0.22319000  0.45282900  0.85504000  1
  O  O33  1  0.71235100  0.72195400  0.82686000  1
  O  O34  1  0.57526700  0.69362800  0.43332500  1
  O  O35  1  0.22319000  0.54717100  0.35504000  1
  O  O36  1  0.40057400  0.66643000  0.09559600  1
  O  O37  1  0.92239000  0.80762500  0.57505800  1
  O  O38  1  0.79304400  0.77745600  0.18140800  1
  O  O39  1  0.29192800  0.68898800  0.66385600  1
  O  O40  1  0.20722000  0.81293000  0.34343700  1
  O  O41  1  0.71613300  0.97758300  0.87837800  1
  O  O42  1  0.10071500  0.83630300  0.91260400  1
  O  O43  1  0.29837400  0.95072300  0.61411500  1
