# generated using pymatgen
data_LiFeF4
_symmetry_space_group_name_H-M   'P 1'
_cell_length_a   10.83021166
_cell_length_b   6.09077653
_cell_length_c   4.94635500
_cell_angle_alpha   90.00000000
_cell_angle_beta   111.91579704
_cell_angle_gamma   90.00000000
_symmetry_Int_Tables_number   1
_chemical_formula_structural   LiFeF4
_chemical_formula_sum   'Li4 Fe4 F16'
_cell_volume   302.70394170
_cell_formula_units_Z   4
loop_
 _symmetry_equiv_pos_site_id
 _symmetry_equiv_pos_as_xyz
  1  'x, y, z'
loop_
 _atom_site_type_symbol
 _atom_site_label
 _atom_site_symmetry_multiplicity
 _atom_site_fract_x
 _atom_site_fract_y
 _atom_site_fract_z
 _atom_site_occupancy
  Li  Li0  1  0.75000000  0.25000000  0.50000000  1
  Li  Li1  1  0.75000000  0.75000000  0.00000000  1
  Li  Li2  1  0.25000000  0.75000000  0.50000000  1
  Li  Li3  1  0.25000000  0.25000000  0.00000000  1
  Fe  Fe4  1  0.00000000  0.65946600  0.75000000  1
  Fe  Fe5  1  0.00000000  0.34053400  0.25000000  1
  Fe  Fe6  1  0.50000000  0.15946600  0.75000000  1
  Fe  Fe7  1  0.50000000  0.84053400  0.25000000  1
  F  F8  1  0.10503900  0.39395100  0.66650550  1
  F  F9  1  0.12698650  0.83821750  0.68721450  1
  F  F10  1  0.10503900  0.60604900  0.16650550  1
  F  F11  1  0.12698650  0.16178250  0.18721450  1
  F  F12  1  0.87540000  0.14303000  0.30918450  1
  F  F13  1  0.89471250  0.58961950  0.33432550  1
  F  F14  1  0.87301350  0.83821750  0.81278550  1
  F  F15  1  0.89496100  0.39395100  0.83349450  1
  F  F16  1  0.60503900  0.89395100  0.66650550  1
  F  F17  1  0.62698650  0.33821750  0.68721450  1
  F  F18  1  0.60503900  0.10604900  0.16650550  1
  F  F19  1  0.62698650  0.66178250  0.18721450  1
  F  F20  1  0.37540000  0.64303000  0.30918450  1
  F  F21  1  0.39471250  0.08961950  0.33432550  1
  F  F22  1  0.37301350  0.33821750  0.81278550  1
  F  F23  1  0.39496100  0.89395100  0.83349450  1
