# generated using pymatgen
data_Sr2CaI6
_symmetry_space_group_name_H-M   'P 1'
_cell_length_a   13.88188383
_cell_length_b   13.88188383
_cell_length_c   7.48515900
_cell_angle_alpha   90.00000000
_cell_angle_beta   90.00000000
_cell_angle_gamma   120.00000000
_symmetry_Int_Tables_number   1
_chemical_formula_structural   Sr2CaI6
_chemical_formula_sum   'Sr6 Ca3 I18'
_cell_volume   1249.18992583
_cell_formula_units_Z   3
loop_
 _symmetry_equiv_pos_site_id
 _symmetry_equiv_pos_as_xyz
  1  'x, y, z'
loop_
 _atom_site_type_symbol
 _atom_site_label
 _atom_site_symmetry_multiplicity
 _atom_site_fract_x
 _atom_site_fract_y
 _atom_site_fract_z
 _atom_site_occupancy
  Sr  Sr0  1  0.00000000  0.64274250  0.00000000  1
  Sr  Sr1  1  0.00000000  0.31017450  0.50000000  1
  Sr  Sr2  1  0.35725750  0.35725750  0.00000000  1
  Sr  Sr3  1  0.31017450  0.00000000  0.50000000  1
  Sr  Sr4  1  0.68982550  0.68982550  0.50000000  1
  Sr  Sr5  1  0.64274250  0.00000000  0.00000000  1
  Ca  Ca6  1  0.33333333  0.66666667  0.49573500  1
  Ca  Ca7  1  0.00000000  0.00000000  0.00000000  1
  Ca  Ca8  1  0.66666667  0.33333333  0.50426500  1
  I  I9  1  0.09008233  0.87459067  0.76215800  1
  I  I10  1  0.22778333  0.77489667  0.25285600  1
  I  I11  1  0.12157133  0.54045567  0.74225800  1
  I  I12  1  0.41888433  0.87842867  0.74225800  1
  I  I13  1  0.22510333  0.45288667  0.25285600  1
  I  I14  1  0.12540933  0.21549167  0.76215800  1
  I  I15  1  0.54711333  0.77221667  0.25285600  1
  I  I16  1  0.21549167  0.12540933  0.23784200  1
  I  I17  1  0.45954433  0.58111567  0.74225800  1
  I  I18  1  0.78450833  0.90991767  0.76215800  1
  I  I19  1  0.45288667  0.22510333  0.74714400  1
  I  I20  1  0.58111567  0.45954433  0.25774200  1
  I  I21  1  0.54045567  0.12157133  0.25774200  1
  I  I22  1  0.77221667  0.54711333  0.74714400  1
  I  I23  1  0.90991767  0.78450833  0.23784200  1
  I  I24  1  0.77489667  0.22778333  0.74714400  1
  I  I25  1  0.87842867  0.41888433  0.25774200  1
  I  I26  1  0.87459067  0.09008233  0.23784200  1
