# generated using pymatgen
data_Be2GeO4
_symmetry_space_group_name_H-M   'P 1'
_cell_length_a   12.87523780
_cell_length_b   12.87523780
_cell_length_c   8.52212045
_cell_angle_alpha   90.00000000
_cell_angle_beta   90.00000000
_cell_angle_gamma   120.00000000
_symmetry_Int_Tables_number   1
_chemical_formula_structural   Be2GeO4
_chemical_formula_sum   'Be36 Ge18 O72'
_cell_volume   1223.45730458
_cell_formula_units_Z   18
loop_
 _symmetry_equiv_pos_site_id
 _symmetry_equiv_pos_as_xyz
  1  'x, y, z'
loop_
 _atom_site_type_symbol
 _atom_site_label
 _atom_site_symmetry_multiplicity
 _atom_site_fract_x
 _atom_site_fract_y
 _atom_site_fract_z
 _atom_site_occupancy
  Be  Be0  1  0.47185667  0.12475233  0.41772133  1
  Be  Be1  1  0.12475233  0.65289567  0.58227867  1
  Be  Be2  1  0.21311667  0.01982833  0.41506333  1
  Be  Be3  1  0.34710433  0.47185667  0.58227867  1
  Be  Be4  1  0.01982833  0.80671167  0.58493667  1
  Be  Be5  1  0.19328833  0.21311667  0.58493667  1
  Be  Be6  1  0.80671167  0.78688333  0.41506333  1
  Be  Be7  1  0.98017167  0.19328833  0.41506333  1
  Be  Be8  1  0.65289567  0.52814333  0.41772133  1
  Be  Be9  1  0.78688333  0.98017167  0.58493667  1
  Be  Be10  1  0.87524767  0.34710433  0.41772133  1
  Be  Be11  1  0.52814333  0.87524767  0.58227867  1
  Be  Be12  1  0.13852333  0.45808567  0.75105467  1
  Be  Be13  1  0.79141900  0.98622900  0.91561200  1
  Be  Be14  1  0.87978333  0.35316167  0.74839667  1
  Be  Be15  1  0.01377100  0.80519000  0.91561200  1
  Be  Be16  1  0.68649500  0.14004500  0.91827000  1
  Be  Be17  1  0.85995500  0.54645000  0.91827000  1
  Be  Be18  1  0.47337833  0.12021667  0.74839667  1
  Be  Be19  1  0.64683833  0.52662167  0.74839667  1
  Be  Be20  1  0.31956233  0.86147667  0.75105467  1
  Be  Be21  1  0.45355000  0.31350500  0.91827000  1
  Be  Be22  1  0.54191433  0.68043767  0.75105467  1
  Be  Be23  1  0.19481000  0.20858100  0.91561200  1
  Be  Be24  1  0.80519000  0.79141900  0.08438800  1
  Be  Be25  1  0.45808567  0.31956233  0.24894533  1
  Be  Be26  1  0.54645000  0.68649500  0.08173000  1
  Be  Be27  1  0.68043767  0.13852333  0.24894533  1
  Be  Be28  1  0.35316167  0.47337833  0.25160333  1
  Be  Be29  1  0.52662167  0.87978333  0.25160333  1
  Be  Be30  1  0.14004500  0.45355000  0.08173000  1
  Be  Be31  1  0.31350500  0.85995500  0.08173000  1
  Be  Be32  1  0.98622900  0.19481000  0.08438800  1
  Be  Be33  1  0.12021667  0.64683833  0.25160333  1
  Be  Be34  1  0.20858100  0.01377100  0.08438800  1
  Be  Be35  1  0.86147667  0.54191433  0.24894533  1
  Ge  Ge36  1  0.21256667  0.01781733  0.75014233  1
  Ge  Ge37  1  0.01781733  0.80525067  0.24985767  1
  Ge  Ge38  1  0.19474933  0.21256667  0.24985767  1
  Ge  Ge39  1  0.80525067  0.78743333  0.75014233  1
  Ge  Ge40  1  0.98218267  0.19474933  0.75014233  1
  Ge  Ge41  1  0.78743333  0.98218267  0.24985767  1
  Ge  Ge42  1  0.87923333  0.35115067  0.08347567  1
  Ge  Ge43  1  0.68448400  0.13858400  0.58319100  1
  Ge  Ge44  1  0.86141600  0.54590000  0.58319100  1
  Ge  Ge45  1  0.47191733  0.12076667  0.08347567  1
  Ge  Ge46  1  0.64884933  0.52808267  0.08347567  1
  Ge  Ge47  1  0.45410000  0.31551600  0.58319100  1
  Ge  Ge48  1  0.54590000  0.68448400  0.41680900  1
  Ge  Ge49  1  0.35115067  0.47191733  0.91652433  1
  Ge  Ge50  1  0.52808267  0.87923333  0.91652433  1
  Ge  Ge51  1  0.13858400  0.45410000  0.41680900  1
  Ge  Ge52  1  0.31551600  0.86141600  0.41680900  1
  Ge  Ge53  1  0.12076667  0.64884933  0.91652433  1
  O  O54  1  0.24395767  0.78713233  0.59313333  1
  O  O55  1  0.33491967  0.00763733  0.41620333  1
  O  O56  1  0.45682533  0.24395767  0.40686667  1
  O  O57  1  0.32728233  0.33491967  0.58379667  1
  O  O58  1  0.21268700  0.09402200  0.57529700  1
  O  O59  1  0.20579367  0.08032333  0.24945033  1
  O  O60  1  0.08032333  0.87452967  0.75054967  1
  O  O61  1  0.00763733  0.67271767  0.58379667  1
  O  O62  1  0.09402200  0.88133500  0.42470300  1
  O  O63  1  0.11866500  0.21268700  0.42470300  1
  O  O64  1  0.78713233  0.54317467  0.40686667  1
  O  O65  1  0.12547033  0.20579367  0.75054967  1
  O  O66  1  0.87452967  0.79420633  0.24945033  1
  O  O67  1  0.21286767  0.45682533  0.59313333  1
  O  O68  1  0.88133500  0.78731300  0.57529700  1
  O  O69  1  0.90597800  0.11866500  0.57529700  1
  O  O70  1  0.99236267  0.32728233  0.41620333  1
  O  O71  1  0.91967667  0.12547033  0.24945033  1
  O  O72  1  0.79420633  0.91967667  0.75054967  1
  O  O73  1  0.78731300  0.90597800  0.42470300  1
  O  O74  1  0.67271767  0.66508033  0.41620333  1
  O  O75  1  0.54317467  0.75604233  0.59313333  1
  O  O76  1  0.66508033  0.99236267  0.58379667  1
  O  O77  1  0.75604233  0.21286767  0.40686667  1
  O  O78  1  0.91062433  0.12046567  0.92646667  1
  O  O79  1  0.00158633  0.34097067  0.74953667  1
  O  O80  1  0.12349200  0.57729100  0.74020000  1
  O  O81  1  0.99394900  0.66825300  0.91713000  1
  O  O82  1  0.87935367  0.42735533  0.90863033  1
  O  O83  1  0.87246033  0.41365667  0.58278367  1
  O  O84  1  0.74699000  0.20786300  0.08388300  1
  O  O85  1  0.67430400  0.00605100  0.91713000  1
  O  O86  1  0.76068867  0.21466833  0.75803633  1
  O  O87  1  0.78533167  0.54602033  0.75803633  1
  O  O88  1  0.45379900  0.87650800  0.74020000  1
  O  O89  1  0.79213700  0.53912700  0.08388300  1
  O  O90  1  0.54119633  0.12753967  0.58278367  1
  O  O91  1  0.87953433  0.79015867  0.92646667  1
  O  O92  1  0.54800167  0.12064633  0.90863033  1
  O  O93  1  0.57264467  0.45199833  0.90863033  1
  O  O94  1  0.65902933  0.66061567  0.74953667  1
  O  O95  1  0.58634333  0.45880367  0.58278367  1
  O  O96  1  0.46087300  0.25301000  0.08388300  1
  O  O97  1  0.45397967  0.23931133  0.75803633  1
  O  O98  1  0.33938433  0.99841367  0.74953667  1
  O  O99  1  0.20984133  0.08937567  0.92646667  1
  O  O100  1  0.33174700  0.32569600  0.91713000  1
  O  O101  1  0.42270900  0.54620100  0.74020000  1
  O  O102  1  0.57729100  0.45379900  0.25980000  1
  O  O103  1  0.66825300  0.67430400  0.08287000  1
  O  O104  1  0.79015867  0.91062433  0.07353333  1
  O  O105  1  0.66061567  0.00158633  0.25046333  1
  O  O106  1  0.54602033  0.76068867  0.24196367  1
  O  O107  1  0.53912700  0.74699000  0.91611700  1
  O  O108  1  0.41365667  0.54119633  0.41721633  1
  O  O109  1  0.34097067  0.33938433  0.25046333  1
  O  O110  1  0.42735533  0.54800167  0.09136967  1
  O  O111  1  0.45199833  0.87935367  0.09136967  1
  O  O112  1  0.12046567  0.20984133  0.07353333  1
  O  O113  1  0.45880367  0.87246033  0.41721633  1
  O  O114  1  0.20786300  0.46087300  0.91611700  1
  O  O115  1  0.54620100  0.12349200  0.25980000  1
  O  O116  1  0.21466833  0.45397967  0.24196367  1
  O  O117  1  0.23931133  0.78533167  0.24196367  1
  O  O118  1  0.32569600  0.99394900  0.08287000  1
  O  O119  1  0.25301000  0.79213700  0.91611700  1
  O  O120  1  0.12753967  0.58634333  0.41721633  1
  O  O121  1  0.12064633  0.57264467  0.09136967  1
  O  O122  1  0.00605100  0.33174700  0.08287000  1
  O  O123  1  0.87650800  0.42270900  0.25980000  1
  O  O124  1  0.99841367  0.65902933  0.25046333  1
  O  O125  1  0.08937567  0.87953433  0.07353333  1
