# generated using pymatgen
data_Li3Fe2(PO4)3
_symmetry_space_group_name_H-M   'P 1'
_cell_length_a   15.19084000
_cell_length_b   8.72207800
_cell_length_c   8.71305200
_cell_angle_alpha   90.00000000
_cell_angle_beta   124.89682703
_cell_angle_gamma   90.00000000
_symmetry_Int_Tables_number   1
_chemical_formula_structural   Li3Fe2(PO4)3
_chemical_formula_sum   'Li12 Fe8 P12 O48'
_cell_volume   946.85422420
_cell_formula_units_Z   4
loop_
 _symmetry_equiv_pos_site_id
 _symmetry_equiv_pos_as_xyz
  1  'x, y, z'
loop_
 _atom_site_type_symbol
 _atom_site_label
 _atom_site_symmetry_multiplicity
 _atom_site_fract_x
 _atom_site_fract_y
 _atom_site_fract_z
 _atom_site_occupancy
  Li  Li0  1  0.30490750  0.34048150  0.67366800  1
  Li  Li1  1  0.00761250  0.63241450  0.74617600  1
  Li  Li2  1  0.18582950  0.92733750  0.70045700  1
  Li  Li3  1  0.00761250  0.36758550  0.24617600  1
  Li  Li4  1  0.30490750  0.65951850  0.17366800  1
  Li  Li5  1  0.18582950  0.07266250  0.20045700  1
  Li  Li6  1  0.80490750  0.84048150  0.67366800  1
  Li  Li7  1  0.50761250  0.13241450  0.74617600  1
  Li  Li8  1  0.68582950  0.42733750  0.70045700  1
  Li  Li9  1  0.50761250  0.86758550  0.24617600  1
  Li  Li10  1  0.80490750  0.15951850  0.17366800  1
  Li  Li11  1  0.68582950  0.57266250  0.20045700  1
  Fe  Fe12  1  0.39575650  0.74955450  0.85655800  1
  Fe  Fe13  1  0.09974050  0.74653250  0.14217600  1
  Fe  Fe14  1  0.09974050  0.25346750  0.64217600  1
  Fe  Fe15  1  0.39575650  0.25044550  0.35655800  1
  Fe  Fe16  1  0.89575650  0.24955450  0.85655800  1
  Fe  Fe17  1  0.59974050  0.24653250  0.14217600  1
  Fe  Fe18  1  0.59974050  0.75346750  0.64217600  1
  Fe  Fe19  1  0.89575650  0.75044550  0.35655800  1
  P  P20  1  0.13904450  0.38902150  0.04180700  1
  P  P21  1  0.00199250  0.04720550  0.25491800  1
  P  P22  1  0.00199250  0.95279450  0.75491800  1
  P  P23  1  0.13904450  0.61097850  0.54180700  1
  P  P24  1  0.35886750  0.88939250  0.45612300  1
  P  P25  1  0.35886750  0.11060750  0.95612300  1
  P  P26  1  0.63904450  0.88902150  0.04180700  1
  P  P27  1  0.50199250  0.54720550  0.25491800  1
  P  P28  1  0.50199250  0.45279450  0.75491800  1
  P  P29  1  0.63904450  0.11097850  0.54180700  1
  P  P30  1  0.85886750  0.38939250  0.45612300  1
  P  P31  1  0.85886750  0.61060750  0.95612300  1
  O  O32  1  0.08747200  0.14811900  0.42142400  1
  O  O33  1  0.41505700  0.65654000  0.09740400  1
  O  O34  1  0.41505700  0.34346000  0.59740400  1
  O  O35  1  0.38288450  0.86211650  0.65041500  1
  O  O36  1  0.45088150  0.82804850  0.44373300  1
  O  O37  1  0.06502050  0.04470950  0.69565500  1
  O  O38  1  0.38288450  0.13788350  0.15041500  1
  O  O39  1  0.10832400  0.36646900  0.84124700  1
  O  O40  1  0.06502050  0.95529050  0.19565500  1
  O  O41  1  0.25661950  0.19060350  0.79299600  1
  O  O42  1  0.45088150  0.17195150  0.94373300  1
  O  O43  1  0.23588450  0.28974650  0.18673600  1
  O  O44  1  0.34121000  0.93541900  0.92153300  1
  O  O45  1  0.04513900  0.66389800  0.55345900  1
  O  O46  1  0.43929850  0.55466650  0.80609100  1
  O  O47  1  0.43929850  0.44533350  0.30609100  1
  O  O48  1  0.34121000  0.06458100  0.42153300  1
  O  O49  1  0.04513900  0.33610200  0.05345900  1
  O  O50  1  0.25661950  0.80939650  0.29299600  1
  O  O51  1  0.16295700  0.56278800  0.08187800  1
  O  O52  1  0.10832400  0.63353100  0.34124700  1
  O  O53  1  0.08747200  0.85188100  0.92142400  1
  O  O54  1  0.16295700  0.43721200  0.58187800  1
  O  O55  1  0.23588450  0.71025350  0.68673600  1
  O  O56  1  0.58747200  0.64811900  0.42142400  1
  O  O57  1  0.91505700  0.15654000  0.09740400  1
  O  O58  1  0.91505700  0.84346000  0.59740400  1
  O  O59  1  0.88288450  0.36211650  0.65041500  1
  O  O60  1  0.95088150  0.32804850  0.44373300  1
  O  O61  1  0.56502050  0.54470950  0.69565500  1
  O  O62  1  0.88288450  0.63788350  0.15041500  1
  O  O63  1  0.60832400  0.86646900  0.84124700  1
  O  O64  1  0.56502050  0.45529050  0.19565500  1
  O  O65  1  0.75661950  0.69060350  0.79299600  1
  O  O66  1  0.95088150  0.67195150  0.94373300  1
  O  O67  1  0.73588450  0.78974650  0.18673600  1
  O  O68  1  0.84121000  0.43541900  0.92153300  1
  O  O69  1  0.54513900  0.16389800  0.55345900  1
  O  O70  1  0.93929850  0.05466650  0.80609100  1
  O  O71  1  0.93929850  0.94533350  0.30609100  1
  O  O72  1  0.84121000  0.56458100  0.42153300  1
  O  O73  1  0.54513900  0.83610200  0.05345900  1
  O  O74  1  0.75661950  0.30939650  0.29299600  1
  O  O75  1  0.66295700  0.06278800  0.08187800  1
  O  O76  1  0.60832400  0.13353100  0.34124700  1
  O  O77  1  0.58747200  0.35188100  0.92142400  1
  O  O78  1  0.66295700  0.93721200  0.58187800  1
  O  O79  1  0.73588450  0.21025350  0.68673600  1
