# generated using pymatgen
data_Al8SiO14
_symmetry_space_group_name_H-M   'P 1'
_cell_length_a   5.94973500
_cell_length_b   7.72251500
_cell_length_c   23.31123100
_cell_angle_alpha   90.00000000
_cell_angle_beta   90.00000000
_cell_angle_gamma   90.00000000
_symmetry_Int_Tables_number   1
_chemical_formula_structural   Al8SiO14
_chemical_formula_sum   'Al32 Si4 O56'
_cell_volume   1071.07921419
_cell_formula_units_Z   4
loop_
 _symmetry_equiv_pos_site_id
 _symmetry_equiv_pos_as_xyz
  1  'x, y, z'
loop_
 _atom_site_type_symbol
 _atom_site_label
 _atom_site_symmetry_multiplicity
 _atom_site_fract_x
 _atom_site_fract_y
 _atom_site_fract_z
 _atom_site_occupancy
  Al  Al0  1  0.00000000  0.00000000  0.50000000  1
  Al  Al1  1  0.50000000  0.00000000  0.50000000  1
  Al  Al2  1  0.25000000  0.22488000  0.59043500  1
  Al  Al3  1  0.75000000  0.22644100  0.58849500  1
  Al  Al4  1  0.25000000  0.84591800  0.61414500  1
  Al  Al5  1  0.50157800  0.50231400  0.67119700  1
  Al  Al6  1  0.99842200  0.50231400  0.67119700  1
  Al  Al7  1  0.25000000  0.16939300  0.71582300  1
  Al  Al8  1  0.75000000  0.17387100  0.71696400  1
  Al  Al9  1  0.25000000  0.67387100  0.78303600  1
  Al  Al10  1  0.75000000  0.66939300  0.78417700  1
  Al  Al11  1  0.00157800  0.00231400  0.82880300  1
  Al  Al12  1  0.49842200  0.00231400  0.82880300  1
  Al  Al13  1  0.75000000  0.34591800  0.88585500  1
  Al  Al14  1  0.25000000  0.72644100  0.91150500  1
  Al  Al15  1  0.75000000  0.72488000  0.90956500  1
  Al  Al16  1  0.50000000  0.50000000  0.00000000  1
  Al  Al17  1  0.00000000  0.50000000  0.00000000  1
  Al  Al18  1  0.25000000  0.27512000  0.09043500  1
  Al  Al19  1  0.75000000  0.27355900  0.08849500  1
  Al  Al20  1  0.25000000  0.65408200  0.11414500  1
  Al  Al21  1  0.99842200  0.99768600  0.17119700  1
  Al  Al22  1  0.50157800  0.99768600  0.17119700  1
  Al  Al23  1  0.25000000  0.33060700  0.21582300  1
  Al  Al24  1  0.75000000  0.32612900  0.21696400  1
  Al  Al25  1  0.25000000  0.82612900  0.28303600  1
  Al  Al26  1  0.75000000  0.83060700  0.28417700  1
  Al  Al27  1  0.49842200  0.49768600  0.32880300  1
  Al  Al28  1  0.00157800  0.49768600  0.32880300  1
  Al  Al29  1  0.75000000  0.15408200  0.38585500  1
  Al  Al30  1  0.25000000  0.77355900  0.41150500  1
  Al  Al31  1  0.75000000  0.77512000  0.40956500  1
  Si  Si32  1  0.75000000  0.84949300  0.61522300  1
  Si  Si33  1  0.25000000  0.34949300  0.88477700  1
  Si  Si34  1  0.75000000  0.65050700  0.11522300  1
  Si  Si35  1  0.25000000  0.15050700  0.38477700  1
  O  O36  1  0.00082500  0.19147600  0.55105000  1
  O  O37  1  0.49917500  0.19147600  0.55105000  1
  O  O38  1  0.25000000  0.90746500  0.54134400  1
  O  O39  1  0.75000000  0.90049400  0.54662800  1
  O  O40  1  0.25000000  0.42886800  0.62377600  1
  O  O41  1  0.75000000  0.42230700  0.62485800  1
  O  O42  1  0.51594200  0.74348700  0.63105400  1
  O  O43  1  0.98405800  0.74348700  0.63105400  1
  O  O44  1  0.25000000  0.05491500  0.64781300  1
  O  O45  1  0.75000000  0.04582100  0.64763200  1
  O  O46  1  0.00108200  0.28864200  0.71059500  1
  O  O47  1  0.49891800  0.28864200  0.71059500  1
  O  O48  1  0.25000000  0.58363400  0.71478500  1
  O  O49  1  0.75000000  0.57393300  0.71702600  1
  O  O50  1  0.25000000  0.07393300  0.78297400  1
  O  O51  1  0.75000000  0.08363400  0.78521500  1
  O  O52  1  0.99891800  0.78864200  0.78940500  1
  O  O53  1  0.50108200  0.78864200  0.78940500  1
  O  O54  1  0.25000000  0.54582100  0.85236800  1
  O  O55  1  0.75000000  0.55491500  0.85218700  1
  O  O56  1  0.01594200  0.24348700  0.86894600  1
  O  O57  1  0.48405800  0.24348700  0.86894600  1
  O  O58  1  0.25000000  0.92230700  0.87514200  1
  O  O59  1  0.75000000  0.92886800  0.87622400  1
  O  O60  1  0.75000000  0.40746500  0.95865600  1
  O  O61  1  0.25000000  0.40049400  0.95337200  1
  O  O62  1  0.99917500  0.69147600  0.94895000  1
  O  O63  1  0.50082500  0.69147600  0.94895000  1
  O  O64  1  0.00082500  0.30852400  0.05105000  1
  O  O65  1  0.49917500  0.30852400  0.05105000  1
  O  O66  1  0.25000000  0.59253500  0.04134400  1
  O  O67  1  0.75000000  0.59950600  0.04662800  1
  O  O68  1  0.25000000  0.07113200  0.12377600  1
  O  O69  1  0.75000000  0.07769300  0.12485800  1
  O  O70  1  0.98405800  0.75651300  0.13105400  1
  O  O71  1  0.51594200  0.75651300  0.13105400  1
  O  O72  1  0.25000000  0.44508500  0.14781300  1
  O  O73  1  0.75000000  0.45417900  0.14763200  1
  O  O74  1  0.00108200  0.21135800  0.21059500  1
  O  O75  1  0.49891800  0.21135800  0.21059500  1
  O  O76  1  0.25000000  0.91636600  0.21478500  1
  O  O77  1  0.75000000  0.92606700  0.21702600  1
  O  O78  1  0.75000000  0.41636600  0.28521500  1
  O  O79  1  0.25000000  0.42606700  0.28297400  1
  O  O80  1  0.99891800  0.71135800  0.28940500  1
  O  O81  1  0.50108200  0.71135800  0.28940500  1
  O  O82  1  0.25000000  0.95417900  0.35236800  1
  O  O83  1  0.75000000  0.94508500  0.35218700  1
  O  O84  1  0.01594200  0.25651300  0.36894600  1
  O  O85  1  0.48405800  0.25651300  0.36894600  1
  O  O86  1  0.25000000  0.57769300  0.37514200  1
  O  O87  1  0.75000000  0.57113200  0.37622400  1
  O  O88  1  0.25000000  0.09950600  0.45337200  1
  O  O89  1  0.75000000  0.09253500  0.45865600  1
  O  O90  1  0.99917500  0.80852400  0.44895000  1
  O  O91  1  0.50082500  0.80852400  0.44895000  1
