# generated using pymatgen
data_Ba3(BrO)2
_symmetry_space_group_name_H-M   'P 1'
_cell_length_a   6.47916700
_cell_length_b   11.05707300
_cell_length_c   13.79738200
_cell_angle_alpha   90.00000000
_cell_angle_beta   90.00000000
_cell_angle_gamma   90.00000000
_symmetry_Int_Tables_number   1
_chemical_formula_structural   Ba3(BrO)2
_chemical_formula_sum   'Ba12 Br8 O8'
_cell_volume   988.45303533
_cell_formula_units_Z   4
loop_
 _symmetry_equiv_pos_site_id
 _symmetry_equiv_pos_as_xyz
  1  'x, y, z'
loop_
 _atom_site_type_symbol
 _atom_site_label
 _atom_site_symmetry_multiplicity
 _atom_site_fract_x
 _atom_site_fract_y
 _atom_site_fract_z
 _atom_site_occupancy
  Ba  Ba0  1  0.75000000  0.07130900  0.06430400  1
  Ba  Ba1  1  0.75000000  0.12238400  0.79163400  1
  Ba  Ba2  1  0.25000000  0.21978700  0.45373700  1
  Ba  Ba3  1  0.25000000  0.28021300  0.95373700  1
  Ba  Ba4  1  0.75000000  0.37761600  0.29163400  1
  Ba  Ba5  1  0.75000000  0.42869100  0.56430400  1
  Ba  Ba6  1  0.25000000  0.57130900  0.43569600  1
  Ba  Ba7  1  0.25000000  0.62238400  0.70836600  1
  Ba  Ba8  1  0.75000000  0.71978700  0.04626300  1
  Ba  Ba9  1  0.75000000  0.78021300  0.54626300  1
  Ba  Ba10  1  0.25000000  0.87761600  0.20836600  1
  Ba  Ba11  1  0.25000000  0.92869100  0.93569600  1
  Br  Br12  1  0.75000000  0.10660500  0.54305600  1
  Br  Br13  1  0.25000000  0.18194300  0.20467600  1
  Br  Br14  1  0.25000000  0.31805700  0.70467600  1
  Br  Br15  1  0.75000000  0.39339500  0.04305600  1
  Br  Br16  1  0.25000000  0.60660500  0.95694400  1
  Br  Br17  1  0.75000000  0.68194300  0.29532400  1
  Br  Br18  1  0.75000000  0.81805700  0.79532400  1
  Br  Br19  1  0.25000000  0.89339500  0.45694400  1
  O  O20  1  0.00213700  0.11452200  0.92119700  1
  O  O21  1  0.49786300  0.11452200  0.92119700  1
  O  O22  1  0.00213700  0.38547800  0.42119700  1
  O  O23  1  0.49786300  0.38547800  0.42119700  1
  O  O24  1  0.99786300  0.61452200  0.57880300  1
  O  O25  1  0.50213700  0.61452200  0.57880300  1
  O  O26  1  0.99786300  0.88547800  0.07880300  1
  O  O27  1  0.50213700  0.88547800  0.07880300  1
