# generated using pymatgen
data_Bi10(Pb2O7)3
_symmetry_space_group_name_H-M   'P 1'
_cell_length_a   7.35964600
_cell_length_b   7.65044424
_cell_length_c   14.39603619
_cell_angle_alpha   92.40807346
_cell_angle_beta   97.40212683
_cell_angle_gamma   118.34749529
_symmetry_Int_Tables_number   1
_chemical_formula_structural   Bi10(Pb2O7)3
_chemical_formula_sum   'Bi10 Pb6 O21'
_cell_volume   702.45626918
_cell_formula_units_Z   1
loop_
 _symmetry_equiv_pos_site_id
 _symmetry_equiv_pos_as_xyz
  1  'x, y, z'
loop_
 _atom_site_type_symbol
 _atom_site_label
 _atom_site_symmetry_multiplicity
 _atom_site_fract_x
 _atom_site_fract_y
 _atom_site_fract_z
 _atom_site_occupancy
  Bi  Bi0  1  0.35299100  0.06758000  0.81288400  1
  Bi  Bi1  1  0.51426800  0.23482000  0.54480000  1
  Bi  Bi2  1  0.93370200  0.23059900  0.97646200  1
  Bi  Bi3  1  0.50743700  0.31272900  0.07267700  1
  Bi  Bi4  1  0.74150000  0.51488800  0.32483100  1
  Bi  Bi5  1  0.25850000  0.48511200  0.67516900  1
  Bi  Bi6  1  0.49256300  0.68727100  0.92732300  1
  Bi  Bi7  1  0.06629800  0.76940100  0.02353800  1
  Bi  Bi8  1  0.48573200  0.76518000  0.45520000  1
  Bi  Bi9  1  0.64700900  0.93242000  0.18711600  1
  Pb  Pb10  1  0.27288200  0.01649900  0.29278300  1
  Pb  Pb11  1  0.80340000  0.52570000  0.79429400  1
  Pb  Pb12  1  0.97528900  0.21285600  0.44338500  1
  Pb  Pb13  1  0.02471100  0.78714400  0.55661500  1
  Pb  Pb14  1  0.19660000  0.47430000  0.20570600  1
  Pb  Pb15  1  0.72711800  0.98350100  0.70721700  1
  O  O16  1  0.30961100  0.03680700  0.97272800  1
  O  O17  1  0.48536600  0.08343400  0.67487700  1
  O  O18  1  0.40864400  0.40136400  0.78975700  1
  O  O19  1  0.66673800  0.26162900  0.87906500  1
  O  O20  1  0.71357100  0.05394900  0.53252000  1
  O  O21  1  0.46493700  0.32190600  0.37787600  1
  O  O22  1  0.54274500  0.17699100  0.19601600  1
  O  O23  1  0.80926600  0.74886100  0.90036400  1
  O  O24  1  0.21565500  0.24210600  0.57246100  1
  O  O25  1  0.09926600  0.59042600  0.91670100  1
  O  O26  1  0.00000000  0.50000000  0.50000000  1
  O  O27  1  0.90073400  0.40957400  0.08329900  1
  O  O28  1  0.78434500  0.75789400  0.42753900  1
  O  O29  1  0.19073400  0.25113900  0.09963600  1
  O  O30  1  0.45725500  0.82300900  0.80398400  1
  O  O31  1  0.53506300  0.67809400  0.62212400  1
  O  O32  1  0.28642900  0.94605100  0.46748000  1
  O  O33  1  0.33326200  0.73837100  0.12093500  1
  O  O34  1  0.59135600  0.59863600  0.21024300  1
  O  O35  1  0.51463400  0.91656600  0.32512300  1
  O  O36  1  0.69038900  0.96319300  0.02727200  1
