# generated using pymatgen
data_Na6CoO4
_symmetry_space_group_name_H-M   'P 1'
_cell_length_a   10.76700400
_cell_length_b   10.76700400
_cell_length_c   10.76700400
_cell_angle_alpha   90.00000000
_cell_angle_beta   90.00000000
_cell_angle_gamma   90.00000000
_symmetry_Int_Tables_number   1
_chemical_formula_structural   Na6CoO4
_chemical_formula_sum   'Na48 Co8 O32'
_cell_volume   1248.20127880
_cell_formula_units_Z   8
loop_
 _symmetry_equiv_pos_site_id
 _symmetry_equiv_pos_as_xyz
  1  'x, y, z'
loop_
 _atom_site_type_symbol
 _atom_site_label
 _atom_site_symmetry_multiplicity
 _atom_site_fract_x
 _atom_site_fract_y
 _atom_site_fract_z
 _atom_site_occupancy
  Na  Na0  1  0.86450350  0.13549650  0.59797350  1
  Na  Na1  1  0.86450350  0.59797350  0.13549650  1
  Na  Na2  1  0.89262050  0.10737950  0.32331950  1
  Na  Na3  1  0.89262050  0.32331950  0.10737950  1
  Na  Na4  1  0.90202650  0.36450350  0.36450350  1
  Na  Na5  1  0.10737950  0.10737950  0.67668050  1
  Na  Na6  1  0.10737950  0.67668050  0.10737950  1
  Na  Na7  1  0.10737950  0.89262050  0.32331950  1
  Na  Na8  1  0.10737950  0.32331950  0.89262050  1
  Na  Na9  1  0.13549650  0.40202650  0.13549650  1
  Na  Na10  1  0.13549650  0.13549650  0.40202650  1
  Na  Na11  1  0.13549650  0.86450350  0.59797350  1
  Na  Na12  1  0.13549650  0.59797350  0.86450350  1
  Na  Na13  1  0.17668050  0.39262050  0.39262050  1
  Na  Na14  1  0.32331950  0.89262050  0.10737950  1
  Na  Na15  1  0.32331950  0.10737950  0.89262050  1
  Na  Na16  1  0.36450350  0.90202650  0.36450350  1
  Na  Na17  1  0.36450350  0.36450350  0.90202650  1
  Na  Na18  1  0.39262050  0.17668050  0.39262050  1
  Na  Na19  1  0.39262050  0.39262050  0.17668050  1
  Na  Na20  1  0.40202650  0.13549650  0.13549650  1
  Na  Na21  1  0.59797350  0.86450350  0.13549650  1
  Na  Na22  1  0.59797350  0.13549650  0.86450350  1
  Na  Na23  1  0.67668050  0.10737950  0.10737950  1
  Na  Na24  1  0.36450350  0.63549650  0.09797350  1
  Na  Na25  1  0.36450350  0.09797350  0.63549650  1
  Na  Na26  1  0.39262050  0.60737950  0.82331950  1
  Na  Na27  1  0.39262050  0.82331950  0.60737950  1
  Na  Na28  1  0.40202650  0.86450350  0.86450350  1
  Na  Na29  1  0.60737950  0.60737950  0.17668050  1
  Na  Na30  1  0.60737950  0.17668050  0.60737950  1
  Na  Na31  1  0.60737950  0.39262050  0.82331950  1
  Na  Na32  1  0.60737950  0.82331950  0.39262050  1
  Na  Na33  1  0.63549650  0.90202650  0.63549650  1
  Na  Na34  1  0.63549650  0.63549650  0.90202650  1
  Na  Na35  1  0.63549650  0.36450350  0.09797350  1
  Na  Na36  1  0.63549650  0.09797350  0.36450350  1
  Na  Na37  1  0.67668050  0.89262050  0.89262050  1
  Na  Na38  1  0.82331950  0.39262050  0.60737950  1
  Na  Na39  1  0.82331950  0.60737950  0.39262050  1
  Na  Na40  1  0.86450350  0.40202650  0.86450350  1
  Na  Na41  1  0.86450350  0.86450350  0.40202650  1
  Na  Na42  1  0.89262050  0.67668050  0.89262050  1
  Na  Na43  1  0.89262050  0.89262050  0.67668050  1
  Na  Na44  1  0.90202650  0.63549650  0.63549650  1
  Na  Na45  1  0.09797350  0.36450350  0.63549650  1
  Na  Na46  1  0.09797350  0.63549650  0.36450350  1
  Na  Na47  1  0.17668050  0.60737950  0.60737950  1
  Co  Co48  1  0.62638100  0.37361900  0.37361900  1
  Co  Co49  1  0.12638100  0.12638100  0.12638100  1
  Co  Co50  1  0.37361900  0.62638100  0.37361900  1
  Co  Co51  1  0.37361900  0.37361900  0.62638100  1
  Co  Co52  1  0.12638100  0.87361900  0.87361900  1
  Co  Co53  1  0.62638100  0.62638100  0.62638100  1
  Co  Co54  1  0.87361900  0.12638100  0.87361900  1
  Co  Co55  1  0.87361900  0.87361900  0.12638100  1
  O  O56  1  0.74387350  0.25612650  0.46597550  1
  O  O57  1  0.74387350  0.46597550  0.25612650  1
  O  O58  1  0.00000000  0.00000000  0.00000000  1
  O  O59  1  0.00000000  0.00000000  0.50000000  1
  O  O60  1  0.00000000  0.50000000  0.00000000  1
  O  O61  1  0.03402450  0.24387350  0.24387350  1
  O  O62  1  0.25612650  0.53402450  0.25612650  1
  O  O63  1  0.25612650  0.25612650  0.53402450  1
  O  O64  1  0.25612650  0.74387350  0.46597550  1
  O  O65  1  0.25612650  0.46597550  0.74387350  1
  O  O66  1  0.24387350  0.03402450  0.24387350  1
  O  O67  1  0.24387350  0.24387350  0.03402450  1
  O  O68  1  0.46597550  0.74387350  0.25612650  1
  O  O69  1  0.46597550  0.25612650  0.74387350  1
  O  O70  1  0.50000000  0.00000000  0.00000000  1
  O  O71  1  0.53402450  0.25612650  0.25612650  1
  O  O72  1  0.24387350  0.75612650  0.96597550  1
  O  O73  1  0.24387350  0.96597550  0.75612650  1
  O  O74  1  0.50000000  0.50000000  0.50000000  1
  O  O75  1  0.50000000  0.50000000  0.00000000  1
  O  O76  1  0.50000000  0.00000000  0.50000000  1
  O  O77  1  0.53402450  0.74387350  0.74387350  1
  O  O78  1  0.75612650  0.03402450  0.75612650  1
  O  O79  1  0.75612650  0.75612650  0.03402450  1
  O  O80  1  0.75612650  0.24387350  0.96597550  1
  O  O81  1  0.75612650  0.96597550  0.24387350  1
  O  O82  1  0.74387350  0.53402450  0.74387350  1
  O  O83  1  0.74387350  0.74387350  0.53402450  1
  O  O84  1  0.96597550  0.24387350  0.75612650  1
  O  O85  1  0.96597550  0.75612650  0.24387350  1
  O  O86  1  0.00000000  0.50000000  0.50000000  1
  O  O87  1  0.03402450  0.75612650  0.75612650  1
