# generated using pymatgen
data_Li2Cr3CoO8
_symmetry_space_group_name_H-M   'P 1'
_cell_length_a   5.88177262
_cell_length_b   5.88177262
_cell_length_c   14.50883710
_cell_angle_alpha   90.00000000
_cell_angle_beta   90.00000000
_cell_angle_gamma   120.00000000
_symmetry_Int_Tables_number   1
_chemical_formula_structural   Li2Cr3CoO8
_chemical_formula_sum   'Li6 Cr9 Co3 O24'
_cell_volume   434.69005022
_cell_formula_units_Z   3
loop_
 _symmetry_equiv_pos_site_id
 _symmetry_equiv_pos_as_xyz
  1  'x, y, z'
loop_
 _atom_site_type_symbol
 _atom_site_label
 _atom_site_symmetry_multiplicity
 _atom_site_fract_x
 _atom_site_fract_y
 _atom_site_fract_z
 _atom_site_occupancy
  Li  Li0  1  0.00000000  0.00000000  0.12332500  1
  Li  Li1  1  0.33333333  0.66666667  0.16717267  1
  Li  Li2  1  0.66666667  0.33333333  0.45665833  1
  Li  Li3  1  0.00000000  0.00000000  0.50050600  1
  Li  Li4  1  0.33333333  0.66666667  0.78999167  1
  Li  Li5  1  0.66666667  0.33333333  0.83383933  1
  Cr  Cr6  1  0.00517667  0.50258833  0.00099733  1
  Cr  Cr7  1  0.49741167  0.50258833  0.00099733  1
  Cr  Cr8  1  0.49741167  0.99482333  0.00099733  1
  Cr  Cr9  1  0.67184333  0.83592167  0.33433067  1
  Cr  Cr10  1  0.16407833  0.83592167  0.33433067  1
  Cr  Cr11  1  0.16407833  0.32815667  0.33433067  1
  Cr  Cr12  1  0.33851000  0.16925500  0.66766400  1
  Cr  Cr13  1  0.83074500  0.16925500  0.66766400  1
  Cr  Cr14  1  0.83074500  0.66149000  0.66766400  1
  Co  Co15  1  0.66666667  0.33333333  0.21260233  1
  Co  Co16  1  0.33333333  0.66666667  0.54593567  1
  Co  Co17  1  0.00000000  0.00000000  0.87926900  1
  O  O18  1  0.00000000  0.00000000  0.25977700  1
  O  O19  1  0.18011633  0.36023267  0.06912767  1
  O  O20  1  0.18011633  0.81988367  0.06912767  1
  O  O21  1  0.63976733  0.81988367  0.06912767  1
  O  O22  1  0.02714200  0.51357100  0.26154400  1
  O  O23  1  0.48642900  0.51357100  0.26154400  1
  O  O24  1  0.48642900  0.97285800  0.26154400  1
  O  O25  1  0.66666667  0.33333333  0.07544933  1
  O  O26  1  0.66666667  0.33333333  0.59311033  1
  O  O27  1  0.84678300  0.69356600  0.40246100  1
  O  O28  1  0.84678300  0.15321700  0.40246100  1
  O  O29  1  0.30643400  0.15321700  0.40246100  1
  O  O30  1  0.69380867  0.84690433  0.59487733  1
  O  O31  1  0.15309567  0.84690433  0.59487733  1
  O  O32  1  0.15309567  0.30619133  0.59487733  1
  O  O33  1  0.33333333  0.66666667  0.40878267  1
  O  O34  1  0.33333333  0.66666667  0.92644367  1
  O  O35  1  0.51344967  0.02689933  0.73579433  1
  O  O36  1  0.51344967  0.48655033  0.73579433  1
  O  O37  1  0.97310067  0.48655033  0.73579433  1
  O  O38  1  0.36047533  0.18023767  0.92821067  1
  O  O39  1  0.81976233  0.18023767  0.92821067  1
  O  O40  1  0.81976233  0.63952467  0.92821067  1
  O  O41  1  0.00000000  0.00000000  0.74211600  1
