# generated using pymatgen
data_Ba2LaCl7
_symmetry_space_group_name_H-M   'P 1'
_cell_length_a   7.57331300
_cell_length_b   14.05945000
_cell_length_c   12.23817615
_cell_angle_alpha   90.00000000
_cell_angle_beta   92.87195689
_cell_angle_gamma   90.00000000
_symmetry_Int_Tables_number   1
_chemical_formula_structural   Ba2LaCl7
_chemical_formula_sum   'Ba8 La4 Cl28'
_cell_volume   1301.44290780
_cell_formula_units_Z   4
loop_
 _symmetry_equiv_pos_site_id
 _symmetry_equiv_pos_as_xyz
  1  'x, y, z'
loop_
 _atom_site_type_symbol
 _atom_site_label
 _atom_site_symmetry_multiplicity
 _atom_site_fract_x
 _atom_site_fract_y
 _atom_site_fract_z
 _atom_site_occupancy
  Ba  Ba0  1  0.68167900  0.44430200  0.20118300  1
  Ba  Ba1  1  0.79156500  0.13323200  0.21597400  1
  Ba  Ba2  1  0.20843500  0.63323200  0.28402600  1
  Ba  Ba3  1  0.31832100  0.94430200  0.29881700  1
  Ba  Ba4  1  0.68167900  0.05569800  0.70118300  1
  Ba  Ba5  1  0.79156500  0.36676800  0.71597400  1
  Ba  Ba6  1  0.20843500  0.86676800  0.78402600  1
  Ba  Ba7  1  0.31832100  0.55569800  0.79881700  1
  La  La8  1  0.79680000  0.76639700  0.02613000  1
  La  La9  1  0.20320000  0.26639700  0.47387000  1
  La  La10  1  0.79680000  0.73360300  0.52613000  1
  La  La11  1  0.20320000  0.23360300  0.97387000  1
  Cl  Cl12  1  0.14788500  0.81348100  0.09922800  1
  Cl  Cl13  1  0.93679000  0.58801900  0.10049000  1
  Cl  Cl14  1  0.48525900  0.61811500  0.09588300  1
  Cl  Cl15  1  0.14341100  0.07444300  0.11063000  1
  Cl  Cl16  1  0.64753900  0.92684500  0.14308600  1
  Cl  Cl17  1  0.00189700  0.31070100  0.14432700  1
  Cl  Cl18  1  0.46885600  0.25589200  0.14441900  1
  Cl  Cl19  1  0.53114400  0.75589200  0.35558100  1
  Cl  Cl20  1  0.99810300  0.81070100  0.35567300  1
  Cl  Cl21  1  0.35246100  0.42684500  0.35691400  1
  Cl  Cl22  1  0.85658900  0.57444300  0.38937000  1
  Cl  Cl23  1  0.51474100  0.11811500  0.40411700  1
  Cl  Cl24  1  0.06321000  0.08801900  0.39951000  1
  Cl  Cl25  1  0.85211500  0.31348100  0.40077200  1
  Cl  Cl26  1  0.14788500  0.68651900  0.59922800  1
  Cl  Cl27  1  0.93679000  0.91198100  0.60049000  1
  Cl  Cl28  1  0.48525900  0.88188500  0.59588300  1
  Cl  Cl29  1  0.14341100  0.42555700  0.61063000  1
  Cl  Cl30  1  0.64753900  0.57315500  0.64308600  1
  Cl  Cl31  1  0.00189700  0.18929900  0.64432700  1
  Cl  Cl32  1  0.46885600  0.24410800  0.64441900  1
  Cl  Cl33  1  0.53114400  0.74410800  0.85558100  1
  Cl  Cl34  1  0.99810300  0.68929900  0.85567300  1
  Cl  Cl35  1  0.35246100  0.07315500  0.85691400  1
  Cl  Cl36  1  0.85658900  0.92555700  0.88937000  1
  Cl  Cl37  1  0.51474100  0.38188500  0.90411700  1
  Cl  Cl38  1  0.06321000  0.41198100  0.89951000  1
  Cl  Cl39  1  0.85211500  0.18651900  0.90077200  1
