# generated using pymatgen
data_BaSrI4
_symmetry_space_group_name_H-M   'P 1'
_cell_length_a   8.41000200
_cell_length_b   9.70018300
_cell_length_c   14.72671800
_cell_angle_alpha   90.00000000
_cell_angle_beta   90.00000000
_cell_angle_gamma   90.00000000
_symmetry_Int_Tables_number   1
_chemical_formula_structural   BaSrI4
_chemical_formula_sum   'Ba4 Sr4 I16'
_cell_volume   1201.38442485
_cell_formula_units_Z   4
loop_
 _symmetry_equiv_pos_site_id
 _symmetry_equiv_pos_as_xyz
  1  'x, y, z'
loop_
 _atom_site_type_symbol
 _atom_site_label
 _atom_site_symmetry_multiplicity
 _atom_site_fract_x
 _atom_site_fract_y
 _atom_site_fract_z
 _atom_site_occupancy
  Ba  Ba0  1  0.00000000  0.75000000  0.67528100  1
  Ba  Ba1  1  0.00000000  0.25000000  0.32471900  1
  Ba  Ba2  1  0.50000000  0.25000000  0.82471900  1
  Ba  Ba3  1  0.50000000  0.75000000  0.17528100  1
  Sr  Sr4  1  0.00000000  0.00000000  0.00000000  1
  Sr  Sr5  1  0.00000000  0.50000000  0.00000000  1
  Sr  Sr6  1  0.50000000  0.00000000  0.50000000  1
  Sr  Sr7  1  0.50000000  0.50000000  0.50000000  1
  I  I8  1  0.11463100  0.04708900  0.78410200  1
  I  I9  1  0.11463100  0.54708900  0.21589800  1
  I  I10  1  0.23699200  0.25004900  0.52285100  1
  I  I11  1  0.23699200  0.75004900  0.47714900  1
  I  I12  1  0.26300800  0.75004900  0.97714900  1
  I  I13  1  0.26300800  0.25004900  0.02285100  1
  I  I14  1  0.38536900  0.04708900  0.28410200  1
  I  I15  1  0.38536900  0.54708900  0.71589800  1
  I  I16  1  0.61463100  0.95291100  0.71589800  1
  I  I17  1  0.61463100  0.45291100  0.28410200  1
  I  I18  1  0.73699200  0.74995100  0.97714900  1
  I  I19  1  0.73699200  0.24995100  0.02285100  1
  I  I20  1  0.76300800  0.74995100  0.47714900  1
  I  I21  1  0.76300800  0.24995100  0.52285100  1
  I  I22  1  0.88536900  0.45291100  0.78410200  1
  I  I23  1  0.88536900  0.95291100  0.21589800  1
