# generated using pymatgen
data_Li4Ti3(CoO4)3
_symmetry_space_group_name_H-M   'P 1'
_cell_length_a   7.94472370
_cell_length_b   7.95131919
_cell_length_c   8.32734546
_cell_angle_alpha   73.77896068
_cell_angle_beta   75.69821591
_cell_angle_gamma   65.66149025
_symmetry_Int_Tables_number   1
_chemical_formula_structural   Li4Ti3(CoO4)3
_chemical_formula_sum   'Li8 Ti6 Co6 O24'
_cell_volume   454.95423337
_cell_formula_units_Z   2
loop_
 _symmetry_equiv_pos_site_id
 _symmetry_equiv_pos_as_xyz
  1  'x, y, z'
loop_
 _atom_site_type_symbol
 _atom_site_label
 _atom_site_symmetry_multiplicity
 _atom_site_fract_x
 _atom_site_fract_y
 _atom_site_fract_z
 _atom_site_occupancy
  Li  Li0  1  0.50000000  0.00000000  0.50000000  1
  Li  Li1  1  0.00000000  0.50000000  0.00000000  1
  Li  Li2  1  0.75165100  0.74687250  0.75196650  1
  Li  Li3  1  0.24834900  0.25312750  0.24803350  1
  Li  Li4  1  0.64616700  0.18868050  0.63704450  1
  Li  Li5  1  0.15901800  0.67977950  0.14988650  1
  Li  Li6  1  0.84098200  0.32022050  0.85011350  1
  Li  Li7  1  0.35383300  0.81131950  0.36295550  1
  Ti  Ti8  1  0.75503700  0.75399850  0.23799250  1
  Ti  Ti9  1  0.24496300  0.24600150  0.76200750  1
  Ti  Ti10  1  0.56796100  0.57832550  0.10359350  1
  Ti  Ti11  1  0.07383900  0.08879950  0.58969250  1
  Ti  Ti12  1  0.43203900  0.42167450  0.89640650  1
  Ti  Ti13  1  0.92616100  0.91120050  0.41030750  1
  Co  Co14  1  0.50000000  0.00000000  0.00000000  1
  Co  Co15  1  0.83747400  0.33410550  0.33234950  1
  Co  Co16  1  0.16252600  0.66589450  0.66765050  1
  Co  Co17  1  0.00000000  0.50000000  0.50000000  1
  Co  Co18  1  0.33439500  0.83530750  0.83228450  1
  Co  Co19  1  0.66560500  0.16469250  0.16771550  1
  O  O20  1  0.19581400  0.64698650  0.89674950  1
  O  O21  1  0.69588400  0.14749650  0.39451050  1
  O  O22  1  0.30411600  0.85250350  0.60548950  1
  O  O23  1  0.80418600  0.35301350  0.10325050  1
  O  O24  1  0.42607400  0.41851350  0.14804250  1
  O  O25  1  0.92879900  0.91370850  0.64674750  1
  O  O26  1  0.57392600  0.58148650  0.85195750  1
  O  O27  1  0.07120100  0.08629150  0.35325250  1
  O  O28  1  0.47647200  0.01718550  0.75072450  1
  O  O29  1  0.97921500  0.51476050  0.25188650  1
  O  O30  1  0.02078500  0.48523950  0.74811350  1
  O  O31  1  0.52352800  0.98281450  0.24927550  1
  O  O32  1  0.73098900  0.74085050  0.01659650  1
  O  O33  1  0.22605600  0.24201250  0.51752450  1
  O  O34  1  0.77394400  0.75798750  0.48247550  1
  O  O35  1  0.26901100  0.25914950  0.98340350  1
  O  O36  1  0.59865500  0.59203350  0.31626550  1
  O  O37  1  0.09480600  0.09299050  0.81747650  1
  O  O38  1  0.90519400  0.90700950  0.18252350  1
  O  O39  1  0.40134500  0.40796650  0.68373450  1
  O  O40  1  0.84558200  0.31064350  0.56687350  1
  O  O41  1  0.35240600  0.81087650  0.06296050  1
  O  O42  1  0.64759400  0.18912350  0.93703950  1
  O  O43  1  0.15441800  0.68935650  0.43312650  1
