# generated using pymatgen
data_BaNb3NO7
_symmetry_space_group_name_H-M   'P 1'
_cell_length_a   21.20233000
_cell_length_b   3.87588200
_cell_length_c   9.11880234
_cell_angle_alpha   90.00000000
_cell_angle_beta   91.48469245
_cell_angle_gamma   90.00000000
_symmetry_Int_Tables_number   1
_chemical_formula_structural   BaNb3NO7
_chemical_formula_sum   'Ba4 Nb12 N4 O28'
_cell_volume   749.11089540
_cell_formula_units_Z   4
loop_
 _symmetry_equiv_pos_site_id
 _symmetry_equiv_pos_as_xyz
  1  'x, y, z'
loop_
 _atom_site_type_symbol
 _atom_site_label
 _atom_site_symmetry_multiplicity
 _atom_site_fract_x
 _atom_site_fract_y
 _atom_site_fract_z
 _atom_site_occupancy
  Ba  Ba0  1  0.51734800  0.50000000  0.74869700  1
  Ba  Ba1  1  0.98276200  0.00000000  0.24799400  1
  Ba  Ba2  1  0.01734800  0.00000000  0.74869700  1
  Ba  Ba3  1  0.48276200  0.50000000  0.24799400  1
  Nb  Nb4  1  0.87254700  0.50000000  0.92824500  1
  Nb  Nb5  1  0.75876200  0.00000000  0.75342000  1
  Nb  Nb6  1  0.86801300  0.50000000  0.55721100  1
  Nb  Nb7  1  0.63161000  0.00000000  0.43831200  1
  Nb  Nb8  1  0.74076300  0.50000000  0.23689700  1
  Nb  Nb9  1  0.63183300  0.00000000  0.05932200  1
  Nb  Nb10  1  0.37254700  0.00000000  0.92824500  1
  Nb  Nb11  1  0.25876200  0.50000000  0.75342000  1
  Nb  Nb12  1  0.36801300  0.00000000  0.55721100  1
  Nb  Nb13  1  0.13161000  0.50000000  0.43831200  1
  Nb  Nb14  1  0.24076300  0.00000000  0.23689700  1
  Nb  Nb15  1  0.13183300  0.50000000  0.05932200  1
  N  N16  1  0.91959600  0.50000000  0.74980900  1
  N  N17  1  0.65560200  0.50000000  0.09455300  1
  N  N18  1  0.41959600  0.00000000  0.74980900  1
  N  N19  1  0.15560200  0.00000000  0.09455300  1
  O  O20  1  0.56389700  0.00000000  0.92946100  1
  O  O21  1  0.84432300  0.00000000  0.90785700  1
  O  O22  1  0.70204200  0.00000000  0.90076100  1
  O  O23  1  0.78627800  0.50000000  0.75166900  1
  O  O24  1  0.70302700  0.00000000  0.59412500  1
  O  O25  1  0.84502100  0.00000000  0.59194700  1
  O  O26  1  0.56638300  0.00000000  0.56482600  1
  O  O27  1  0.93357700  0.50000000  0.42894000  1
  O  O28  1  0.65161600  0.50000000  0.41140900  1
  O  O29  1  0.79438600  0.50000000  0.40784200  1
  O  O30  1  0.71323500  0.00000000  0.25808000  1
  O  O31  1  0.57907000  0.00000000  0.25216700  1
  O  O32  1  0.79774000  0.50000000  0.09269600  1
  O  O33  1  0.93557800  0.50000000  0.07185500  1
  O  O34  1  0.06389700  0.50000000  0.92946100  1
  O  O35  1  0.34432300  0.50000000  0.90785700  1
  O  O36  1  0.20204200  0.50000000  0.90076100  1
  O  O37  1  0.28627800  0.00000000  0.75166900  1
  O  O38  1  0.20302700  0.50000000  0.59412500  1
  O  O39  1  0.34502100  0.50000000  0.59194700  1
  O  O40  1  0.06638300  0.50000000  0.56482600  1
  O  O41  1  0.43357700  0.00000000  0.42894000  1
  O  O42  1  0.15161600  0.00000000  0.41140900  1
  O  O43  1  0.29438600  0.00000000  0.40784200  1
  O  O44  1  0.21323500  0.50000000  0.25808000  1
  O  O45  1  0.07907000  0.50000000  0.25216700  1
  O  O46  1  0.29774000  0.00000000  0.09269600  1
  O  O47  1  0.43557800  0.00000000  0.07185500  1
