# generated using pymatgen
data_Li3Cu3(PO4)2
_symmetry_space_group_name_H-M   'P 1'
_cell_length_a   5.11574600
_cell_length_b   6.21652500
_cell_length_c   5.48277502
_cell_angle_alpha   90.00000000
_cell_angle_beta   90.51794746
_cell_angle_gamma   90.00000000
_symmetry_Int_Tables_number   1
_chemical_formula_structural   Li3Cu3(PO4)2
_chemical_formula_sum   'Li3 Cu3 P2 O8'
_cell_volume   174.35698002
_cell_formula_units_Z   1
loop_
 _symmetry_equiv_pos_site_id
 _symmetry_equiv_pos_as_xyz
  1  'x, y, z'
loop_
 _atom_site_type_symbol
 _atom_site_label
 _atom_site_symmetry_multiplicity
 _atom_site_fract_x
 _atom_site_fract_y
 _atom_site_fract_z
 _atom_site_occupancy
  Li  Li0  1  0.49298600  0.74968700  0.32655700  1
  Li  Li1  1  0.99575400  0.50000000  0.15478900  1
  Li  Li2  1  0.49298600  0.25031300  0.32655700  1
  Cu  Cu3  1  0.48327500  0.00000000  0.81795400  1
  Cu  Cu4  1  0.99865200  0.76221400  0.65845100  1
  Cu  Cu5  1  0.99865200  0.23778600  0.65845100  1
  P  P6  1  0.99727500  0.00000000  0.18438900  1
  P  P7  1  0.50228700  0.50000000  0.83510100  1
  O  O8  1  0.89976000  0.00000000  0.91495000  1
  O  O9  1  0.30127000  0.00000000  0.19883700  1
  O  O10  1  0.88494000  0.79071500  0.30451300  1
  O  O11  1  0.40779300  0.70094000  0.68514100  1
  O  O12  1  0.80546100  0.50000000  0.84649600  1
  O  O13  1  0.38877300  0.50000000  0.09816400  1
  O  O14  1  0.40779300  0.29906000  0.68514100  1
  O  O15  1  0.88494000  0.20928500  0.30451300  1
