# generated using pymatgen
data_Li2Mn3SnO8
_symmetry_space_group_name_H-M   'P 1'
_cell_length_a   5.85560000
_cell_length_b   10.62475200
_cell_length_c   9.76400600
_cell_angle_alpha   90.00000000
_cell_angle_beta   90.00000000
_cell_angle_gamma   90.00000000
_symmetry_Int_Tables_number   1
_chemical_formula_structural   Li2Mn3SnO8
_chemical_formula_sum   'Li8 Mn12 Sn4 O32'
_cell_volume   607.46077711
_cell_formula_units_Z   4
loop_
 _symmetry_equiv_pos_site_id
 _symmetry_equiv_pos_as_xyz
  1  'x, y, z'
loop_
 _atom_site_type_symbol
 _atom_site_label
 _atom_site_symmetry_multiplicity
 _atom_site_fract_x
 _atom_site_fract_y
 _atom_site_fract_z
 _atom_site_occupancy
  Li  Li0  1  0.50000000  0.34278800  0.89567600  1
  Li  Li1  1  0.50000000  0.00520200  0.99240500  1
  Li  Li2  1  0.00000000  0.49479800  0.49240500  1
  Li  Li3  1  0.00000000  0.15721200  0.39567600  1
  Li  Li4  1  0.00000000  0.84278800  0.89567600  1
  Li  Li5  1  0.00000000  0.50520200  0.99240500  1
  Li  Li6  1  0.50000000  0.99479800  0.49240500  1
  Li  Li7  1  0.50000000  0.65721200  0.39567600  1
  Mn  Mn8  1  0.74644350  0.41638250  0.21513100  1
  Mn  Mn9  1  0.25355650  0.41638250  0.21513100  1
  Mn  Mn10  1  0.50000000  0.17072400  0.21415900  1
  Mn  Mn11  1  0.00000000  0.32927600  0.71415900  1
  Mn  Mn12  1  0.24644350  0.08361750  0.71513100  1
  Mn  Mn13  1  0.75355650  0.08361750  0.71513100  1
  Mn  Mn14  1  0.24644350  0.91638250  0.21513100  1
  Mn  Mn15  1  0.75355650  0.91638250  0.21513100  1
  Mn  Mn16  1  0.00000000  0.67072400  0.21415900  1
  Mn  Mn17  1  0.50000000  0.82927600  0.71415900  1
  Mn  Mn18  1  0.74644350  0.58361750  0.71513100  1
  Mn  Mn19  1  0.25355650  0.58361750  0.71513100  1
  Sn  Sn20  1  0.50000000  0.31983300  0.49048500  1
  Sn  Sn21  1  0.00000000  0.18016700  0.99048500  1
  Sn  Sn22  1  0.00000000  0.81983300  0.49048500  1
  Sn  Sn23  1  0.50000000  0.68016700  0.99048500  1
  O  O24  1  0.76394300  0.40529000  0.59524400  1
  O  O25  1  0.50000000  0.47423600  0.33900100  1
  O  O26  1  0.50000000  0.33021300  0.11461100  1
  O  O27  1  0.50000000  0.00585300  0.30418700  1
  O  O28  1  0.00000000  0.49414700  0.80418700  1
  O  O29  1  0.23605700  0.40529000  0.59524400  1
  O  O30  1  0.71988650  0.24271350  0.33959300  1
  O  O31  1  0.28011350  0.24271350  0.33959300  1
  O  O32  1  0.00000000  0.34978500  0.10152900  1
  O  O33  1  0.50000000  0.15021500  0.60152900  1
  O  O34  1  0.21988650  0.25728650  0.83959300  1
  O  O35  1  0.78011350  0.25728650  0.83959300  1
  O  O36  1  0.00000000  0.16978700  0.61461100  1
  O  O37  1  0.26394300  0.09471000  0.09524400  1
  O  O38  1  0.00000000  0.02576400  0.83900100  1
  O  O39  1  0.73605700  0.09471000  0.09524400  1
  O  O40  1  0.26394300  0.90529000  0.59524400  1
  O  O41  1  0.00000000  0.97423600  0.33900100  1
  O  O42  1  0.00000000  0.83021300  0.11461100  1
  O  O43  1  0.00000000  0.50585300  0.30418700  1
  O  O44  1  0.50000000  0.99414700  0.80418700  1
  O  O45  1  0.73605700  0.90529000  0.59524400  1
  O  O46  1  0.21988650  0.74271350  0.33959300  1
  O  O47  1  0.78011350  0.74271350  0.33959300  1
  O  O48  1  0.50000000  0.84978500  0.10152900  1
  O  O49  1  0.00000000  0.65021500  0.60152900  1
  O  O50  1  0.71988650  0.75728650  0.83959300  1
  O  O51  1  0.28011350  0.75728650  0.83959300  1
  O  O52  1  0.50000000  0.66978700  0.61461100  1
  O  O53  1  0.76394300  0.59471000  0.09524400  1
  O  O54  1  0.50000000  0.52576400  0.83900100  1
  O  O55  1  0.23605700  0.59471000  0.09524400  1
