# generated using pymatgen
data_Y13Ho19O48
_symmetry_space_group_name_H-M   'P 1'
_cell_length_a   9.22645800
_cell_length_b   9.22633077
_cell_length_c   15.06623212
_cell_angle_alpha   89.99725089
_cell_angle_beta   89.99272500
_cell_angle_gamma   70.51670933
_symmetry_Int_Tables_number   1
_chemical_formula_structural   Y13Ho19O48
_chemical_formula_sum   'Y13 Ho19 O48'
_cell_volume   1209.09398811
_cell_formula_units_Z   1
loop_
 _symmetry_equiv_pos_site_id
 _symmetry_equiv_pos_as_xyz
  1  'x, y, z'
loop_
 _atom_site_type_symbol
 _atom_site_label
 _atom_site_symmetry_multiplicity
 _atom_site_fract_x
 _atom_site_fract_y
 _atom_site_fract_z
 _atom_site_occupancy
  Y  Y0  1  0.14109100  0.14110800  0.10890700  1
  Y  Y1  1  0.99930800  0.50074200  0.99992300  1
  Y  Y2  1  0.34244700  0.40794100  0.12499700  1
  Y  Y3  1  0.24977600  0.75018000  0.25016500  1
  Y  Y4  1  0.75005300  0.24969900  0.25002000  1
  Y  Y5  1  0.00043000  0.49949000  0.50008600  1
  Y  Y6  1  0.50073800  0.99935300  0.99992100  1
  Y  Y7  1  0.15771000  0.09227400  0.87478100  1
  Y  Y8  1  0.65765100  0.59237400  0.37500500  1
  Y  Y9  1  0.25047600  0.74955300  0.74992000  1
  Y  Y10  1  0.74961200  0.25048900  0.74996100  1
  Y  Y11  1  0.49950400  0.00038300  0.50004900  1
  Y  Y12  1  0.84240900  0.90758900  0.62500100  1
  Ho  Ho13  1  0.15757300  0.09232600  0.37522600  1
  Ho  Ho14  1  0.76598400  0.26648000  0.01627400  1
  Ho  Ho15  1  0.01639200  0.51677400  0.26659000  1
  Ho  Ho16  1  0.35841800  0.35839800  0.39159100  1
  Ho  Ho17  1  0.10882100  0.10888900  0.64114300  1
  Ho  Ho18  1  0.60889800  0.60885000  0.14114900  1
  Ho  Ho19  1  0.73349400  0.23351400  0.48354300  1
  Ho  Ho20  1  0.48390800  0.98347300  0.23379800  1
  Ho  Ho21  1  0.84216200  0.90742100  0.12503200  1
  Ho  Ho22  1  0.34241100  0.40760900  0.62502600  1
  Ho  Ho23  1  0.26638000  0.76630600  0.51639000  1
  Ho  Ho24  1  0.51651200  0.01651400  0.76647400  1
  Ho  Ho25  1  0.39150500  0.39150100  0.85844800  1
  Ho  Ho26  1  0.89151900  0.89157500  0.35851500  1
  Ho  Ho27  1  0.64117200  0.64115100  0.60886600  1
  Ho  Ho28  1  0.98363300  0.48362400  0.73365000  1
  Ho  Ho29  1  0.23360300  0.73324400  0.98338300  1
  Ho  Ho30  1  0.65756100  0.59236000  0.87499000  1
  Ho  Ho31  1  0.85847000  0.85847300  0.89149100  1
  O  O32  1  0.22317600  0.00579200  0.23524300  1
  O  O33  1  0.09198300  0.39701100  0.13599000  1
  O  O34  1  0.39237000  0.15029300  0.12038500  1
  O  O35  1  0.10872000  0.34834900  0.37968200  1
  O  O36  1  0.59974200  0.35901300  0.12970200  1
  O  O37  1  0.40667300  0.10471800  0.36412300  1
  O  O38  1  0.26651200  0.96152100  0.00545400  1
  O  O39  1  0.35478200  0.65772900  0.11399400  1
  O  O40  1  0.71310400  0.01487000  0.25578700  1
  O  O41  1  0.27663800  0.49474300  0.26655000  1
  O  O42  1  0.24354700  0.02732100  0.51550700  1
  O  O43  1  0.90611200  0.12354600  0.13551100  1
  O  O44  1  0.74341800  0.52744500  0.01543200  1
  O  O45  1  0.12657000  0.34260100  0.61455300  1
  O  O46  1  0.62652800  0.84253900  0.11455900  1
  O  O47  1  0.59248300  0.37449300  0.36436400  1
  O  O48  1  0.14515700  0.84326000  0.38605800  1
  O  O49  1  0.23491700  0.53691600  0.49439900  1
  O  O50  1  0.78746900  0.48450600  0.24380800  1
  O  O51  1  0.99973200  0.24082100  0.77061200  1
  O  O52  1  0.49993700  0.74064000  0.27072400  1
  O  O53  1  0.49013700  0.25040300  0.52145800  1
  O  O54  1  0.99010300  0.75054000  0.02138700  1
  O  O55  1  0.90151600  0.14135900  0.37032900  1
  O  O56  1  0.00862400  0.25073700  0.97867600  1
  O  O57  1  0.50926200  0.75026700  0.47926500  1
  O  O58  1  0.49953100  0.25979200  0.72856200  1
  O  O59  1  0.09983700  0.85870700  0.62971000  1
  O  O60  1  0.99956600  0.75993500  0.22860600  1
  O  O61  1  0.85486100  0.15760500  0.61396600  1
  O  O62  1  0.76546500  0.46249300  0.50619100  1
  O  O63  1  0.21313500  0.51500600  0.75565000  1
  O  O64  1  0.37555800  0.15740700  0.88567500  1
  O  O65  1  0.87550100  0.65744200  0.38572900  1
  O  O66  1  0.40750300  0.62346400  0.63549500  1
  O  O67  1  0.72259200  0.50647600  0.73460000  1
  O  O68  1  0.75521900  0.97344300  0.48358800  1
  O  O69  1  0.09253200  0.87437900  0.86423100  1
  O  O70  1  0.25527300  0.47330800  0.98352000  1
  O  O71  1  0.64513800  0.34338500  0.88590200  1
  O  O72  1  0.59235000  0.89522700  0.63605000  1
  O  O73  1  0.28740500  0.98461800  0.74376200  1
  O  O74  1  0.73497600  0.03686300  0.99427300  1
  O  O75  1  0.89124000  0.65019600  0.62030600  1
  O  O76  1  0.40158200  0.64122200  0.87027400  1
  O  O77  1  0.60880900  0.84831800  0.87960200  1
  O  O78  1  0.90657400  0.60476700  0.86399000  1
  O  O79  1  0.77652200  0.99485700  0.76645000  1
