# generated using pymatgen
data_Be3Fe4Si3SeO12
_symmetry_space_group_name_H-M   'P 1'
_cell_length_a   8.36509200
_cell_length_b   8.36509200
_cell_length_c   8.36509200
_cell_angle_alpha   90.00000000
_cell_angle_beta   90.00000000
_cell_angle_gamma   90.00000000
_symmetry_Int_Tables_number   1
_chemical_formula_structural   Be3Fe4Si3SeO12
_chemical_formula_sum   'Be6 Fe8 Si6 Se2 O24'
_cell_volume   585.34533995
_cell_formula_units_Z   2
loop_
 _symmetry_equiv_pos_site_id
 _symmetry_equiv_pos_as_xyz
  1  'x, y, z'
loop_
 _atom_site_type_symbol
 _atom_site_label
 _atom_site_symmetry_multiplicity
 _atom_site_fract_x
 _atom_site_fract_y
 _atom_site_fract_z
 _atom_site_occupancy
  Be  Be0  1  0.50000000  0.25000000  0.00000000  1
  Be  Be1  1  0.75000000  0.00000000  0.50000000  1
  Be  Be2  1  0.00000000  0.50000000  0.25000000  1
  Be  Be3  1  0.00000000  0.50000000  0.75000000  1
  Be  Be4  1  0.50000000  0.75000000  0.00000000  1
  Be  Be5  1  0.25000000  0.00000000  0.50000000  1
  Fe  Fe6  1  0.17542100  0.17542100  0.17542100  1
  Fe  Fe7  1  0.32457900  0.67542100  0.32457900  1
  Fe  Fe8  1  0.17542100  0.82457900  0.82457900  1
  Fe  Fe9  1  0.82457900  0.17542100  0.82457900  1
  Fe  Fe10  1  0.32457900  0.32457900  0.67542100  1
  Fe  Fe11  1  0.67542100  0.32457900  0.32457900  1
  Fe  Fe12  1  0.67542100  0.67542100  0.67542100  1
  Fe  Fe13  1  0.82457900  0.82457900  0.17542100  1
  Si  Si14  1  0.50000000  0.00000000  0.75000000  1
  Si  Si15  1  0.00000000  0.75000000  0.50000000  1
  Si  Si16  1  0.00000000  0.25000000  0.50000000  1
  Si  Si17  1  0.50000000  0.00000000  0.25000000  1
  Si  Si18  1  0.25000000  0.50000000  0.00000000  1
  Si  Si19  1  0.75000000  0.50000000  0.00000000  1
  Se  Se20  1  0.00000000  0.00000000  0.00000000  1
  Se  Se21  1  0.50000000  0.50000000  0.50000000  1
  O  O22  1  0.35607300  0.35960800  0.91408600  1
  O  O23  1  0.85607300  0.41408600  0.85960800  1
  O  O24  1  0.35960800  0.08591400  0.64392700  1
  O  O25  1  0.64039200  0.08591400  0.35607300  1
  O  O26  1  0.64039200  0.91408600  0.64392700  1
  O  O27  1  0.08591400  0.64392700  0.35960800  1
  O  O28  1  0.85960800  0.14392700  0.58591400  1
  O  O29  1  0.85607300  0.58591400  0.14039200  1
  O  O30  1  0.08591400  0.35607300  0.64039200  1
  O  O31  1  0.14392700  0.58591400  0.85960800  1
  O  O32  1  0.58591400  0.14039200  0.85607300  1
  O  O33  1  0.64392700  0.64039200  0.91408600  1
  O  O34  1  0.91408600  0.35607300  0.35960800  1
  O  O35  1  0.35607300  0.64039200  0.08591400  1
  O  O36  1  0.41408600  0.14039200  0.14392700  1
  O  O37  1  0.14039200  0.85607300  0.58591400  1
  O  O38  1  0.64392700  0.35960800  0.08591400  1
  O  O39  1  0.14039200  0.14392700  0.41408600  1
  O  O40  1  0.58591400  0.85960800  0.14392700  1
  O  O41  1  0.14392700  0.41408600  0.14039200  1
  O  O42  1  0.41408600  0.85960800  0.85607300  1
  O  O43  1  0.91408600  0.64392700  0.64039200  1
  O  O44  1  0.85960800  0.85607300  0.41408600  1
  O  O45  1  0.35960800  0.91408600  0.35607300  1
