# generated using pymatgen
data_Li2Ti3Sn(PO4)6
_symmetry_space_group_name_H-M   'P 1'
_cell_length_a   8.65720999
_cell_length_b   8.65720999
_cell_length_c   21.30621760
_cell_angle_alpha   90.00000000
_cell_angle_beta   90.00000000
_cell_angle_gamma   120.00000000
_symmetry_Int_Tables_number   1
_chemical_formula_structural   Li2Ti3Sn(PO4)6
_chemical_formula_sum   'Li6 Ti9 Sn3 P18 O72'
_cell_volume   1382.90674195
_cell_formula_units_Z   3
loop_
 _symmetry_equiv_pos_site_id
 _symmetry_equiv_pos_as_xyz
  1  'x, y, z'
loop_
 _atom_site_type_symbol
 _atom_site_label
 _atom_site_symmetry_multiplicity
 _atom_site_fract_x
 _atom_site_fract_y
 _atom_site_fract_z
 _atom_site_occupancy
  Li  Li0  1  0.00000000  0.00000000  0.00248300  1
  Li  Li1  1  0.33333333  0.66666667  0.16670467  1
  Li  Li2  1  0.66666667  0.33333333  0.33581633  1
  Li  Li3  1  0.00000000  0.00000000  0.50003800  1
  Li  Li4  1  0.33333333  0.66666667  0.66914967  1
  Li  Li5  1  0.66666667  0.33333333  0.83337133  1
  Ti  Ti6  1  0.00000000  0.00000000  0.14180000  1
  Ti  Ti7  1  0.33333333  0.66666667  0.02425367  1
  Ti  Ti8  1  0.33333333  0.66666667  0.30879667  1
  Ti  Ti9  1  0.66666667  0.33333333  0.47513333  1
  Ti  Ti10  1  0.00000000  0.00000000  0.35758700  1
  Ti  Ti11  1  0.00000000  0.00000000  0.64213000  1
  Ti  Ti12  1  0.33333333  0.66666667  0.80846667  1
  Ti  Ti13  1  0.66666667  0.33333333  0.69092033  1
  Ti  Ti14  1  0.66666667  0.33333333  0.97546333  1
  Sn  Sn15  1  0.66666667  0.33333333  0.19129533  1
  Sn  Sn16  1  0.33333333  0.66666667  0.52462867  1
  Sn  Sn17  1  0.00000000  0.00000000  0.85796200  1
  P  P18  1  0.66700500  0.62725800  0.08230000  1
  P  P19  1  0.96025300  0.33299500  0.08230000  1
  P  P20  1  0.37274200  0.03974700  0.08230000  1
  P  P21  1  0.28786467  0.29056333  0.25028233  1
  P  P22  1  0.70943667  0.99730133  0.25028233  1
  P  P23  1  0.00269867  0.71213533  0.25028233  1
  P  P24  1  0.33367167  0.96059133  0.41563333  1
  P  P25  1  0.62691967  0.66632833  0.41563333  1
  P  P26  1  0.03940867  0.37308033  0.41563333  1
  P  P27  1  0.95453133  0.62389667  0.58361567  1
  P  P28  1  0.37610333  0.33063467  0.58361567  1
  P  P29  1  0.66936533  0.04546867  0.58361567  1
  P  P30  1  0.00033833  0.29392467  0.74896667  1
  P  P31  1  0.29358633  0.99966167  0.74896667  1
  P  P32  1  0.70607533  0.70641367  0.74896667  1
  P  P33  1  0.62119800  0.95723000  0.91694900  1
  P  P34  1  0.04277000  0.66396800  0.91694900  1
  P  P35  1  0.33603200  0.37880200  0.91694900  1
  O  O36  1  0.99853033  0.81302367  0.30893167  1
  O  O37  1  0.18697633  0.18550667  0.30893167  1
  O  O38  1  0.83592100  0.81453200  0.08045700  1
  O  O39  1  0.81449333  0.00146967  0.30893167  1
  O  O40  1  0.65706967  0.52902133  0.14329133  1
  O  O41  1  0.49989667  0.64800033  0.08283533  1
  O  O42  1  0.97861100  0.16407900  0.08045700  1
  O  O43  1  0.14810367  0.50010333  0.08283533  1
  O  O44  1  0.18463300  0.19026500  0.19058400  1
  O  O45  1  0.35199967  0.85189633  0.08283533  1
  O  O46  1  0.47524000  0.30861700  0.25495000  1
  O  O47  1  0.80973500  0.99436800  0.19058400  1
  O  O48  1  0.87195167  0.34293033  0.14329133  1
  O  O49  1  0.18546800  0.02138900  0.08045700  1
  O  O50  1  0.30782467  0.47818133  0.24817233  1
  O  O51  1  0.47097867  0.12804833  0.14329133  1
  O  O52  1  0.52181867  0.82964333  0.24817233  1
  O  O53  1  0.69138300  0.16662300  0.25495000  1
  O  O54  1  0.17035667  0.69217533  0.24817233  1
  O  O55  1  0.00563200  0.81536700  0.19058400  1
  O  O56  1  0.85003133  0.32653267  0.02419367  1
  O  O57  1  0.83337700  0.52476000  0.25495000  1
  O  O58  1  0.47650133  0.14996867  0.02419367  1
  O  O59  1  0.67346733  0.52349867  0.02419367  1
  O  O60  1  0.66519700  0.14635700  0.64226500  1
  O  O61  1  0.85364300  0.51884000  0.64226500  1
  O  O62  1  0.50258767  0.14786533  0.41379033  1
  O  O63  1  0.48116000  0.33480300  0.64226500  1
  O  O64  1  0.32373633  0.86235467  0.47662467  1
  O  O65  1  0.16656333  0.98133367  0.41616867  1
  O  O66  1  0.64527767  0.49741233  0.41379033  1
  O  O67  1  0.81477033  0.83343667  0.41616867  1
  O  O68  1  0.85129967  0.52359833  0.52391733  1
  O  O69  1  0.01866633  0.18522967  0.41616867  1
  O  O70  1  0.14190667  0.64195033  0.58828333  1
  O  O71  1  0.47640167  0.32770133  0.52391733  1
  O  O72  1  0.53861833  0.67626367  0.47662467  1
  O  O73  1  0.85213467  0.35472233  0.41379033  1
  O  O74  1  0.97449133  0.81151467  0.58150567  1
  O  O75  1  0.13764533  0.46138167  0.47662467  1
  O  O76  1  0.18848533  0.16297667  0.58150567  1
  O  O77  1  0.35804967  0.49995633  0.58828333  1
  O  O78  1  0.83702333  0.02550867  0.58150567  1
  O  O79  1  0.67229867  0.14870033  0.52391733  1
  O  O80  1  0.51669800  0.65986600  0.35752700  1
  O  O81  1  0.50004367  0.85809333  0.58828333  1
  O  O82  1  0.14316800  0.48330200  0.35752700  1
  O  O83  1  0.34013400  0.85683200  0.35752700  1
  O  O84  1  0.33186367  0.47969033  0.97559833  1
  O  O85  1  0.52030967  0.85217333  0.97559833  1
  O  O86  1  0.16925433  0.48119867  0.74712367  1
  O  O87  1  0.14782667  0.66813633  0.97559833  1
  O  O88  1  0.99040300  0.19568800  0.80995800  1
  O  O89  1  0.83323000  0.31466700  0.74950200  1
  O  O90  1  0.31194433  0.83074567  0.74712367  1
  O  O91  1  0.48143700  0.16677000  0.74950200  1
  O  O92  1  0.51796633  0.85693167  0.85725067  1
  O  O93  1  0.68533300  0.51856300  0.74950200  1
  O  O94  1  0.80857333  0.97528367  0.92161667  1
  O  O95  1  0.14306833  0.66103467  0.85725067  1
  O  O96  1  0.20528500  0.00959700  0.80995800  1
  O  O97  1  0.51880133  0.68805567  0.74712367  1
  O  O98  1  0.64115800  0.14484800  0.91483900  1
  O  O99  1  0.80431200  0.79471500  0.80995800  1
  O  O100  1  0.85515200  0.49631000  0.91483900  1
  O  O101  1  0.02471633  0.83328967  0.92161667  1
  O  O102  1  0.50369000  0.35884200  0.91483900  1
  O  O103  1  0.33896533  0.48203367  0.85725067  1
  O  O104  1  0.18336467  0.99319933  0.69086033  1
  O  O105  1  0.16671033  0.19142667  0.92161667  1
  O  O106  1  0.80983467  0.81663533  0.69086033  1
  O  O107  1  0.00680067  0.19016533  0.69086033  1
