# generated using pymatgen
data_Li6Fe2P(CO4)4
_symmetry_space_group_name_H-M   'P 1'
_cell_length_a   13.37366800
_cell_length_b   13.35765800
_cell_length_c   9.43891509
_cell_angle_alpha   90.00000000
_cell_angle_beta   134.83442173
_cell_angle_gamma   90.00000000
_symmetry_Int_Tables_number   1
_chemical_formula_structural   Li6Fe2P(CO4)4
_chemical_formula_sum   'Li24 Fe8 P4 C16 O64'
_cell_volume   1195.74722261
_cell_formula_units_Z   4
loop_
 _symmetry_equiv_pos_site_id
 _symmetry_equiv_pos_as_xyz
  1  'x, y, z'
loop_
 _atom_site_type_symbol
 _atom_site_label
 _atom_site_symmetry_multiplicity
 _atom_site_fract_x
 _atom_site_fract_y
 _atom_site_fract_z
 _atom_site_occupancy
  Li  Li0  1  0.00000000  0.17826200  0.25000000  1
  Li  Li1  1  0.80337250  0.37388650  0.25186300  1
  Li  Li2  1  0.19678850  0.37361650  0.64523900  1
  Li  Li3  1  0.80321150  0.37361650  0.85476100  1
  Li  Li4  1  0.00000000  0.42645300  0.75000000  1
  Li  Li5  1  0.80337250  0.62611350  0.75186300  1
  Li  Li6  1  0.19662750  0.37388650  0.24813700  1
  Li  Li7  1  0.00000000  0.57354700  0.25000000  1
  Li  Li8  1  0.80321150  0.62638350  0.35476100  1
  Li  Li9  1  0.19678850  0.62638350  0.14523900  1
  Li  Li10  1  0.00000000  0.82173800  0.75000000  1
  Li  Li11  1  0.19662750  0.62611350  0.74813700  1
  Li  Li12  1  0.50000000  0.67826200  0.25000000  1
  Li  Li13  1  0.30337250  0.87388650  0.25186300  1
  Li  Li14  1  0.69678850  0.87361650  0.64523900  1
  Li  Li15  1  0.30321150  0.87361650  0.85476100  1
  Li  Li16  1  0.50000000  0.92645300  0.75000000  1
  Li  Li17  1  0.30337250  0.12611350  0.75186300  1
  Li  Li18  1  0.69662750  0.87388650  0.24813700  1
  Li  Li19  1  0.50000000  0.07354700  0.25000000  1
  Li  Li20  1  0.30321150  0.12638350  0.35476100  1
  Li  Li21  1  0.69678850  0.12638350  0.14523900  1
  Li  Li22  1  0.50000000  0.32173800  0.75000000  1
  Li  Li23  1  0.69662750  0.12611350  0.74813700  1
  Fe  Fe24  1  0.00000000  0.00000000  0.00000000  1
  Fe  Fe25  1  0.00000000  0.00000000  0.50000000  1
  Fe  Fe26  1  0.25000000  0.75000000  0.50000000  1
  Fe  Fe27  1  0.75000000  0.75000000  0.00000000  1
  Fe  Fe28  1  0.50000000  0.50000000  0.00000000  1
  Fe  Fe29  1  0.50000000  0.50000000  0.50000000  1
  Fe  Fe30  1  0.75000000  0.25000000  0.50000000  1
  Fe  Fe31  1  0.25000000  0.25000000  0.00000000  1
  P  P32  1  0.00000000  0.62451700  0.75000000  1
  P  P33  1  0.00000000  0.37548300  0.25000000  1
  P  P34  1  0.50000000  0.12451700  0.75000000  1
  P  P35  1  0.50000000  0.87548300  0.25000000  1
  C  C36  1  0.69204850  0.47161050  0.44047300  1
  C  C37  1  0.99831300  0.77848000  0.05404200  1
  C  C38  1  0.30795150  0.47161050  0.05952700  1
  C  C39  1  0.00168700  0.77848000  0.44595800  1
  C  C40  1  0.99831300  0.22152000  0.55404200  1
  C  C41  1  0.69204850  0.52838950  0.94047300  1
  C  C42  1  0.00168700  0.22152000  0.94595800  1
  C  C43  1  0.30795150  0.52838950  0.55952700  1
  C  C44  1  0.19204850  0.97161050  0.44047300  1
  C  C45  1  0.49831300  0.27848000  0.05404200  1
  C  C46  1  0.80795150  0.97161050  0.05952700  1
  C  C47  1  0.50168700  0.27848000  0.44595800  1
  C  C48  1  0.49831300  0.72152000  0.55404200  1
  C  C49  1  0.19204850  0.02838950  0.94047300  1
  C  C50  1  0.50168700  0.72152000  0.94595800  1
  C  C51  1  0.80795150  0.02838950  0.55952700  1
  O  O52  1  0.13404000  0.69180700  0.88437300  1
  O  O53  1  0.00038300  0.55771300  0.61636100  1
  O  O54  1  0.86596000  0.69180700  0.61562700  1
  O  O55  1  0.99961700  0.55771300  0.88363900  1
  O  O56  1  0.62292650  0.53610950  0.29330100  1
  O  O57  1  0.76900400  0.40484900  0.45919600  1
  O  O58  1  0.05851400  0.85398300  0.04720100  1
  O  O59  1  0.68190400  0.47817900  0.56825000  1
  O  O60  1  0.31809600  0.47817900  0.93175000  1
  O  O61  1  0.37707350  0.53610950  0.20669900  1
  O  O62  1  0.07559150  0.71149350  0.19146100  1
  O  O63  1  0.86259200  0.77231400  0.91861400  1
  O  O64  1  0.13740800  0.77231400  0.58138600  1
  O  O65  1  0.23099600  0.40484900  0.04080400  1
  O  O66  1  0.94148600  0.85398300  0.45279900  1
  O  O67  1  0.07559150  0.28850650  0.69146100  1
  O  O68  1  0.92440850  0.71149350  0.30853900  1
  O  O69  1  0.05851400  0.14601700  0.54720100  1
  O  O70  1  0.76900400  0.59515100  0.95919600  1
  O  O71  1  0.86259200  0.22768600  0.41861400  1
  O  O72  1  0.13740800  0.22768600  0.08138600  1
  O  O73  1  0.92440850  0.28850650  0.80853900  1
  O  O74  1  0.62292650  0.46389050  0.79330100  1
  O  O75  1  0.68190400  0.52182100  0.06825000  1
  O  O76  1  0.31809600  0.52182100  0.43175000  1
  O  O77  1  0.94148600  0.14601700  0.95279900  1
  O  O78  1  0.23099600  0.59515100  0.54080400  1
  O  O79  1  0.37707350  0.46389050  0.70669900  1
  O  O80  1  0.00038300  0.44228700  0.11636100  1
  O  O81  1  0.13404000  0.30819300  0.38437300  1
  O  O82  1  0.99961700  0.44228700  0.38363900  1
  O  O83  1  0.86596000  0.30819300  0.11562700  1
  O  O84  1  0.63404000  0.19180700  0.88437300  1
  O  O85  1  0.50038300  0.05771300  0.61636100  1
  O  O86  1  0.36596000  0.19180700  0.61562700  1
  O  O87  1  0.49961700  0.05771300  0.88363900  1
  O  O88  1  0.12292650  0.03610950  0.29330100  1
  O  O89  1  0.26900400  0.90484900  0.45919600  1
  O  O90  1  0.55851400  0.35398300  0.04720100  1
  O  O91  1  0.18190400  0.97817900  0.56825000  1
  O  O92  1  0.81809600  0.97817900  0.93175000  1
  O  O93  1  0.87707350  0.03610950  0.20669900  1
  O  O94  1  0.57559150  0.21149350  0.19146100  1
  O  O95  1  0.36259200  0.27231400  0.91861400  1
  O  O96  1  0.63740800  0.27231400  0.58138600  1
  O  O97  1  0.73099600  0.90484900  0.04080400  1
  O  O98  1  0.44148600  0.35398300  0.45279900  1
  O  O99  1  0.57559150  0.78850650  0.69146100  1
  O  O100  1  0.42440850  0.21149350  0.30853900  1
  O  O101  1  0.55851400  0.64601700  0.54720100  1
  O  O102  1  0.26900400  0.09515100  0.95919600  1
  O  O103  1  0.36259200  0.72768600  0.41861400  1
  O  O104  1  0.63740800  0.72768600  0.08138600  1
  O  O105  1  0.42440850  0.78850650  0.80853900  1
  O  O106  1  0.12292650  0.96389050  0.79330100  1
  O  O107  1  0.18190400  0.02182100  0.06825000  1
  O  O108  1  0.81809600  0.02182100  0.43175000  1
  O  O109  1  0.44148600  0.64601700  0.95279900  1
  O  O110  1  0.73099600  0.09515100  0.54080400  1
  O  O111  1  0.87707350  0.96389050  0.70669900  1
  O  O112  1  0.50038300  0.94228700  0.11636100  1
  O  O113  1  0.63404000  0.80819300  0.38437300  1
  O  O114  1  0.49961700  0.94228700  0.38363900  1
  O  O115  1  0.36596000  0.80819300  0.11562700  1
