# generated using pymatgen
data_KFeH2S2O9
_symmetry_space_group_name_H-M   'P 1'
_cell_length_a   8.14637305
_cell_length_b   5.17490454
_cell_length_c   9.36371721
_cell_angle_alpha   90.00000000
_cell_angle_beta   102.96141592
_cell_angle_gamma   90.00000000
_symmetry_Int_Tables_number   1
_chemical_formula_structural   KFeH2S2O9
_chemical_formula_sum   'K2 Fe2 H4 S4 O18'
_cell_volume   384.68590646
_cell_formula_units_Z   2
loop_
 _symmetry_equiv_pos_site_id
 _symmetry_equiv_pos_as_xyz
  1  'x, y, z'
loop_
 _atom_site_type_symbol
 _atom_site_label
 _atom_site_symmetry_multiplicity
 _atom_site_fract_x
 _atom_site_fract_y
 _atom_site_fract_z
 _atom_site_occupancy
  K  K0  1  0.07326675  0.75000000  0.21652450  1
  K  K1  1  0.92673325  0.25000000  0.78347550  1
  Fe  Fe2  1  0.41283725  0.25000000  0.77651300  1
  Fe  Fe3  1  0.58716275  0.75000000  0.22348700  1
  H  H4  1  0.33429475  0.40597000  0.50731100  1
  H  H5  1  0.33429475  0.09403000  0.50731100  1
  H  H6  1  0.66570525  0.90597000  0.49268900  1
  H  H7  1  0.66570525  0.59403000  0.49268900  1
  S  S8  1  0.34302075  0.25000000  0.11425000  1
  S  S9  1  0.65697925  0.75000000  0.88575000  1
  S  S10  1  0.16826275  0.75000000  0.65523850  1
  S  S11  1  0.83173725  0.25000000  0.34476150  1
  O  O12  1  0.39540875  0.25000000  0.55165600  1
  O  O13  1  0.60459125  0.75000000  0.44834400  1
  O  O14  1  0.43302925  0.25000000  0.99244200  1
  O  O15  1  0.56697075  0.75000000  0.00755800  1
  O  O16  1  0.16015325  0.25000000  0.06492000  1
  O  O17  1  0.83984675  0.75000000  0.93508000  1
  O  O18  1  0.24289475  0.75000000  0.52483150  1
  O  O19  1  0.75710525  0.25000000  0.47516850  1
  O  O20  1  0.01510925  0.25000000  0.37627200  1
  O  O21  1  0.98489075  0.75000000  0.62372800  1
  O  O22  1  0.39823275  0.48469600  0.20795400  1
  O  O23  1  0.39823275  0.01530400  0.20795400  1
  O  O24  1  0.60176725  0.98469600  0.79204600  1
  O  O25  1  0.60176725  0.51530400  0.79204600  1
  O  O26  1  0.23080975  0.98401200  0.74966750  1
  O  O27  1  0.23080975  0.51598800  0.74966750  1
  O  O28  1  0.76919025  0.48401200  0.25033250  1
  O  O29  1  0.76919025  0.01598800  0.25033250  1
