# generated using pymatgen
data_BaYF5
_symmetry_space_group_name_H-M   'P 1'
_cell_length_a   10.41832400
_cell_length_b   7.50052600
_cell_length_c   8.70208277
_cell_angle_alpha   90.00000000
_cell_angle_beta   115.44112966
_cell_angle_gamma   90.00000000
_symmetry_Int_Tables_number   1
_chemical_formula_structural   BaYF5
_chemical_formula_sum   'Ba4 Y4 F20'
_cell_volume   614.06394409
_cell_formula_units_Z   4
loop_
 _symmetry_equiv_pos_site_id
 _symmetry_equiv_pos_as_xyz
  1  'x, y, z'
loop_
 _atom_site_type_symbol
 _atom_site_label
 _atom_site_symmetry_multiplicity
 _atom_site_fract_x
 _atom_site_fract_y
 _atom_site_fract_z
 _atom_site_occupancy
  Ba  Ba0  1  0.00000000  0.45775100  0.75000000  1
  Ba  Ba1  1  0.00000000  0.54224900  0.25000000  1
  Ba  Ba2  1  0.50000000  0.95775100  0.75000000  1
  Ba  Ba3  1  0.50000000  0.04224900  0.25000000  1
  Y  Y4  1  0.00000000  0.00000000  0.00000000  1
  Y  Y5  1  0.00000000  0.00000000  0.50000000  1
  Y  Y6  1  0.50000000  0.50000000  0.00000000  1
  Y  Y7  1  0.50000000  0.50000000  0.50000000  1
  F  F8  1  0.27215400  0.47735800  0.88122800  1
  F  F9  1  0.98860050  0.70831150  0.52728300  1
  F  F10  1  0.27215400  0.52264200  0.38122800  1
  F  F11  1  0.00000000  0.07447900  0.75000000  1
  F  F12  1  0.01139950  0.70831150  0.97271700  1
  F  F13  1  0.98860050  0.29168850  0.02728300  1
  F  F14  1  0.00000000  0.92552100  0.25000000  1
  F  F15  1  0.72784600  0.47735800  0.61877200  1
  F  F16  1  0.01139950  0.29168850  0.47271700  1
  F  F17  1  0.72784600  0.52264200  0.11877200  1
  F  F18  1  0.77215400  0.97735800  0.88122800  1
  F  F19  1  0.48860050  0.20831150  0.52728300  1
  F  F20  1  0.77215400  0.02264200  0.38122800  1
  F  F21  1  0.50000000  0.57447900  0.75000000  1
  F  F22  1  0.51139950  0.20831150  0.97271700  1
  F  F23  1  0.48860050  0.79168850  0.02728300  1
  F  F24  1  0.50000000  0.42552100  0.25000000  1
  F  F25  1  0.22784600  0.97735800  0.61877200  1
  F  F26  1  0.51139950  0.79168850  0.47271700  1
  F  F27  1  0.22784600  0.02264200  0.11877200  1
