# generated using pymatgen
data_Li5Ni2O2F5
_symmetry_space_group_name_H-M   'P 1'
_cell_length_a   2.92714542
_cell_length_b   2.92714542
_cell_length_c   28.92482656
_cell_angle_alpha   90.00000000
_cell_angle_beta   90.00000000
_cell_angle_gamma   90.00000000
_symmetry_Int_Tables_number   1
_chemical_formula_structural   Li5Ni2O2F5
_chemical_formula_sum   'Li10 Ni4 O4 F10'
_cell_volume   247.83312959
_cell_formula_units_Z   2
loop_
 _symmetry_equiv_pos_site_id
 _symmetry_equiv_pos_as_xyz
  1  'x, y, z'
loop_
 _atom_site_type_symbol
 _atom_site_label
 _atom_site_symmetry_multiplicity
 _atom_site_fract_x
 _atom_site_fract_y
 _atom_site_fract_z
 _atom_site_occupancy
  Li  Li0  1  0.00000000  0.00000000  0.00000000  1
  Li  Li1  1  0.00000000  0.00000000  0.85868725  1
  Li  Li2  1  0.00000000  0.00000000  0.14131275  1
  Li  Li3  1  0.50000000  0.50000000  0.93015225  1
  Li  Li4  1  0.50000000  0.50000000  0.06984775  1
  Li  Li5  1  0.50000000  0.50000000  0.50000000  1
  Li  Li6  1  0.50000000  0.50000000  0.35868725  1
  Li  Li7  1  0.50000000  0.50000000  0.64131275  1
  Li  Li8  1  0.00000000  0.00000000  0.43015225  1
  Li  Li9  1  0.00000000  0.00000000  0.56984775  1
  Ni  Ni10  1  0.00000000  0.00000000  0.71431825  1
  Ni  Ni11  1  0.50000000  0.50000000  0.78568175  1
  Ni  Ni12  1  0.50000000  0.50000000  0.21431825  1
  Ni  Ni13  1  0.00000000  0.00000000  0.28568175  1
  O  O14  1  0.00000000  0.00000000  0.21283000  1
  O  O15  1  0.00000000  0.00000000  0.78717000  1
  O  O16  1  0.50000000  0.50000000  0.71283000  1
  O  O17  1  0.50000000  0.50000000  0.28717000  1
  F  F18  1  0.50000000  0.50000000  0.00000000  1
  F  F19  1  0.50000000  0.50000000  0.86073950  1
  F  F20  1  0.50000000  0.50000000  0.13926050  1
  F  F21  1  0.00000000  0.00000000  0.92988175  1
  F  F22  1  0.00000000  0.00000000  0.07011825  1
  F  F23  1  0.00000000  0.00000000  0.50000000  1
  F  F24  1  0.00000000  0.00000000  0.36073950  1
  F  F25  1  0.00000000  0.00000000  0.63926050  1
  F  F26  1  0.50000000  0.50000000  0.42988175  1
  F  F27  1  0.50000000  0.50000000  0.57011825  1
