# generated using pymatgen
data_Li2FeOF3
_symmetry_space_group_name_H-M   'P 1'
_cell_length_a   5.29003400
_cell_length_b   5.80709000
_cell_length_c   9.84287206
_cell_angle_alpha   90.00000000
_cell_angle_beta   97.23660185
_cell_angle_gamma   90.00000000
_symmetry_Int_Tables_number   1
_chemical_formula_structural   Li2FeOF3
_chemical_formula_sum   'Li8 Fe4 O4 F12'
_cell_volume   299.96156220
_cell_formula_units_Z   4
loop_
 _symmetry_equiv_pos_site_id
 _symmetry_equiv_pos_as_xyz
  1  'x, y, z'
loop_
 _atom_site_type_symbol
 _atom_site_label
 _atom_site_symmetry_multiplicity
 _atom_site_fract_x
 _atom_site_fract_y
 _atom_site_fract_z
 _atom_site_occupancy
  Li  Li0  1  0.49441100  0.59735700  0.74066200  1
  Li  Li1  1  0.73815300  0.37689500  0.98727600  1
  Li  Li2  1  0.49441100  0.40264300  0.24066200  1
  Li  Li3  1  0.73815300  0.62310500  0.48727600  1
  Li  Li4  1  0.96958800  0.87211100  0.75378300  1
  Li  Li5  1  0.00869000  0.36999300  0.75343100  1
  Li  Li6  1  0.96958800  0.12788900  0.25378300  1
  Li  Li7  1  0.00869000  0.63000700  0.25343100  1
  Fe  Fe8  1  0.25684200  0.13622600  0.00198200  1
  Fe  Fe9  1  0.25684200  0.86377400  0.50198200  1
  Fe  Fe10  1  0.74177100  0.89334600  0.00137200  1
  Fe  Fe11  1  0.74177100  0.10665400  0.50137200  1
  O  O12  1  0.59618000  0.87006100  0.60280200  1
  O  O13  1  0.92267100  0.11027700  0.89677200  1
  O  O14  1  0.59618000  0.12993900  0.10280200  1
  O  O15  1  0.92267100  0.88972300  0.39677200  1
  F  F16  1  0.13998000  0.64341800  0.64119600  1
  F  F17  1  0.08951200  0.10755900  0.62568400  1
  F  F18  1  0.39268400  0.87407400  0.88986600  1
  F  F19  1  0.35721500  0.37417200  0.87327400  1
  F  F20  1  0.13998000  0.35658200  0.14119600  1
  F  F21  1  0.08951200  0.89244100  0.12568400  1
  F  F22  1  0.39268400  0.12592600  0.38986600  1
  F  F23  1  0.35721500  0.62582800  0.37327400  1
  F  F24  1  0.68415000  0.37888700  0.61899200  1
  F  F25  1  0.82728400  0.63162900  0.86602600  1
  F  F26  1  0.68415000  0.62111300  0.11899200  1
  F  F27  1  0.82728400  0.36837100  0.36602600  1
