# generated using pymatgen
data_LiTiVO4
_symmetry_space_group_name_H-M   'P 1'
_cell_length_a   5.28572814
_cell_length_b   6.01000501
_cell_length_c   7.90261157
_cell_angle_alpha   100.86503099
_cell_angle_beta   108.98935922
_cell_angle_gamma   91.73455758
_symmetry_Int_Tables_number   1
_chemical_formula_structural   LiTiVO4
_chemical_formula_sum   'Li3 Ti3 V3 O12'
_cell_volume   231.98982971
_cell_formula_units_Z   3
loop_
 _symmetry_equiv_pos_site_id
 _symmetry_equiv_pos_as_xyz
  1  'x, y, z'
loop_
 _atom_site_type_symbol
 _atom_site_label
 _atom_site_symmetry_multiplicity
 _atom_site_fract_x
 _atom_site_fract_y
 _atom_site_fract_z
 _atom_site_occupancy
  Li  Li0  1  0.00222950  0.51563000  0.00817350  1
  Li  Li1  1  0.00206450  0.33176600  0.33115450  1
  Li  Li2  1  0.99682850  0.14646650  0.65936600  1
  Ti  Ti3  1  0.48301700  0.23856600  0.00409000  1
  Ti  Ti4  1  0.54186250  0.59884850  0.34549200  1
  Ti  Ti5  1  0.50163000  0.42118150  0.67141850  1
  V  V6  1  0.50752100  0.75210850  0.00216750  1
  V  V7  1  0.46911100  0.07977850  0.32615450  1
  V  V8  1  0.49372150  0.91685500  0.66516550  1
  O  O9  1  0.70007550  0.05753950  0.15899700  1
  O  O10  1  0.72440350  0.52805950  0.16306000  1
  O  O11  1  0.71070400  0.88280600  0.49305700  1
  O  O12  1  0.71079800  0.36809200  0.48722300  1
  O  O13  1  0.70546650  0.69846050  0.82527000  1
  O  O14  1  0.71165450  0.22097000  0.82110450  1
  O  O15  1  0.28180450  0.30678750  0.16877100  1
  O  O16  1  0.30260800  0.76978500  0.17648000  1
  O  O17  1  0.30837450  0.60830950  0.50040500  1
  O  O18  1  0.27384250  0.13858000  0.51131850  1
  O  O19  1  0.29054750  0.44801700  0.84037250  1
  O  O20  1  0.28883200  0.97031700  0.83994800  1
