# generated using pymatgen
data_V4OF11
_symmetry_space_group_name_H-M   'P 1'
_cell_length_a   9.58225000
_cell_length_b   5.25705200
_cell_length_c   17.70099393
_cell_angle_alpha   90.00000000
_cell_angle_beta   102.10457202
_cell_angle_gamma   90.00000000
_symmetry_Int_Tables_number   1
_chemical_formula_structural   V4OF11
_chemical_formula_sum   'V16 O4 F44'
_cell_volume   871.85162198
_cell_formula_units_Z   4
loop_
 _symmetry_equiv_pos_site_id
 _symmetry_equiv_pos_as_xyz
  1  'x, y, z'
loop_
 _atom_site_type_symbol
 _atom_site_label
 _atom_site_symmetry_multiplicity
 _atom_site_fract_x
 _atom_site_fract_y
 _atom_site_fract_z
 _atom_site_occupancy
  V  V0  1  0.56068450  0.95681550  0.19424700  1
  V  V1  1  0.56165950  0.42995250  0.68865300  1
  V  V2  1  0.18810200  0.94939500  0.06309600  1
  V  V3  1  0.68765950  0.93149950  0.56245800  1
  V  V4  1  0.81189800  0.94939500  0.93690400  1
  V  V5  1  0.31234050  0.93149950  0.43754200  1
  V  V6  1  0.43834050  0.42995250  0.31134700  1
  V  V7  1  0.43931550  0.95681550  0.80575300  1
  V  V8  1  0.06068450  0.45681550  0.19424700  1
  V  V9  1  0.06165950  0.92995250  0.68865300  1
  V  V10  1  0.68810200  0.44939500  0.06309600  1
  V  V11  1  0.18765950  0.43149950  0.56245800  1
  V  V12  1  0.31189800  0.44939500  0.93690400  1
  V  V13  1  0.81234050  0.43149950  0.43754200  1
  V  V14  1  0.93834050  0.92995250  0.31134700  1
  V  V15  1  0.93931550  0.45681550  0.80575300  1
  O  O16  1  0.48073650  0.14161450  0.73391000  1
  O  O17  1  0.51926350  0.14161450  0.26609000  1
  O  O18  1  0.98073650  0.64161450  0.73391000  1
  O  O19  1  0.01926350  0.64161450  0.26609000  1
  F  F20  1  0.47488850  0.64211150  0.22351000  1
  F  F21  1  0.24833750  0.33504350  0.25058100  1
  F  F22  1  0.75166250  0.33504350  0.74941900  1
  F  F23  1  0.37975500  0.04095500  0.12294600  1
  F  F24  1  0.27568100  0.64792700  0.02396800  1
  F  F25  1  0.27773700  0.13316600  0.52525600  1
  F  F26  1  0.15350600  0.73741600  0.14971200  1
  F  F27  1  0.64887950  0.72916750  0.64983300  1
  F  F28  1  0.84649400  0.73741600  0.85028800  1
  F  F29  1  0.00000000  0.85006200  0.00000000  1
  F  F30  1  0.37440750  0.53374150  0.62534800  1
  F  F31  1  0.72431900  0.64792700  0.97603200  1
  F  F32  1  0.52511150  0.64211150  0.77649000  1
  F  F33  1  0.72226300  0.13316600  0.47474400  1
  F  F34  1  0.35112050  0.72916750  0.35016700  1
  F  F35  1  0.90179550  0.24641350  0.89370000  1
  F  F36  1  0.09820450  0.24641350  0.10630000  1
  F  F37  1  0.59751500  0.23124600  0.59956900  1
  F  F38  1  0.50000000  0.82823900  0.50000000  1
  F  F39  1  0.62559250  0.53374150  0.37465200  1
  F  F40  1  0.62024500  0.04095500  0.87705400  1
  F  F41  1  0.40248500  0.23124600  0.40043100  1
  F  F42  1  0.97488850  0.14211150  0.22351000  1
  F  F43  1  0.74833750  0.83504350  0.25058100  1
  F  F44  1  0.25166250  0.83504350  0.74941900  1
  F  F45  1  0.87975500  0.54095500  0.12294600  1
  F  F46  1  0.77568100  0.14792700  0.02396800  1
  F  F47  1  0.77773700  0.63316600  0.52525600  1
  F  F48  1  0.65350600  0.23741600  0.14971200  1
  F  F49  1  0.14887950  0.22916750  0.64983300  1
  F  F50  1  0.34649400  0.23741600  0.85028800  1
  F  F51  1  0.50000000  0.35006200  0.00000000  1
  F  F52  1  0.87440750  0.03374150  0.62534800  1
  F  F53  1  0.22431900  0.14792700  0.97603200  1
  F  F54  1  0.02511150  0.14211150  0.77649000  1
  F  F55  1  0.22226300  0.63316600  0.47474400  1
  F  F56  1  0.85112050  0.22916750  0.35016700  1
  F  F57  1  0.40179550  0.74641350  0.89370000  1
  F  F58  1  0.59820450  0.74641350  0.10630000  1
  F  F59  1  0.09751500  0.73124600  0.59956900  1
  F  F60  1  0.00000000  0.32823900  0.50000000  1
  F  F61  1  0.12559250  0.03374150  0.37465200  1
  F  F62  1  0.12024500  0.54095500  0.87705400  1
  F  F63  1  0.90248500  0.73124600  0.40043100  1
