# generated using pymatgen
data_Ca4Nb2O9
_symmetry_space_group_name_H-M   'P 1'
_cell_length_a   8.02633900
_cell_length_b   5.84876700
_cell_length_c   18.60565182
_cell_angle_alpha   90.00000000
_cell_angle_beta   115.11383866
_cell_angle_gamma   90.00000000
_symmetry_Int_Tables_number   1
_chemical_formula_structural   Ca4Nb2O9
_chemical_formula_sum   'Ca16 Nb8 O36'
_cell_volume   790.85890156
_cell_formula_units_Z   4
loop_
 _symmetry_equiv_pos_site_id
 _symmetry_equiv_pos_as_xyz
  1  'x, y, z'
loop_
 _atom_site_type_symbol
 _atom_site_label
 _atom_site_symmetry_multiplicity
 _atom_site_fract_x
 _atom_site_fract_y
 _atom_site_fract_z
 _atom_site_occupancy
  Ca  Ca0  1  0.83707000  0.50029600  0.33458700  1
  Ca  Ca1  1  0.59317600  0.94456200  0.33767300  1
  Ca  Ca2  1  0.74297000  0.44885400  0.49289100  1
  Ca  Ca3  1  0.25703000  0.55114600  0.50710900  1
  Ca  Ca4  1  0.40682400  0.05543800  0.66232700  1
  Ca  Ca5  1  0.16293000  0.49970400  0.66541300  1
  Ca  Ca6  1  0.92222300  0.93514900  0.66789200  1
  Ca  Ca7  1  0.07777700  0.43514900  0.83210800  1
  Ca  Ca8  1  0.83707000  0.99970400  0.83458700  1
  Ca  Ca9  1  0.59317600  0.55543800  0.83767300  1
  Ca  Ca10  1  0.74297000  0.05114600  0.99289100  1
  Ca  Ca11  1  0.25703000  0.94885400  0.00710900  1
  Ca  Ca12  1  0.40682400  0.44456200  0.16232700  1
  Ca  Ca13  1  0.16293000  0.00029600  0.16541300  1
  Ca  Ca14  1  0.92222300  0.56485100  0.16789200  1
  Ca  Ca15  1  0.07777700  0.06485100  0.33210800  1
  Nb  Nb16  1  0.32052700  0.51298700  0.32995200  1
  Nb  Nb17  1  0.50000000  0.00000000  0.50000000  1
  Nb  Nb18  1  0.00000000  0.00000000  0.50000000  1
  Nb  Nb19  1  0.67947300  0.48701300  0.67004800  1
  Nb  Nb20  1  0.32052700  0.98701300  0.82995200  1
  Nb  Nb21  1  0.00000000  0.50000000  0.00000000  1
  Nb  Nb22  1  0.50000000  0.50000000  0.00000000  1
  Nb  Nb23  1  0.67947300  0.01298700  0.17004800  1
  O  O24  1  0.14886200  0.44569000  0.37785000  1
  O  O25  1  0.46160700  0.19514600  0.40430700  1
  O  O26  1  0.84919900  0.17015000  0.40121900  1
  O  O27  1  0.49059600  0.71294900  0.43695900  1
  O  O28  1  0.88679100  0.71280900  0.44398200  1
  O  O29  1  0.22045700  0.96122000  0.46618900  1
  O  O30  1  0.77954300  0.03878000  0.53381100  1
  O  O31  1  0.11320900  0.28719100  0.55601800  1
  O  O32  1  0.50940400  0.28705100  0.56304100  1
  O  O33  1  0.15080100  0.82985000  0.59878100  1
  O  O34  1  0.53839300  0.80485400  0.59569300  1
  O  O35  1  0.85113800  0.55431000  0.62215000  1
  O  O36  1  0.47039500  0.45351800  0.69940600  1
  O  O37  1  0.79461200  0.20827000  0.72102900  1
  O  O38  1  0.18359300  0.17790300  0.74022400  1
  O  O39  1  0.81640700  0.67790300  0.75977600  1
  O  O40  1  0.20538800  0.70827000  0.77897100  1
  O  O41  1  0.52960500  0.95351800  0.80059400  1
  O  O42  1  0.14886200  0.05431000  0.87785000  1
  O  O43  1  0.46160700  0.30485400  0.90430700  1
  O  O44  1  0.84919900  0.32985000  0.90121900  1
  O  O45  1  0.49059600  0.78705100  0.93695900  1
  O  O46  1  0.88679100  0.78719100  0.94398200  1
  O  O47  1  0.22045700  0.53878000  0.96618900  1
  O  O48  1  0.77954300  0.46122000  0.03381100  1
  O  O49  1  0.11320900  0.21280900  0.05601800  1
  O  O50  1  0.50940400  0.21294900  0.06304100  1
  O  O51  1  0.15080100  0.67015000  0.09878100  1
  O  O52  1  0.53839300  0.69514600  0.09569300  1
  O  O53  1  0.85113800  0.94569000  0.12215000  1
  O  O54  1  0.47039500  0.04648200  0.19940600  1
  O  O55  1  0.79461200  0.29173000  0.22102900  1
  O  O56  1  0.18359300  0.32209700  0.24022400  1
  O  O57  1  0.81640700  0.82209700  0.25977600  1
  O  O58  1  0.20538800  0.79173000  0.27897100  1
  O  O59  1  0.52960500  0.54648200  0.30059400  1
