# generated using pymatgen
data_Al11AgO17
_symmetry_space_group_name_H-M   'P 1'
_cell_length_a   5.65223000
_cell_length_b   9.79784800
_cell_length_c   22.79221900
_cell_angle_alpha   90.00000000
_cell_angle_beta   90.00000000
_cell_angle_gamma   90.00000000
_symmetry_Int_Tables_number   1
_chemical_formula_structural   Al11AgO17
_chemical_formula_sum   'Al44 Ag4 O68'
_cell_volume   1262.22603177
_cell_formula_units_Z   4
loop_
 _symmetry_equiv_pos_site_id
 _symmetry_equiv_pos_as_xyz
  1  'x, y, z'
loop_
 _atom_site_type_symbol
 _atom_site_label
 _atom_site_symmetry_multiplicity
 _atom_site_fract_x
 _atom_site_fract_y
 _atom_site_fract_z
 _atom_site_occupancy
  Al  Al0  1  0.00000000  0.33291700  0.89455900  1
  Al  Al1  1  0.00000000  0.33291700  0.60544100  1
  Al  Al2  1  0.00000000  0.16769400  0.17551000  1
  Al  Al3  1  0.00000000  0.16686500  0.02477400  1
  Al  Al4  1  0.00000000  0.16769400  0.32449000  1
  Al  Al5  1  0.75220400  0.08315600  0.60774700  1
  Al  Al6  1  0.50000000  0.00000000  0.00000000  1
  Al  Al7  1  0.50000000  0.00000000  0.50000000  1
  Al  Al8  1  0.00000000  0.16686500  0.47522600  1
  Al  Al9  1  0.75220400  0.08315600  0.89225300  1
  Al  Al10  1  0.25220400  0.41684400  0.10774700  1
  Al  Al11  1  0.25220400  0.41684400  0.39225300  1
  Al  Al12  1  0.24779600  0.08315600  0.60774700  1
  Al  Al13  1  0.24779600  0.08315600  0.89225300  1
  Al  Al14  1  0.50000000  0.33230600  0.67551000  1
  Al  Al15  1  0.74779600  0.41684400  0.39225300  1
  Al  Al16  1  0.74779600  0.41684400  0.10774700  1
  Al  Al17  1  0.50000000  0.33313500  0.97522600  1
  Al  Al18  1  0.50000000  0.33230600  0.82449000  1
  Al  Al19  1  0.50000000  0.33313500  0.52477400  1
  Al  Al20  1  0.50000000  0.16708300  0.39455900  1
  Al  Al21  1  0.50000000  0.16708300  0.10544100  1
  Al  Al22  1  0.50000000  0.83291700  0.89455900  1
  Al  Al23  1  0.50000000  0.83291700  0.60544100  1
  Al  Al24  1  0.50000000  0.66769400  0.17551000  1
  Al  Al25  1  0.50000000  0.66686500  0.02477400  1
  Al  Al26  1  0.50000000  0.66769400  0.32449000  1
  Al  Al27  1  0.25220400  0.58315600  0.60774700  1
  Al  Al28  1  0.00000000  0.50000000  0.00000000  1
  Al  Al29  1  0.00000000  0.50000000  0.50000000  1
  Al  Al30  1  0.50000000  0.66686500  0.47522600  1
  Al  Al31  1  0.25220400  0.58315600  0.89225300  1
  Al  Al32  1  0.75220400  0.91684400  0.10774700  1
  Al  Al33  1  0.75220400  0.91684400  0.39225300  1
  Al  Al34  1  0.74779600  0.58315600  0.60774700  1
  Al  Al35  1  0.74779600  0.58315600  0.89225300  1
  Al  Al36  1  0.00000000  0.83230600  0.67551000  1
  Al  Al37  1  0.24779600  0.91684400  0.39225300  1
  Al  Al38  1  0.24779600  0.91684400  0.10774700  1
  Al  Al39  1  0.00000000  0.83313500  0.97522600  1
  Al  Al40  1  0.00000000  0.83230600  0.82449000  1
  Al  Al41  1  0.00000000  0.83313500  0.52477400  1
  Al  Al42  1  0.00000000  0.66708300  0.39455900  1
  Al  Al43  1  0.00000000  0.66708300  0.10544100  1
  Ag  Ag44  1  0.00000000  0.25722900  0.75000000  1
  Ag  Ag45  1  0.50000000  0.24277100  0.25000000  1
  Ag  Ag46  1  0.50000000  0.75722900  0.75000000  1
  Ag  Ag47  1  0.00000000  0.74277100  0.25000000  1
  O  O48  1  0.00000000  0.34262100  0.05016000  1
  O  O49  1  0.00000000  0.34262100  0.44984000  1
  O  O50  1  0.75672650  0.24916550  0.64579600  1
  O  O51  1  0.75672650  0.24916550  0.85420400  1
  O  O52  1  0.00000000  0.18080100  0.25000000  1
  O  O53  1  0.00000000  0.16609700  0.55550700  1
  O  O54  1  0.73523300  0.07912800  0.04951100  1
  O  O55  1  0.24327350  0.24916550  0.64579600  1
  O  O56  1  0.50000000  0.00076500  0.14141000  1
  O  O57  1  0.73523300  0.07912800  0.45048900  1
  O  O58  1  0.50000000  0.00076500  0.35859000  1
  O  O59  1  0.00000000  0.49923500  0.64141000  1
  O  O60  1  0.00000000  0.49923500  0.85859000  1
  O  O61  1  0.00000000  0.16609700  0.94449300  1
  O  O62  1  0.24327350  0.24916550  0.85420400  1
  O  O63  1  0.23523300  0.42087200  0.54951100  1
  O  O64  1  0.23523300  0.42087200  0.95048900  1
  O  O65  1  0.00000000  0.00063700  0.64540400  1
  O  O66  1  0.00000000  0.00063700  0.85459600  1
  O  O67  1  0.50000000  0.49936300  0.35459600  1
  O  O68  1  0.50000000  0.49936300  0.14540400  1
  O  O69  1  0.26476700  0.07912800  0.04951100  1
  O  O70  1  0.26476700  0.07912800  0.45048900  1
  O  O71  1  0.50000000  0.33390300  0.44449300  1
  O  O72  1  0.25672650  0.25083450  0.14579600  1
  O  O73  1  0.25672650  0.25083450  0.35420400  1
  O  O74  1  0.76476700  0.42087200  0.54951100  1
  O  O75  1  0.76476700  0.42087200  0.95048900  1
  O  O76  1  0.50000000  0.33390300  0.05550700  1
  O  O77  1  0.50000000  0.31919900  0.75000000  1
  O  O78  1  0.74327350  0.25083450  0.14579600  1
  O  O79  1  0.74327350  0.25083450  0.35420400  1
  O  O80  1  0.50000000  0.15737900  0.94984000  1
  O  O81  1  0.50000000  0.15737900  0.55016000  1
  O  O82  1  0.50000000  0.84262100  0.05016000  1
  O  O83  1  0.50000000  0.84262100  0.44984000  1
  O  O84  1  0.25672650  0.74916550  0.64579600  1
  O  O85  1  0.25672650  0.74916550  0.85420400  1
  O  O86  1  0.50000000  0.68080100  0.25000000  1
  O  O87  1  0.50000000  0.66609700  0.55550700  1
  O  O88  1  0.23523300  0.57912800  0.04951100  1
  O  O89  1  0.74327350  0.74916550  0.64579600  1
  O  O90  1  0.00000000  0.50076500  0.14141000  1
  O  O91  1  0.23523300  0.57912800  0.45048900  1
  O  O92  1  0.00000000  0.50076500  0.35859000  1
  O  O93  1  0.50000000  0.99923500  0.64141000  1
  O  O94  1  0.50000000  0.99923500  0.85859000  1
  O  O95  1  0.50000000  0.66609700  0.94449300  1
  O  O96  1  0.74327350  0.74916550  0.85420400  1
  O  O97  1  0.73523300  0.92087200  0.54951100  1
  O  O98  1  0.73523300  0.92087200  0.95048900  1
  O  O99  1  0.50000000  0.50063700  0.64540400  1
  O  O100  1  0.50000000  0.50063700  0.85459600  1
  O  O101  1  0.00000000  0.99936300  0.35459600  1
  O  O102  1  0.00000000  0.99936300  0.14540400  1
  O  O103  1  0.76476700  0.57912800  0.04951100  1
  O  O104  1  0.76476700  0.57912800  0.45048900  1
  O  O105  1  0.00000000  0.83390300  0.44449300  1
  O  O106  1  0.75672650  0.75083450  0.14579600  1
  O  O107  1  0.75672650  0.75083450  0.35420400  1
  O  O108  1  0.26476700  0.92087200  0.54951100  1
  O  O109  1  0.26476700  0.92087200  0.95048900  1
  O  O110  1  0.00000000  0.83390300  0.05550700  1
  O  O111  1  0.00000000  0.81919900  0.75000000  1
  O  O112  1  0.24327350  0.75083450  0.14579600  1
  O  O113  1  0.24327350  0.75083450  0.35420400  1
  O  O114  1  0.00000000  0.65737900  0.94984000  1
  O  O115  1  0.00000000  0.65737900  0.55016000  1
