# generated using pymatgen
data_Hf2N2O
_symmetry_space_group_name_H-M   'P 1'
_cell_length_a   13.63514600
_cell_length_b   3.27158000
_cell_length_c   8.19391503
_cell_angle_alpha   90.00000000
_cell_angle_beta   100.10025532
_cell_angle_gamma   90.00000000
_symmetry_Int_Tables_number   1
_chemical_formula_structural   Hf2N2O
_chemical_formula_sum   'Hf12 N12 O6'
_cell_volume   359.85336796
_cell_formula_units_Z   6
loop_
 _symmetry_equiv_pos_site_id
 _symmetry_equiv_pos_as_xyz
  1  'x, y, z'
loop_
 _atom_site_type_symbol
 _atom_site_label
 _atom_site_symmetry_multiplicity
 _atom_site_fract_x
 _atom_site_fract_y
 _atom_site_fract_z
 _atom_site_occupancy
  Hf  Hf0  1  0.53041100  0.50000000  0.80019900  1
  Hf  Hf1  1  0.63844700  0.00000000  0.47399200  1
  Hf  Hf2  1  0.69535700  0.00000000  0.13342400  1
  Hf  Hf3  1  0.80556200  0.50000000  0.86845900  1
  Hf  Hf4  1  0.86420600  0.50000000  0.52002000  1
  Hf  Hf5  1  0.96465600  0.00000000  0.18678000  1
  Hf  Hf6  1  0.03041100  0.00000000  0.80019900  1
  Hf  Hf7  1  0.13844700  0.50000000  0.47399200  1
  Hf  Hf8  1  0.19535700  0.50000000  0.13342400  1
  Hf  Hf9  1  0.30556200  0.00000000  0.86845900  1
  Hf  Hf10  1  0.36420600  0.00000000  0.52002000  1
  Hf  Hf11  1  0.46465600  0.50000000  0.18678000  1
  N  N12  1  0.53584500  0.00000000  0.64867300  1
  N  N13  1  0.66979800  0.50000000  0.96483800  1
  N  N14  1  0.62158300  0.50000000  0.29076500  1
  N  N15  1  0.79542000  0.00000000  0.37903300  1
  N  N16  1  0.87453400  0.00000000  0.72702200  1
  N  N17  1  0.82703100  0.00000000  0.03654000  1
  N  N18  1  0.03584500  0.50000000  0.64867300  1
  N  N19  1  0.16979800  0.00000000  0.96483800  1
  N  N20  1  0.12158300  0.00000000  0.29076500  1
  N  N21  1  0.29542000  0.50000000  0.37903300  1
  N  N22  1  0.37453400  0.50000000  0.72702200  1
  N  N23  1  0.32703100  0.50000000  0.03654000  1
  O  O24  1  0.71453700  0.50000000  0.61936900  1
  O  O25  1  0.96536000  0.50000000  0.33850800  1
  O  O26  1  0.99725200  0.50000000  0.01237600  1
  O  O27  1  0.21453700  0.00000000  0.61936900  1
  O  O28  1  0.46536000  0.00000000  0.33850800  1
  O  O29  1  0.49725200  0.00000000  0.01237600  1
