# generated using pymatgen
data_TmTaO4
_symmetry_space_group_name_H-M   'P 1'
_cell_length_a   3.86360200
_cell_length_b   15.35792800
_cell_length_c   5.39936500
_cell_angle_alpha   90.00000000
_cell_angle_beta   90.00000000
_cell_angle_gamma   90.00000000
_symmetry_Int_Tables_number   1
_chemical_formula_structural   TmTaO4
_chemical_formula_sum   'Tm4 Ta4 O16'
_cell_volume   320.38169627
_cell_formula_units_Z   4
loop_
 _symmetry_equiv_pos_site_id
 _symmetry_equiv_pos_as_xyz
  1  'x, y, z'
loop_
 _atom_site_type_symbol
 _atom_site_label
 _atom_site_symmetry_multiplicity
 _atom_site_fract_x
 _atom_site_fract_y
 _atom_site_fract_z
 _atom_site_occupancy
  Tm  Tm0  1  0.50000000  0.69823300  0.87955100  1
  Tm  Tm1  1  0.00000000  0.80176700  0.37955100  1
  Tm  Tm2  1  0.00000000  0.19823300  0.87955100  1
  Tm  Tm3  1  0.50000000  0.30176700  0.37955100  1
  Ta  Ta4  1  0.50000000  0.91430700  0.80826200  1
  Ta  Ta5  1  0.00000000  0.58569300  0.30826200  1
  Ta  Ta6  1  0.00000000  0.41430700  0.80826200  1
  Ta  Ta7  1  0.50000000  0.08569300  0.30826200  1
  O  O8  1  0.50000000  0.60086700  0.24867800  1
  O  O9  1  0.50000000  0.79780400  0.58699300  1
  O  O10  1  0.50000000  0.83154100  0.08719800  1
  O  O11  1  0.50000000  0.97772900  0.47411900  1
  O  O12  1  0.00000000  0.52227100  0.97411900  1
  O  O13  1  0.00000000  0.66845900  0.58719800  1
  O  O14  1  0.00000000  0.70219600  0.08699300  1
  O  O15  1  0.00000000  0.89913300  0.74867800  1
  O  O16  1  0.00000000  0.10086700  0.24867800  1
  O  O17  1  0.00000000  0.29780400  0.58699300  1
  O  O18  1  0.00000000  0.33154100  0.08719800  1
  O  O19  1  0.00000000  0.47772900  0.47411900  1
  O  O20  1  0.50000000  0.02227100  0.97411900  1
  O  O21  1  0.50000000  0.16845900  0.58719800  1
  O  O22  1  0.50000000  0.20219600  0.08699300  1
  O  O23  1  0.50000000  0.39913300  0.74867800  1
