# generated using pymatgen
data_CaTm2O4
_symmetry_space_group_name_H-M   'P 1'
_cell_length_a   3.32779800
_cell_length_b   9.85069800
_cell_length_c   11.66279700
_cell_angle_alpha   90.00000000
_cell_angle_beta   90.00000000
_cell_angle_gamma   90.00000000
_symmetry_Int_Tables_number   1
_chemical_formula_structural   CaTm2O4
_chemical_formula_sum   'Ca4 Tm8 O16'
_cell_volume   382.31970081
_cell_formula_units_Z   4
loop_
 _symmetry_equiv_pos_site_id
 _symmetry_equiv_pos_as_xyz
  1  'x, y, z'
loop_
 _atom_site_type_symbol
 _atom_site_label
 _atom_site_symmetry_multiplicity
 _atom_site_fract_x
 _atom_site_fract_y
 _atom_site_fract_z
 _atom_site_occupancy
  Ca  Ca0  1  0.75000000  0.74821300  0.14882600  1
  Ca  Ca1  1  0.25000000  0.75178700  0.64882600  1
  Ca  Ca2  1  0.75000000  0.24821300  0.35117400  1
  Ca  Ca3  1  0.25000000  0.25178700  0.85117400  1
  Tm  Tm4  1  0.75000000  0.57945000  0.88967500  1
  Tm  Tm5  1  0.75000000  0.57572800  0.38603100  1
  Tm  Tm6  1  0.25000000  0.92427200  0.88603100  1
  Tm  Tm7  1  0.25000000  0.92055000  0.38967500  1
  Tm  Tm8  1  0.75000000  0.07945000  0.61032500  1
  Tm  Tm9  1  0.75000000  0.07572800  0.11396900  1
  Tm  Tm10  1  0.25000000  0.42427200  0.61396900  1
  Tm  Tm11  1  0.25000000  0.42055000  0.11032500  1
  O  O12  1  0.25000000  0.52072300  0.78294300  1
  O  O13  1  0.75000000  0.57867900  0.57800100  1
  O  O14  1  0.25000000  0.62955600  0.02350400  1
  O  O15  1  0.25000000  0.71013000  0.31753700  1
  O  O16  1  0.75000000  0.78987000  0.81753700  1
  O  O17  1  0.75000000  0.87044400  0.52350400  1
  O  O18  1  0.25000000  0.92132100  0.07800100  1
  O  O19  1  0.75000000  0.97927700  0.28294300  1
  O  O20  1  0.25000000  0.02072300  0.71705700  1
  O  O21  1  0.75000000  0.07867900  0.92199900  1
  O  O22  1  0.25000000  0.12955600  0.47649600  1
  O  O23  1  0.25000000  0.21013000  0.18246300  1
  O  O24  1  0.75000000  0.28987000  0.68246300  1
  O  O25  1  0.75000000  0.37044400  0.97649600  1
  O  O26  1  0.25000000  0.42132100  0.42199900  1
  O  O27  1  0.75000000  0.47927700  0.21705700  1
