# generated using pymatgen
data_NaPrPCO7
_symmetry_space_group_name_H-M   'P 1'
_cell_length_a   5.36373700
_cell_length_b   7.20851200
_cell_length_c   9.79634183
_cell_angle_alpha   90.00000000
_cell_angle_beta   90.76177355
_cell_angle_gamma   90.00000000
_symmetry_Int_Tables_number   1
_chemical_formula_structural   NaPrPCO7
_chemical_formula_sum   'Na2 Pr2 P2 C2 O14'
_cell_volume   378.73779431
_cell_formula_units_Z   2
loop_
 _symmetry_equiv_pos_site_id
 _symmetry_equiv_pos_as_xyz
  1  'x, y, z'
loop_
 _atom_site_type_symbol
 _atom_site_label
 _atom_site_symmetry_multiplicity
 _atom_site_fract_x
 _atom_site_fract_y
 _atom_site_fract_z
 _atom_site_occupancy
  Na  Na0  1  0.76956900  0.46670900  0.22853600  1
  Na  Na1  1  0.23043100  0.96670900  0.77146400  1
  Pr  Pr2  1  0.21973600  0.77777400  0.37175400  1
  Pr  Pr3  1  0.78026400  0.27777400  0.62824600  1
  P  P4  1  0.28315700  0.26992900  0.41618200  1
  P  P5  1  0.71684300  0.76992900  0.58381800  1
  C  C6  1  0.27684600  0.72355200  0.06945800  1
  C  C7  1  0.72315400  0.22355200  0.93054200  1
  O  O8  1  0.69100700  0.25747900  0.05586400  1
  O  O9  1  0.05433800  0.71524000  0.11787700  1
  O  O10  1  0.46114900  0.70285400  0.15432200  1
  O  O11  1  0.21246700  0.09311300  0.33674600  1
  O  O12  1  0.15697100  0.44367300  0.35412000  1
  O  O13  1  0.79493500  0.74917400  0.43008000  1
  O  O14  1  0.57170000  0.29835300  0.41996000  1
  O  O15  1  0.42830000  0.79835300  0.58004000  1
  O  O16  1  0.20506500  0.24917400  0.56992000  1
  O  O17  1  0.84302900  0.94367300  0.64588000  1
  O  O18  1  0.78753300  0.59311300  0.66325400  1
  O  O19  1  0.53885100  0.20285400  0.84567800  1
  O  O20  1  0.94566200  0.21524000  0.88212300  1
  O  O21  1  0.30899300  0.75747900  0.94413600  1
