# generated using pymatgen
data_Li2V3FeO8
_symmetry_space_group_name_H-M   'P 1'
_cell_length_a   8.41882292
_cell_length_b   8.40319900
_cell_length_c   8.45123260
_cell_angle_alpha   90.00000000
_cell_angle_beta   90.24167655
_cell_angle_gamma   90.00000000
_symmetry_Int_Tables_number   1
_chemical_formula_structural   Li2V3FeO8
_chemical_formula_sum   'Li8 V12 Fe4 O32'
_cell_volume   597.87750645
_cell_formula_units_Z   4
loop_
 _symmetry_equiv_pos_site_id
 _symmetry_equiv_pos_as_xyz
  1  'x, y, z'
loop_
 _atom_site_type_symbol
 _atom_site_label
 _atom_site_symmetry_multiplicity
 _atom_site_fract_x
 _atom_site_fract_y
 _atom_site_fract_z
 _atom_site_occupancy
  Li  Li0  1  0.37453250  0.12412000  0.12612500  1
  Li  Li1  1  0.50082250  0.25219900  0.75007900  1
  Li  Li2  1  0.99968650  0.24935000  0.25055700  1
  Li  Li3  1  0.12201550  0.37459800  0.62554200  1
  Li  Li4  1  0.62546750  0.62412000  0.87387500  1
  Li  Li5  1  0.49917750  0.75219900  0.24992100  1
  Li  Li6  1  0.00031350  0.74935000  0.74944300  1
  Li  Li7  1  0.87798450  0.87459800  0.37445800  1
  V  V8  1  0.62914750  0.11400600  0.37623500  1
  V  V9  1  0.87544550  0.11362500  0.61815400  1
  V  V10  1  0.13556450  0.12451200  0.88023700  1
  V  V11  1  0.37408350  0.37615900  0.37205000  1
  V  V12  1  0.62798950  0.37200600  0.12491500  1
  V  V13  1  0.86515750  0.38079200  0.87449000  1
  V  V14  1  0.37085250  0.61400600  0.62376500  1
  V  V15  1  0.12455450  0.61362500  0.38184600  1
  V  V16  1  0.86443550  0.62451200  0.11976300  1
  V  V17  1  0.62591650  0.87615900  0.62795000  1
  V  V18  1  0.37201050  0.87200600  0.87508500  1
  V  V19  1  0.13484250  0.88079200  0.12551000  1
  Fe  Fe20  1  0.75345950  0.99953200  0.00035500  1
  Fe  Fe21  1  0.75204250  0.50061100  0.50252400  1
  Fe  Fe22  1  0.24654050  0.49953200  0.99964500  1
  Fe  Fe23  1  0.24795750  0.00061100  0.49747600  1
  O  O24  1  0.11514050  0.10482300  0.10622600  1
  O  O25  1  0.34784050  0.11683000  0.86949200  1
  O  O26  1  0.63706750  0.11852500  0.61155100  1
  O  O27  1  0.85693450  0.13373600  0.39587100  1
  O  O28  1  0.11006450  0.12235800  0.63342300  1
  O  O29  1  0.88709950  0.13295100  0.86535300  1
  O  O30  1  0.62886650  0.12946300  0.13929400  1
  O  O31  1  0.38418850  0.13863900  0.37858900  1
  O  O32  1  0.10967450  0.35968200  0.87984000  1
  O  O33  1  0.87169750  0.36254700  0.64210000  1
  O  O34  1  0.62067650  0.36308000  0.36981200  1
  O  O35  1  0.38955650  0.37894000  0.13340000  1
  O  O36  1  0.65013950  0.36979900  0.88797000  1
  O  O37  1  0.86676650  0.38755400  0.11316900  1
  O  O38  1  0.13533550  0.39882300  0.37096400  1
  O  O39  1  0.37870150  0.40045000  0.61286100  1
  O  O40  1  0.88485950  0.60482300  0.89377400  1
  O  O41  1  0.65215950  0.61683000  0.13050800  1
  O  O42  1  0.36293250  0.61852500  0.38844900  1
  O  O43  1  0.14306550  0.63373600  0.60412900  1
  O  O44  1  0.88993550  0.62235800  0.36657700  1
  O  O45  1  0.11290050  0.63295100  0.13464700  1
  O  O46  1  0.37113350  0.62946300  0.86070600  1
  O  O47  1  0.61581150  0.63863900  0.62141100  1
  O  O48  1  0.89032550  0.85968200  0.12016000  1
  O  O49  1  0.12830250  0.86254700  0.35790000  1
  O  O50  1  0.37932350  0.86308000  0.63018800  1
  O  O51  1  0.61044350  0.87894000  0.86660000  1
  O  O52  1  0.34986050  0.86979900  0.11203000  1
  O  O53  1  0.13323350  0.88755400  0.88683100  1
  O  O54  1  0.86466450  0.89882300  0.62903600  1
  O  O55  1  0.62129850  0.90045000  0.38713900  1
