# generated using pymatgen
data_Ba6CaI14
_symmetry_space_group_name_H-M   'P 1'
_cell_length_a   20.87620000
_cell_length_b   24.18974200
_cell_length_c   8.47072400
_cell_angle_alpha   90.00000000
_cell_angle_beta   90.00000000
_cell_angle_gamma   90.00000000
_symmetry_Int_Tables_number   1
_chemical_formula_structural   Ba6CaI14
_chemical_formula_sum   'Ba24 Ca4 I56'
_cell_volume   4277.62999742
_cell_formula_units_Z   4
loop_
 _symmetry_equiv_pos_site_id
 _symmetry_equiv_pos_as_xyz
  1  'x, y, z'
loop_
 _atom_site_type_symbol
 _atom_site_label
 _atom_site_symmetry_multiplicity
 _atom_site_fract_x
 _atom_site_fract_y
 _atom_site_fract_z
 _atom_site_occupancy
  Ba  Ba0  1  0.40235600  0.35062800  0.31183700  1
  Ba  Ba1  1  0.59764400  0.35062800  0.68816300  1
  Ba  Ba2  1  0.40235600  0.14937200  0.18816300  1
  Ba  Ba3  1  0.59764400  0.14937200  0.81183700  1
  Ba  Ba4  1  0.69299700  0.00000000  0.26036500  1
  Ba  Ba5  1  0.19299700  0.00000000  0.23963500  1
  Ba  Ba6  1  0.30700300  0.00000000  0.73963500  1
  Ba  Ba7  1  0.80700300  0.00000000  0.76036500  1
  Ba  Ba8  1  0.59764400  0.85062800  0.81183700  1
  Ba  Ba9  1  0.40235600  0.85062800  0.18816300  1
  Ba  Ba10  1  0.40235600  0.64937200  0.31183700  1
  Ba  Ba11  1  0.59764400  0.64937200  0.68816300  1
  Ba  Ba12  1  0.90235600  0.85062800  0.31183700  1
  Ba  Ba13  1  0.09764400  0.85062800  0.68816300  1
  Ba  Ba14  1  0.90235600  0.64937200  0.18816300  1
  Ba  Ba15  1  0.09764400  0.64937200  0.81183700  1
  Ba  Ba16  1  0.19299700  0.50000000  0.26036500  1
  Ba  Ba17  1  0.69299700  0.50000000  0.23963500  1
  Ba  Ba18  1  0.80700300  0.50000000  0.73963500  1
  Ba  Ba19  1  0.30700300  0.50000000  0.76036500  1
  Ba  Ba20  1  0.09764400  0.35062800  0.81183700  1
  Ba  Ba21  1  0.90235600  0.35062800  0.18816300  1
  Ba  Ba22  1  0.90235600  0.14937200  0.31183700  1
  Ba  Ba23  1  0.09764400  0.14937200  0.68816300  1
  Ca  Ca24  1  0.00000000  0.00000000  0.00000000  1
  Ca  Ca25  1  0.50000000  0.00000000  0.50000000  1
  Ca  Ca26  1  0.50000000  0.50000000  0.00000000  1
  Ca  Ca27  1  0.00000000  0.50000000  0.50000000  1
  I  I28  1  0.55773950  0.40828450  0.22895100  1
  I  I29  1  0.44226050  0.40828450  0.77104900  1
  I  I30  1  0.50000000  0.24584500  0.00000000  1
  I  I31  1  0.70092000  0.25000000  0.75000000  1
  I  I32  1  0.29908000  0.25000000  0.25000000  1
  I  I33  1  0.50000000  0.25415500  0.50000000  1
  I  I34  1  0.26177650  0.10096150  0.00474300  1
  I  I35  1  0.23822350  0.10096150  0.50474300  1
  I  I36  1  0.73822350  0.10096150  0.99525700  1
  I  I37  1  0.76177650  0.10096150  0.49525700  1
  I  I38  1  0.55773950  0.09171550  0.27104900  1
  I  I39  1  0.44226050  0.09171550  0.72895100  1
  I  I40  1  0.12222700  0.00000000  0.79553300  1
  I  I41  1  0.37777300  0.00000000  0.29553300  1
  I  I42  1  0.62222700  0.00000000  0.70446700  1
  I  I43  1  0.87777300  0.00000000  0.20446700  1
  I  I44  1  0.44226050  0.90828450  0.72895100  1
  I  I45  1  0.55773950  0.90828450  0.27104900  1
  I  I46  1  0.73822350  0.89903850  0.99525700  1
  I  I47  1  0.23822350  0.89903850  0.50474300  1
  I  I48  1  0.26177650  0.89903850  0.00474300  1
  I  I49  1  0.76177650  0.89903850  0.49525700  1
  I  I50  1  0.50000000  0.74584500  0.50000000  1
  I  I51  1  0.29908000  0.75000000  0.25000000  1
  I  I52  1  0.70092000  0.75000000  0.75000000  1
  I  I53  1  0.50000000  0.75415500  0.00000000  1
  I  I54  1  0.55773950  0.59171550  0.22895100  1
  I  I55  1  0.44226050  0.59171550  0.77104900  1
  I  I56  1  0.05773950  0.90828450  0.22895100  1
  I  I57  1  0.94226050  0.90828450  0.77104900  1
  I  I58  1  0.00000000  0.74584500  0.00000000  1
  I  I59  1  0.20092000  0.75000000  0.75000000  1
  I  I60  1  0.79908000  0.75000000  0.25000000  1
  I  I61  1  0.00000000  0.75415500  0.50000000  1
  I  I62  1  0.76177650  0.60096150  0.00474300  1
  I  I63  1  0.73822350  0.60096150  0.50474300  1
  I  I64  1  0.23822350  0.60096150  0.99525700  1
  I  I65  1  0.26177650  0.60096150  0.49525700  1
  I  I66  1  0.05773950  0.59171550  0.27104900  1
  I  I67  1  0.94226050  0.59171550  0.72895100  1
  I  I68  1  0.62222700  0.50000000  0.79553300  1
  I  I69  1  0.87777300  0.50000000  0.29553300  1
  I  I70  1  0.12222700  0.50000000  0.70446700  1
  I  I71  1  0.37777300  0.50000000  0.20446700  1
  I  I72  1  0.94226050  0.40828450  0.72895100  1
  I  I73  1  0.05773950  0.40828450  0.27104900  1
  I  I74  1  0.23822350  0.39903850  0.99525700  1
  I  I75  1  0.73822350  0.39903850  0.50474300  1
  I  I76  1  0.76177650  0.39903850  0.00474300  1
  I  I77  1  0.26177650  0.39903850  0.49525700  1
  I  I78  1  0.00000000  0.24584500  0.50000000  1
  I  I79  1  0.79908000  0.25000000  0.25000000  1
  I  I80  1  0.20092000  0.25000000  0.75000000  1
  I  I81  1  0.00000000  0.25415500  0.00000000  1
  I  I82  1  0.05773950  0.09171550  0.22895100  1
  I  I83  1  0.94226050  0.09171550  0.77104900  1
