# generated using pymatgen
data_TiSnO4
_symmetry_space_group_name_H-M   'P 1'
_cell_length_a   9.18993800
_cell_length_b   6.69447200
_cell_length_c   7.44589438
_cell_angle_alpha   90.00000000
_cell_angle_beta   112.55251223
_cell_angle_gamma   90.00000000
_symmetry_Int_Tables_number   1
_chemical_formula_structural   TiSnO4
_chemical_formula_sum   'Ti6 Sn6 O24'
_cell_volume   423.05423060
_cell_formula_units_Z   6
loop_
 _symmetry_equiv_pos_site_id
 _symmetry_equiv_pos_as_xyz
  1  'x, y, z'
loop_
 _atom_site_type_symbol
 _atom_site_label
 _atom_site_symmetry_multiplicity
 _atom_site_fract_x
 _atom_site_fract_y
 _atom_site_fract_z
 _atom_site_occupancy
  Ti  Ti0  1  0.82397200  0.50000000  0.31425700  1
  Ti  Ti1  1  0.84503000  0.50000000  0.81927700  1
  Ti  Ti2  1  0.50517000  0.50000000  0.00030000  1
  Ti  Ti3  1  0.32397200  0.00000000  0.31425700  1
  Ti  Ti4  1  0.34503000  0.00000000  0.81927700  1
  Ti  Ti5  1  0.00517000  0.00000000  0.00030000  1
  Sn  Sn6  1  0.16314100  0.50000000  0.16620900  1
  Sn  Sn7  1  0.16783200  0.50000000  0.67107200  1
  Sn  Sn8  1  0.50139000  0.50000000  0.50177600  1
  Sn  Sn9  1  0.66314100  0.00000000  0.16620900  1
  Sn  Sn10  1  0.66783200  0.00000000  0.67107200  1
  Sn  Sn11  1  0.00139000  0.00000000  0.50177600  1
  O  O12  1  0.17522000  0.19139000  0.67730300  1
  O  O13  1  0.83002450  0.20345350  0.33903300  1
  O  O14  1  0.40631600  0.50000000  0.71531300  1
  O  O15  1  0.05279400  0.50000000  0.36697400  1
  O  O16  1  0.72905200  0.50000000  0.04407000  1
  O  O17  1  0.60055500  0.50000000  0.28890600  1
  O  O18  1  0.92861200  0.50000000  0.62809200  1
  O  O19  1  0.27970700  0.50000000  0.97422700  1
  O  O20  1  0.83002450  0.79654650  0.33903300  1
  O  O21  1  0.99296950  0.30226150  0.98842900  1
  O  O22  1  0.17522000  0.80861000  0.67730300  1
  O  O23  1  0.99296950  0.69773850  0.98842900  1
  O  O24  1  0.67522000  0.69139000  0.67730300  1
  O  O25  1  0.33002450  0.70345350  0.33903300  1
  O  O26  1  0.90631600  0.00000000  0.71531300  1
  O  O27  1  0.55279400  0.00000000  0.36697400  1
  O  O28  1  0.22905200  0.00000000  0.04407000  1
  O  O29  1  0.10055500  0.00000000  0.28890600  1
  O  O30  1  0.42861200  0.00000000  0.62809200  1
  O  O31  1  0.77970700  0.00000000  0.97422700  1
  O  O32  1  0.33002450  0.29654650  0.33903300  1
  O  O33  1  0.49296950  0.80226150  0.98842900  1
  O  O34  1  0.67522000  0.30861000  0.67730300  1
  O  O35  1  0.49296950  0.19773850  0.98842900  1
