# generated using pymatgen
data_Li4CrO5
_symmetry_space_group_name_H-M   'P 1'
_cell_length_a   8.75562200
_cell_length_b   5.83051800
_cell_length_c   7.91609127
_cell_angle_alpha   90.00000000
_cell_angle_beta   97.79276137
_cell_angle_gamma   90.00000000
_symmetry_Int_Tables_number   1
_chemical_formula_structural   Li4CrO5
_chemical_formula_sum   'Li16 Cr4 O20'
_cell_volume   400.38295825
_cell_formula_units_Z   4
loop_
 _symmetry_equiv_pos_site_id
 _symmetry_equiv_pos_as_xyz
  1  'x, y, z'
loop_
 _atom_site_type_symbol
 _atom_site_label
 _atom_site_symmetry_multiplicity
 _atom_site_fract_x
 _atom_site_fract_y
 _atom_site_fract_z
 _atom_site_occupancy
  Li  Li0  1  0.19893300  0.16397200  0.64798200  1
  Li  Li1  1  0.19893300  0.83602800  0.14798200  1
  Li  Li2  1  0.39320200  0.82679700  0.55551400  1
  Li  Li3  1  0.39320200  0.17320300  0.05551400  1
  Li  Li4  1  0.60679800  0.82679700  0.94448600  1
  Li  Li5  1  0.60679800  0.17320300  0.44448600  1
  Li  Li6  1  0.80106700  0.16397200  0.85201800  1
  Li  Li7  1  0.80106700  0.83602800  0.35201800  1
  Li  Li8  1  0.69893300  0.66397200  0.64798200  1
  Li  Li9  1  0.69893300  0.33602800  0.14798200  1
  Li  Li10  1  0.89320200  0.32679700  0.55551400  1
  Li  Li11  1  0.89320200  0.67320300  0.05551400  1
  Li  Li12  1  0.10679800  0.32679700  0.94448600  1
  Li  Li13  1  0.10679800  0.67320300  0.44448600  1
  Li  Li14  1  0.30106700  0.66397200  0.85201800  1
  Li  Li15  1  0.30106700  0.33602800  0.35201800  1
  Cr  Cr16  1  0.50000000  0.32865300  0.75000000  1
  Cr  Cr17  1  0.50000000  0.67134700  0.25000000  1
  Cr  Cr18  1  0.00000000  0.82865300  0.75000000  1
  Cr  Cr19  1  0.00000000  0.17134700  0.25000000  1
  O  O20  1  0.18200700  0.82875500  0.65941800  1
  O  O21  1  0.18200700  0.17124500  0.15941800  1
  O  O22  1  0.41133250  0.17907950  0.57247300  1
  O  O23  1  0.41133250  0.82092050  0.07247300  1
  O  O24  1  0.50000000  0.62867800  0.75000000  1
  O  O25  1  0.50000000  0.37132200  0.25000000  1
  O  O26  1  0.58866750  0.17907950  0.92752700  1
  O  O27  1  0.58866750  0.82092050  0.42752700  1
  O  O28  1  0.81799300  0.82875500  0.84058200  1
  O  O29  1  0.81799300  0.17124500  0.34058200  1
  O  O30  1  0.68200700  0.32875500  0.65941800  1
  O  O31  1  0.68200700  0.67124500  0.15941800  1
  O  O32  1  0.91133250  0.67907950  0.57247300  1
  O  O33  1  0.91133250  0.32092050  0.07247300  1
  O  O34  1  0.00000000  0.12867800  0.75000000  1
  O  O35  1  0.00000000  0.87132200  0.25000000  1
  O  O36  1  0.08866750  0.67907950  0.92752700  1
  O  O37  1  0.08866750  0.32092050  0.42752700  1
  O  O38  1  0.31799300  0.32875500  0.84058200  1
  O  O39  1  0.31799300  0.67124500  0.34058200  1
