# generated using pymatgen
data_Na2Ge2O5
_symmetry_space_group_name_H-M   'P 1'
_cell_length_a   5.08702700
_cell_length_b   6.61246200
_cell_length_c   16.30858000
_cell_angle_alpha   90.00000000
_cell_angle_beta   90.00000000
_cell_angle_gamma   90.00000000
_symmetry_Int_Tables_number   1
_chemical_formula_structural   Na2Ge2O5
_chemical_formula_sum   'Na8 Ge8 O20'
_cell_volume   548.58430760
_cell_formula_units_Z   4
loop_
 _symmetry_equiv_pos_site_id
 _symmetry_equiv_pos_as_xyz
  1  'x, y, z'
loop_
 _atom_site_type_symbol
 _atom_site_label
 _atom_site_symmetry_multiplicity
 _atom_site_fract_x
 _atom_site_fract_y
 _atom_site_fract_z
 _atom_site_occupancy
  Na  Na0  1  0.72227500  0.59992200  0.05610700  1
  Na  Na1  1  0.27772500  0.59992200  0.55610700  1
  Na  Na2  1  0.22227500  0.90007800  0.05610700  1
  Na  Na3  1  0.77772500  0.90007800  0.55610700  1
  Na  Na4  1  0.22227500  0.09992200  0.44389300  1
  Na  Na5  1  0.77772500  0.09992200  0.94389300  1
  Na  Na6  1  0.72227500  0.40007800  0.44389300  1
  Na  Na7  1  0.27772500  0.40007800  0.94389300  1
  Ge  Ge8  1  0.19519100  0.60010000  0.34532500  1
  Ge  Ge9  1  0.80480900  0.60010000  0.84532500  1
  Ge  Ge10  1  0.30480900  0.89990000  0.84532500  1
  Ge  Ge11  1  0.69519100  0.89990000  0.34532500  1
  Ge  Ge12  1  0.30480900  0.10010000  0.65467500  1
  Ge  Ge13  1  0.69519100  0.10010000  0.15467500  1
  Ge  Ge14  1  0.19519100  0.39990000  0.15467500  1
  Ge  Ge15  1  0.80480900  0.39990000  0.65467500  1
  O  O16  1  0.29667900  0.50000000  0.25000000  1
  O  O17  1  0.70332100  0.50000000  0.75000000  1
  O  O18  1  0.26388200  0.55562300  0.07238900  1
  O  O19  1  0.73611800  0.55562300  0.57238900  1
  O  O20  1  0.84791100  0.65415800  0.35178300  1
  O  O21  1  0.15208900  0.65415800  0.85178300  1
  O  O22  1  0.34791100  0.84584200  0.35178300  1
  O  O23  1  0.65208900  0.84584200  0.85178300  1
  O  O24  1  0.76388200  0.94437700  0.07238900  1
  O  O25  1  0.23611800  0.94437700  0.57238900  1
  O  O26  1  0.79667900  0.00000000  0.25000000  1
  O  O27  1  0.20332100  0.00000000  0.75000000  1
  O  O28  1  0.76388200  0.05562300  0.42761100  1
  O  O29  1  0.23611800  0.05562300  0.92761100  1
  O  O30  1  0.34791100  0.15415800  0.14821700  1
  O  O31  1  0.65208900  0.15415800  0.64821700  1
  O  O32  1  0.84791100  0.34584200  0.14821700  1
  O  O33  1  0.15208900  0.34584200  0.64821700  1
  O  O34  1  0.26388200  0.44437700  0.42761100  1
  O  O35  1  0.73611800  0.44437700  0.92761100  1
