# generated using pymatgen
data_Li4CuF7
_symmetry_space_group_name_H-M   'P 1'
_cell_length_a   12.26098200
_cell_length_b   8.94074600
_cell_length_c   5.33190542
_cell_angle_alpha   90.00000000
_cell_angle_beta   101.17025808
_cell_angle_gamma   90.00000000
_symmetry_Int_Tables_number   1
_chemical_formula_structural   Li4CuF7
_chemical_formula_sum   'Li16 Cu4 F28'
_cell_volume   573.42309502
_cell_formula_units_Z   4
loop_
 _symmetry_equiv_pos_site_id
 _symmetry_equiv_pos_as_xyz
  1  'x, y, z'
loop_
 _atom_site_type_symbol
 _atom_site_label
 _atom_site_symmetry_multiplicity
 _atom_site_fract_x
 _atom_site_fract_y
 _atom_site_fract_z
 _atom_site_occupancy
  Li  Li0  1  0.14790250  0.90906050  0.80759000  1
  Li  Li1  1  0.14790250  0.09093950  0.30759000  1
  Li  Li2  1  0.36536100  0.93760900  0.25836800  1
  Li  Li3  1  0.36536100  0.06239100  0.75836800  1
  Li  Li4  1  0.63463900  0.93760900  0.24163200  1
  Li  Li5  1  0.63463900  0.06239100  0.74163200  1
  Li  Li6  1  0.85209750  0.90906050  0.69241000  1
  Li  Li7  1  0.85209750  0.09093950  0.19241000  1
  Li  Li8  1  0.64790250  0.40906050  0.80759000  1
  Li  Li9  1  0.64790250  0.59093950  0.30759000  1
  Li  Li10  1  0.86536100  0.43760900  0.25836800  1
  Li  Li11  1  0.86536100  0.56239100  0.75836800  1
  Li  Li12  1  0.13463900  0.43760900  0.24163200  1
  Li  Li13  1  0.13463900  0.56239100  0.74163200  1
  Li  Li14  1  0.35209750  0.40906050  0.69241000  1
  Li  Li15  1  0.35209750  0.59093950  0.19241000  1
  Cu  Cu16  1  0.50000000  0.73797500  0.75000000  1
  Cu  Cu17  1  0.50000000  0.26202500  0.25000000  1
  Cu  Cu18  1  0.00000000  0.23797500  0.75000000  1
  Cu  Cu19  1  0.00000000  0.76202500  0.25000000  1
  F  F20  1  0.40729300  0.59333600  0.86702700  1
  F  F21  1  0.40681350  0.74742750  0.41933300  1
  F  F22  1  0.29597100  0.92230000  0.92428800  1
  F  F23  1  0.29597100  0.07770000  0.42428800  1
  F  F24  1  0.59270700  0.59333600  0.63297300  1
  F  F25  1  0.59318650  0.74742750  0.08066700  1
  F  F26  1  0.50000000  0.94727500  0.75000000  1
  F  F27  1  0.50000000  0.05272500  0.25000000  1
  F  F28  1  0.40681350  0.25257250  0.91933300  1
  F  F29  1  0.40729300  0.40666400  0.36702700  1
  F  F30  1  0.70402900  0.92230000  0.57571200  1
  F  F31  1  0.70402900  0.07770000  0.07571200  1
  F  F32  1  0.59318650  0.25257250  0.58066700  1
  F  F33  1  0.59270700  0.40666400  0.13297300  1
  F  F34  1  0.90729300  0.09333600  0.86702700  1
  F  F35  1  0.90681350  0.24742750  0.41933300  1
  F  F36  1  0.79597100  0.42230000  0.92428800  1
  F  F37  1  0.79597100  0.57770000  0.42428800  1
  F  F38  1  0.09270700  0.09333600  0.63297300  1
  F  F39  1  0.09318650  0.24742750  0.08066700  1
  F  F40  1  0.00000000  0.44727500  0.75000000  1
  F  F41  1  0.00000000  0.55272500  0.25000000  1
  F  F42  1  0.90681350  0.75257250  0.91933300  1
  F  F43  1  0.90729300  0.90666400  0.36702700  1
  F  F44  1  0.20402900  0.42230000  0.57571200  1
  F  F45  1  0.20402900  0.57770000  0.07571200  1
  F  F46  1  0.09318650  0.75257250  0.58066700  1
  F  F47  1  0.09270700  0.90666400  0.13297300  1
