# generated using pymatgen
data_MnCr3(PO4)4
_symmetry_space_group_name_H-M   'P 1'
_cell_length_a   4.80196100
_cell_length_b   5.83754800
_cell_length_c   9.91234839
_cell_angle_alpha   90.00000000
_cell_angle_beta   90.69555369
_cell_angle_gamma   90.00000000
_symmetry_Int_Tables_number   1
_chemical_formula_structural   MnCr3(PO4)4
_chemical_formula_sum   'Mn1 Cr3 P4 O16'
_cell_volume   277.83928257
_cell_formula_units_Z   1
loop_
 _symmetry_equiv_pos_site_id
 _symmetry_equiv_pos_as_xyz
  1  'x, y, z'
loop_
 _atom_site_type_symbol
 _atom_site_label
 _atom_site_symmetry_multiplicity
 _atom_site_fract_x
 _atom_site_fract_y
 _atom_site_fract_z
 _atom_site_occupancy
  Mn  Mn0  1  0.05279800  0.00000000  0.72315300  1
  Cr  Cr1  1  0.47055400  0.00000000  0.22969700  1
  Cr  Cr2  1  0.52894400  0.50000000  0.77304300  1
  Cr  Cr3  1  0.97209400  0.50000000  0.26993700  1
  P  P4  1  0.08283800  0.50000000  0.59330800  1
  P  P5  1  0.41155200  0.50000000  0.09289700  1
  P  P6  1  0.58568400  0.00000000  0.90463900  1
  P  P7  1  0.92040500  0.00000000  0.40632900  1
  O  O8  1  0.16608400  0.50000000  0.44587000  1
  O  O9  1  0.23675300  0.70173800  0.67160400  1
  O  O10  1  0.23675300  0.29826200  0.67160400  1
  O  O11  1  0.23437300  0.00000000  0.39056800  1
  O  O12  1  0.26488300  0.00000000  0.88653500  1
  O  O13  1  0.26496900  0.70418600  0.17267400  1
  O  O14  1  0.26496900  0.29581400  0.17267400  1
  O  O15  1  0.32366900  0.50000000  0.94559600  1
  O  O16  1  0.65741200  0.00000000  0.05475900  1
  O  O17  1  0.72488700  0.20725800  0.83042500  1
  O  O18  1  0.72488700  0.79274200  0.83042500  1
  O  O19  1  0.72655300  0.50000000  0.11016600  1
  O  O20  1  0.76959900  0.50000000  0.61098600  1
  O  O21  1  0.76840500  0.20419600  0.32881400  1
  O  O22  1  0.76840500  0.79580400  0.32881400  1
  O  O23  1  0.84253200  0.00000000  0.55548400  1
