# generated using pymatgen
data_CoH4SeO5
_symmetry_space_group_name_H-M   'P 1'
_cell_length_a   5.94085900
_cell_length_b   11.40509300
_cell_length_c   10.00075508
_cell_angle_alpha   90.00000000
_cell_angle_beta   124.12402344
_cell_angle_gamma   90.00000000
_symmetry_Int_Tables_number   1
_chemical_formula_structural   CoH4SeO5
_chemical_formula_sum   'Co4 H16 Se4 O20'
_cell_volume   560.94399895
_cell_formula_units_Z   4
loop_
 _symmetry_equiv_pos_site_id
 _symmetry_equiv_pos_as_xyz
  1  'x, y, z'
loop_
 _atom_site_type_symbol
 _atom_site_label
 _atom_site_symmetry_multiplicity
 _atom_site_fract_x
 _atom_site_fract_y
 _atom_site_fract_z
 _atom_site_occupancy
  Co  Co0  1  0.27125200  0.92531800  0.09418700  1
  Co  Co1  1  0.27125200  0.57468200  0.59418700  1
  Co  Co2  1  0.72874800  0.07468200  0.90581300  1
  Co  Co3  1  0.72874800  0.42531800  0.40581300  1
  H  H4  1  0.25044100  0.07296200  0.33914100  1
  H  H5  1  0.25044100  0.42703800  0.83914100  1
  H  H6  1  0.74955900  0.92703800  0.66085900  1
  H  H7  1  0.74955900  0.57296200  0.16085900  1
  H  H8  1  0.37569700  0.79733300  0.36308100  1
  H  H9  1  0.37569700  0.70266700  0.86308100  1
  H  H10  1  0.62430300  0.20266700  0.63691900  1
  H  H11  1  0.62430300  0.29733300  0.13691900  1
  H  H12  1  0.60327900  0.89154000  0.42001400  1
  H  H13  1  0.60327900  0.60846000  0.92001400  1
  H  H14  1  0.39672100  0.10846000  0.57998600  1
  H  H15  1  0.39672100  0.39154000  0.07998600  1
  H  H16  1  0.02701800  0.56012000  0.17699900  1
  H  H17  1  0.02701800  0.93988000  0.67699900  1
  H  H18  1  0.97298200  0.43988000  0.82300100  1
  H  H19  1  0.97298200  0.06012000  0.32300100  1
  Se  Se20  1  0.22596300  0.35420400  0.35295800  1
  Se  Se21  1  0.22596300  0.14579600  0.85295800  1
  Se  Se22  1  0.77403700  0.64579600  0.64704200  1
  Se  Se23  1  0.77403700  0.85420400  0.14704200  1
  O  O24  1  0.15077600  0.10355500  0.38284400  1
  O  O25  1  0.15077600  0.39644500  0.88284400  1
  O  O26  1  0.84922400  0.89644500  0.61715600  1
  O  O27  1  0.84922400  0.60355500  0.11715600  1
  O  O28  1  0.86915700  0.91624100  0.02083100  1
  O  O29  1  0.86915700  0.58375900  0.52083100  1
  O  O30  1  0.13084300  0.08375900  0.97916900  1
  O  O31  1  0.13084300  0.41624100  0.47916900  1
  O  O32  1  0.56252400  0.30994900  0.48364600  1
  O  O33  1  0.56252400  0.19005100  0.98364600  1
  O  O34  1  0.43747600  0.69005100  0.51635400  1
  O  O35  1  0.43747600  0.80994900  0.01635400  1
  O  O36  1  0.41667100  0.86976900  0.32450500  1
  O  O37  1  0.41667100  0.63023100  0.82450500  1
  O  O38  1  0.58332900  0.13023100  0.67549500  1
  O  O39  1  0.58332900  0.36976900  0.17549500  1
  O  O40  1  0.69901200  0.52231300  0.71310500  1
  O  O41  1  0.69901200  0.97768700  0.21310500  1
  O  O42  1  0.30098800  0.47768700  0.28689500  1
  O  O43  1  0.30098800  0.02231300  0.78689500  1
