# generated using pymatgen
data_ZnSeO4
_symmetry_space_group_name_H-M   'P 1'
_cell_length_a   4.87042600
_cell_length_b   4.92332100
_cell_length_c   6.17322200
_cell_angle_alpha   90.00000000
_cell_angle_beta   90.00000000
_cell_angle_gamma   90.00000000
_symmetry_Int_Tables_number   1
_chemical_formula_structural   ZnSeO4
_chemical_formula_sum   'Zn2 Se2 O8'
_cell_volume   148.02565691
_cell_formula_units_Z   2
loop_
 _symmetry_equiv_pos_site_id
 _symmetry_equiv_pos_as_xyz
  1  'x, y, z'
loop_
 _atom_site_type_symbol
 _atom_site_label
 _atom_site_symmetry_multiplicity
 _atom_site_fract_x
 _atom_site_fract_y
 _atom_site_fract_z
 _atom_site_occupancy
  Zn  Zn0  1  0.02744200  0.90174300  0.00000000  1
  Zn  Zn1  1  0.52744200  0.09825700  0.50000000  1
  Se  Se2  1  0.47810300  0.34180100  0.00000000  1
  Se  Se3  1  0.97810300  0.65819900  0.50000000  1
  O  O4  1  0.38501300  0.66505500  0.00000000  1
  O  O5  1  0.81646400  0.30249700  0.00000000  1
  O  O6  1  0.33245100  0.17523400  0.78749900  1
  O  O7  1  0.83245100  0.82476600  0.71250100  1
  O  O8  1  0.31646400  0.69750300  0.50000000  1
  O  O9  1  0.88501300  0.33494500  0.50000000  1
  O  O10  1  0.83245100  0.82476600  0.28749900  1
  O  O11  1  0.33245100  0.17523400  0.21250100  1
