# generated using pymatgen
data_CdH4S2O5
_symmetry_space_group_name_H-M   'P 1'
_cell_length_a   5.91578000
_cell_length_b   7.22913600
_cell_length_c   14.30180319
_cell_angle_alpha   90.00000000
_cell_angle_beta   102.01000562
_cell_angle_gamma   90.00000000
_symmetry_Int_Tables_number   1
_chemical_formula_structural   CdH4S2O5
_chemical_formula_sum   'Cd4 H16 S8 O20'
_cell_volume   598.24279090
_cell_formula_units_Z   4
loop_
 _symmetry_equiv_pos_site_id
 _symmetry_equiv_pos_as_xyz
  1  'x, y, z'
loop_
 _atom_site_type_symbol
 _atom_site_label
 _atom_site_symmetry_multiplicity
 _atom_site_fract_x
 _atom_site_fract_y
 _atom_site_fract_z
 _atom_site_occupancy
  Cd  Cd0  1  0.36719200  0.31663400  0.31725700  1
  Cd  Cd1  1  0.36719200  0.18336600  0.81725700  1
  Cd  Cd2  1  0.63280800  0.68336600  0.68274300  1
  Cd  Cd3  1  0.63280800  0.81663400  0.18274300  1
  H  H4  1  0.29164300  0.33723000  0.51629600  1
  H  H5  1  0.29164300  0.16277000  0.01629600  1
  H  H6  1  0.70835700  0.66277000  0.48370400  1
  H  H7  1  0.70835700  0.83723000  0.98370400  1
  H  H8  1  0.76445100  0.33835800  0.48402300  1
  H  H9  1  0.76445100  0.16164200  0.98402300  1
  H  H10  1  0.23554900  0.66164200  0.51597700  1
  H  H11  1  0.23554900  0.83835800  0.01597700  1
  H  H12  1  0.20780100  0.13911400  0.47230900  1
  H  H13  1  0.20780100  0.36088600  0.97230900  1
  H  H14  1  0.79219900  0.86088600  0.52769100  1
  H  H15  1  0.79219900  0.63911400  0.02769100  1
  H  H16  1  0.85740300  0.35210700  0.38932900  1
  H  H17  1  0.85740300  0.14789300  0.88932900  1
  H  H18  1  0.14259700  0.64789300  0.61067100  1
  H  H19  1  0.14259700  0.85210700  0.11067100  1
  S  S20  1  0.49510300  0.96162100  0.32795300  1
  S  S21  1  0.49510300  0.53837900  0.82795300  1
  S  S22  1  0.50489700  0.03837900  0.67204700  1
  S  S23  1  0.50489700  0.46162100  0.17204700  1
  S  S24  1  0.19905900  0.81013700  0.33728900  1
  S  S25  1  0.19905900  0.68986300  0.83728900  1
  S  S26  1  0.80094100  0.18986300  0.66271100  1
  S  S27  1  0.80094100  0.31013700  0.16271100  1
  O  O28  1  0.09540300  0.90479900  0.40840600  1
  O  O29  1  0.09540300  0.59520100  0.90840600  1
  O  O30  1  0.90459700  0.09520100  0.59159400  1
  O  O31  1  0.90459700  0.40479900  0.09159400  1
  O  O32  1  0.04605600  0.80220700  0.24103800  1
  O  O33  1  0.04605600  0.69779300  0.74103800  1
  O  O34  1  0.95394400  0.19779300  0.75896200  1
  O  O35  1  0.95394400  0.30220700  0.25896200  1
  O  O36  1  0.28778800  0.62493700  0.37153100  1
  O  O37  1  0.28778800  0.87506300  0.87153100  1
  O  O38  1  0.71221200  0.37506300  0.62846900  1
  O  O39  1  0.71221200  0.12493700  0.12846900  1
  O  O40  1  0.23034800  0.26982300  0.45716400  1
  O  O41  1  0.23034800  0.23017700  0.95716400  1
  O  O42  1  0.76965200  0.73017700  0.54283600  1
  O  O43  1  0.76965200  0.76982300  0.04283600  1
  O  O44  1  0.72981600  0.39093600  0.41938100  1
  O  O45  1  0.72981600  0.10906400  0.91938100  1
  O  O46  1  0.27018400  0.60906400  0.58061900  1
  O  O47  1  0.27018400  0.89093600  0.08061900  1
