# generated using pymatgen
data_Ti3Mn2P6WO24
_symmetry_space_group_name_H-M   'P 1'
_cell_length_a   8.72917434
_cell_length_b   8.72917434
_cell_length_c   21.42220188
_cell_angle_alpha   90.00000000
_cell_angle_beta   90.00000000
_cell_angle_gamma   120.00000000
_symmetry_Int_Tables_number   1
_chemical_formula_structural   Ti3Mn2P6WO24
_chemical_formula_sum   'Ti9 Mn6 P18 W3 O72'
_cell_volume   1413.64731890
_cell_formula_units_Z   3
loop_
 _symmetry_equiv_pos_site_id
 _symmetry_equiv_pos_as_xyz
  1  'x, y, z'
loop_
 _atom_site_type_symbol
 _atom_site_label
 _atom_site_symmetry_multiplicity
 _atom_site_fract_x
 _atom_site_fract_y
 _atom_site_fract_z
 _atom_site_occupancy
  Ti  Ti0  1  0.00000000  0.00000000  0.35393100  1
  Ti  Ti1  1  0.66666667  0.33333333  0.47856667  1
  Ti  Ti2  1  0.00000000  0.00000000  0.64637567  1
  Ti  Ti3  1  0.66666667  0.33333333  0.68726433  1
  Ti  Ti4  1  0.33333333  0.66666667  0.81190000  1
  Ti  Ti5  1  0.66666667  0.33333333  0.97970900  1
  Ti  Ti6  1  0.33333333  0.66666667  0.02059767  1
  Ti  Ti7  1  0.00000000  0.00000000  0.14523333  1
  Ti  Ti8  1  0.33333333  0.66666667  0.31304233  1
  Mn  Mn9  1  0.66666667  0.33333333  0.33566033  1
  Mn  Mn10  1  0.00000000  0.00000000  0.49896033  1
  Mn  Mn11  1  0.33333333  0.66666667  0.66899367  1
  Mn  Mn12  1  0.66666667  0.33333333  0.83229367  1
  Mn  Mn13  1  0.00000000  0.00000000  0.00232700  1
  Mn  Mn14  1  0.33333333  0.66666667  0.16562700  1
  P  P15  1  0.63057300  0.96338700  0.41550300  1
  P  P16  1  0.03661300  0.66718600  0.41550300  1
  P  P17  1  0.33281400  0.36942700  0.41550300  1
  P  P18  1  0.67195433  0.62700767  0.58401867  1
  P  P19  1  0.95505333  0.32804567  0.58401867  1
  P  P20  1  0.37299233  0.04494667  0.58401867  1
  P  P21  1  0.29723967  0.29672033  0.74883633  1
  P  P22  1  0.70327967  0.00051933  0.74883633  1
  P  P23  1  0.99948067  0.70276033  0.74883633  1
  P  P24  1  0.33862100  0.96034100  0.91735200  1
  P  P25  1  0.62172000  0.66137900  0.91735200  1
  P  P26  1  0.03965900  0.37828000  0.91735200  1
  P  P27  1  0.96390633  0.63005367  0.08216967  1
  P  P28  1  0.36994633  0.33385267  0.08216967  1
  P  P29  1  0.66614733  0.03609367  0.08216967  1
  P  P30  1  0.00528767  0.29367433  0.25068533  1
  P  P31  1  0.28838667  0.99471233  0.25068533  1
  P  P32  1  0.70632567  0.71161333  0.25068533  1
  W  W33  1  0.33333333  0.66666667  0.52487767  1
  W  W34  1  0.00000000  0.00000000  0.85821100  1
  W  W35  1  0.66666667  0.33333333  0.19154433  1
  O  O36  1  0.14230867  0.66675133  0.35711733  1
  O  O37  1  0.33324867  0.47555733  0.35711733  1
  O  O38  1  0.52444267  0.85769133  0.35711733  1
  O  O39  1  0.64914667  0.14986233  0.41074333  1
  O  O40  1  0.54182400  0.87116400  0.47572600  1
  O  O41  1  0.81944367  0.98558033  0.41742333  1
  O  O42  1  0.85013767  0.49928433  0.41074333  1
  O  O43  1  0.01441967  0.83386333  0.41742333  1
  O  O44  1  0.66776733  0.52548767  0.52428267  1
  O  O45  1  0.16613667  0.18055633  0.41742333  1
  O  O46  1  0.50624933  0.64615267  0.59248567  1
  O  O47  1  0.85772033  0.33223267  0.52428267  1
  O  O48  1  0.12883600  0.67066000  0.47572600  1
  O  O49  1  0.50071567  0.35085333  0.41074333  1
  O  O50  1  0.83925767  0.81391833  0.57889133  1
  O  O51  1  0.32934000  0.45817600  0.47572600  1
  O  O52  1  0.97466067  0.16074233  0.57889133  1
  O  O53  1  0.13990333  0.49375067  0.59248567  1
  O  O54  1  0.18608167  0.02533933  0.57889133  1
  O  O55  1  0.47451233  0.14227967  0.52428267  1
  O  O56  1  0.35384733  0.86009667  0.59248567  1
  O  O57  1  0.47496500  0.15070200  0.64212500  1
  O  O58  1  0.67573700  0.52503500  0.64212500  1
  O  O59  1  0.84929800  0.32426300  0.64212500  1
  O  O60  1  0.80897533  0.00008467  0.69045067  1
  O  O61  1  0.99991533  0.80889067  0.69045067  1
  O  O62  1  0.19110933  0.19102467  0.69045067  1
  O  O63  1  0.31581333  0.48319567  0.74407667  1
  O  O64  1  0.20849067  0.20449733  0.80905933  1
  O  O65  1  0.48611033  0.31891367  0.75075667  1
  O  O66  1  0.51680433  0.83261767  0.74407667  1
  O  O67  1  0.68108633  0.16719667  0.75075667  1
  O  O68  1  0.33443400  0.85882100  0.85761600  1
  O  O69  1  0.83280333  0.51388967  0.75075667  1
  O  O70  1  0.17291600  0.97948600  0.92581900  1
  O  O71  1  0.52438700  0.66556600  0.85761600  1
  O  O72  1  0.79550267  0.00399333  0.80905933  1
  O  O73  1  0.16738233  0.68418667  0.74407667  1
  O  O74  1  0.50592433  0.14725167  0.91222467  1
  O  O75  1  0.99600667  0.79150933  0.80905933  1
  O  O76  1  0.64132733  0.49407567  0.91222467  1
  O  O77  1  0.80657000  0.82708400  0.92581900  1
  O  O78  1  0.85274833  0.35867267  0.91222467  1
  O  O79  1  0.14117900  0.47561300  0.85761600  1
  O  O80  1  0.02051400  0.19343000  0.92581900  1
  O  O81  1  0.14163167  0.48403533  0.97545833  1
  O  O82  1  0.34240367  0.85836833  0.97545833  1
  O  O83  1  0.51596467  0.65759633  0.97545833  1
  O  O84  1  0.47564200  0.33341800  0.02378400  1
  O  O85  1  0.66658200  0.14222400  0.02378400  1
  O  O86  1  0.85777600  0.52435800  0.02378400  1
  O  O87  1  0.98248000  0.81652900  0.07741000  1
  O  O88  1  0.87515733  0.53783067  0.14239267  1
  O  O89  1  0.15277700  0.65224700  0.08409000  1
  O  O90  1  0.18347100  0.16595100  0.07741000  1
  O  O91  1  0.34775300  0.50053000  0.08409000  1
  O  O92  1  0.00110067  0.19215433  0.19094933  1
  O  O93  1  0.49947000  0.84722300  0.08409000  1
  O  O94  1  0.83958267  0.31281933  0.25915233  1
  O  O95  1  0.19105367  0.99889933  0.19094933  1
  O  O96  1  0.46216933  0.33732667  0.14239267  1
  O  O97  1  0.83404900  0.01752000  0.07741000  1
  O  O98  1  0.17259100  0.48058500  0.24555800  1
  O  O99  1  0.66267333  0.12484267  0.14239267  1
  O  O100  1  0.30799400  0.82740900  0.24555800  1
  O  O101  1  0.47323667  0.16041733  0.25915233  1
  O  O102  1  0.51941500  0.69200600  0.24555800  1
  O  O103  1  0.80784567  0.80894633  0.19094933  1
  O  O104  1  0.68718067  0.52676333  0.25915233  1
  O  O105  1  0.80829833  0.81736867  0.30879167  1
  O  O106  1  0.00907033  0.19170167  0.30879167  1
  O  O107  1  0.18263133  0.99092967  0.30879167  1
