# generated using pymatgen
data_Ti3NbCo2(PO4)6
_symmetry_space_group_name_H-M   'P 1'
_cell_length_a   8.76146378
_cell_length_b   8.76146378
_cell_length_c   20.84226449
_cell_angle_alpha   90.00000000
_cell_angle_beta   90.00000000
_cell_angle_gamma   120.00000000
_symmetry_Int_Tables_number   1
_chemical_formula_structural   Ti3NbCo2(PO4)6
_chemical_formula_sum   'Ti9 Nb3 Co6 P18 O72'
_cell_volume   1385.57128504
_cell_formula_units_Z   3
loop_
 _symmetry_equiv_pos_site_id
 _symmetry_equiv_pos_as_xyz
  1  'x, y, z'
loop_
 _atom_site_type_symbol
 _atom_site_label
 _atom_site_symmetry_multiplicity
 _atom_site_fract_x
 _atom_site_fract_y
 _atom_site_fract_z
 _atom_site_occupancy
  Ti  Ti0  1  0.33333333  0.66666667  0.80693167  1
  Ti  Ti1  1  0.33333333  0.66666667  0.02649267  1
  Ti  Ti2  1  0.33333333  0.66666667  0.30840667  1
  Ti  Ti3  1  0.00000000  0.00000000  0.14026500  1
  Ti  Ti4  1  0.00000000  0.00000000  0.35982600  1
  Ti  Ti5  1  0.00000000  0.00000000  0.64174000  1
  Ti  Ti6  1  0.66666667  0.33333333  0.47359833  1
  Ti  Ti7  1  0.66666667  0.33333333  0.69315933  1
  Ti  Ti8  1  0.66666667  0.33333333  0.97507333  1
  Nb  Nb9  1  0.33333333  0.66666667  0.52639767  1
  Nb  Nb10  1  0.00000000  0.00000000  0.85973100  1
  Nb  Nb11  1  0.66666667  0.33333333  0.19306433  1
  Co  Co12  1  0.33333333  0.66666667  0.67181667  1
  Co  Co13  1  0.33333333  0.66666667  0.16492767  1
  Co  Co14  1  0.00000000  0.00000000  0.00515000  1
  Co  Co15  1  0.00000000  0.00000000  0.49826100  1
  Co  Co16  1  0.66666667  0.33333333  0.33848333  1
  Co  Co17  1  0.66666667  0.33333333  0.83159433  1
  P  P18  1  0.37288000  0.03966500  0.08200200  1
  P  P19  1  0.66678500  0.62712000  0.08200200  1
  P  P20  1  0.70942933  0.99425167  0.25016267  1
  P  P21  1  0.00574833  0.71517767  0.25016267  1
  P  P22  1  0.28482233  0.29057067  0.25016267  1
  P  P23  1  0.96033500  0.33321500  0.08200200  1
  P  P24  1  0.03954667  0.37299833  0.41533533  1
  P  P25  1  0.33345167  0.96045333  0.41533533  1
  P  P26  1  0.37609600  0.32758500  0.58349600  1
  P  P27  1  0.67241500  0.04851100  0.58349600  1
  P  P28  1  0.95148900  0.62390400  0.58349600  1
  P  P29  1  0.62700167  0.66654833  0.41533533  1
  P  P30  1  0.70621333  0.70633167  0.74866867  1
  P  P31  1  0.00011833  0.29378667  0.74866867  1
  P  P32  1  0.04276267  0.66091833  0.91682933  1
  P  P33  1  0.33908167  0.38184433  0.91682933  1
  P  P34  1  0.61815567  0.95723733  0.91682933  1
  P  P35  1  0.29366833  0.99988167  0.74866867  1
  O  O36  1  0.51848433  0.85757267  0.97727567  1
  O  O37  1  0.14242733  0.66091167  0.97727567  1
  O  O38  1  0.18730533  0.02046567  0.07758067  1
  O  O39  1  0.33908833  0.48151567  0.97727567  1
  O  O40  1  0.46971200  0.13879600  0.14379100  1
  O  O41  1  0.35303900  0.85409400  0.08785800  1
  O  O42  1  0.83316033  0.81269467  0.07758067  1
  O  O43  1  0.50105500  0.64696100  0.08785800  1
  O  O44  1  0.14421733  0.66622567  0.85584467  1
  O  O45  1  0.14590600  0.49894500  0.08785800  1
  O  O46  1  0.68835667  0.16165033  0.25602533  1
  O  O47  1  0.33377433  0.47799167  0.85584467  1
  O  O48  1  0.66908400  0.53028800  0.14379100  1
  O  O49  1  0.97953433  0.16683967  0.07758067  1
  O  O50  1  0.52200533  0.83027567  0.24487667  1
  O  O51  1  0.86120400  0.33091600  0.14379100  1
  O  O52  1  0.16972433  0.69172967  0.24487667  1
  O  O53  1  0.83834967  0.52670633  0.25602533  1
  O  O54  1  0.30827033  0.47799467  0.24487667  1
  O  O55  1  0.52200833  0.85578267  0.85584467  1
  O  O56  1  0.33239867  0.85604033  0.35625933  1
  O  O57  1  0.47329367  0.31164333  0.25602533  1
  O  O58  1  0.52364167  0.66760133  0.35625933  1
  O  O59  1  0.14395967  0.47635833  0.35625933  1
  O  O60  1  0.18515100  0.19090600  0.31060900  1
  O  O61  1  0.80909400  0.99424500  0.31060900  1
  O  O62  1  0.85397200  0.35379900  0.41091400  1
  O  O63  1  0.00575500  0.81484900  0.31060900  1
  O  O64  1  0.13637867  0.47212933  0.47712433  1
  O  O65  1  0.01970567  0.18742733  0.42119133  1
  O  O66  1  0.49982700  0.14602800  0.41091400  1
  O  O67  1  0.16772167  0.98029433  0.42119133  1
  O  O68  1  0.81088400  0.99955900  0.18917800  1
  O  O69  1  0.81257267  0.83227833  0.42119133  1
  O  O70  1  0.35502333  0.49498367  0.58935867  1
  O  O71  1  0.00044100  0.81132500  0.18917800  1
  O  O72  1  0.33575067  0.86362133  0.47712433  1
  O  O73  1  0.64620100  0.50017300  0.41091400  1
  O  O74  1  0.18867200  0.16360900  0.57821000  1
  O  O75  1  0.52787067  0.66424933  0.47712433  1
  O  O76  1  0.83639100  0.02506300  0.57821000  1
  O  O77  1  0.50501633  0.86003967  0.58935867  1
  O  O78  1  0.97493700  0.81132800  0.57821000  1
  O  O79  1  0.18867500  0.18911600  0.18917800  1
  O  O80  1  0.99906533  0.18937367  0.68959267  1
  O  O81  1  0.13996033  0.64497667  0.58935867  1
  O  O82  1  0.19030833  0.00093467  0.68959267  1
  O  O83  1  0.81062633  0.80969167  0.68959267  1
  O  O84  1  0.85181767  0.52423933  0.64394233  1
  O  O85  1  0.47576067  0.32757833  0.64394233  1
  O  O86  1  0.52063867  0.68713233  0.74424733  1
  O  O87  1  0.67242167  0.14818233  0.64394233  1
  O  O88  1  0.80304533  0.80546267  0.81045767  1
  O  O89  1  0.68637233  0.52076067  0.75452467  1
  O  O90  1  0.16649367  0.47936133  0.74424733  1
  O  O91  1  0.83438833  0.31362767  0.75452467  1
  O  O92  1  0.47755067  0.33289233  0.52251133  1
  O  O93  1  0.47923933  0.16561167  0.75452467  1
  O  O94  1  0.02169000  0.82831700  0.92269200  1
  O  O95  1  0.66710767  0.14465833  0.52251133  1
  O  O96  1  0.00241733  0.19695467  0.81045767  1
  O  O97  1  0.31286767  0.83350633  0.74424733  1
  O  O98  1  0.85533867  0.49694233  0.91154333  1
  O  O99  1  0.19453733  0.99758267  0.81045767  1
  O  O100  1  0.50305767  0.35839633  0.91154333  1
  O  O101  1  0.17168300  0.19337300  0.92269200  1
  O  O102  1  0.64160367  0.14466133  0.91154333  1
  O  O103  1  0.85534167  0.52244933  0.52251133  1
  O  O104  1  0.66573200  0.52270700  0.02292600  1
  O  O105  1  0.80662700  0.97831000  0.92269200  1
  O  O106  1  0.85697500  0.33426800  0.02292600  1
  O  O107  1  0.47729300  0.14302500  0.02292600  1
