# generated using pymatgen
data_Al2ZnSe4
_symmetry_space_group_name_H-M   'P 1'
_cell_length_a   5.63194600
_cell_length_b   5.63194600
_cell_length_c   10.99316800
_cell_angle_alpha   90.00000000
_cell_angle_beta   90.00000000
_cell_angle_gamma   90.00000000
_symmetry_Int_Tables_number   1
_chemical_formula_structural   Al2ZnSe4
_chemical_formula_sum   'Al4 Zn2 Se8'
_cell_volume   348.69027027
_cell_formula_units_Z   2
loop_
 _symmetry_equiv_pos_site_id
 _symmetry_equiv_pos_as_xyz
  1  'x, y, z'
loop_
 _atom_site_type_symbol
 _atom_site_label
 _atom_site_symmetry_multiplicity
 _atom_site_fract_x
 _atom_site_fract_y
 _atom_site_fract_z
 _atom_site_occupancy
  Al  Al0  1  0.50000000  0.00000000  0.25000000  1
  Al  Al1  1  0.50000000  0.50000000  0.00000000  1
  Al  Al2  1  0.00000000  0.50000000  0.75000000  1
  Al  Al3  1  0.00000000  0.00000000  0.50000000  1
  Zn  Zn4  1  0.00000000  0.00000000  0.00000000  1
  Zn  Zn5  1  0.50000000  0.50000000  0.50000000  1
  Se  Se6  1  0.76277550  0.25137150  0.36795050  1
  Se  Se7  1  0.24862850  0.26277550  0.13204950  1
  Se  Se8  1  0.75137150  0.73722450  0.13204950  1
  Se  Se9  1  0.23722450  0.74862850  0.36795050  1
  Se  Se10  1  0.26277550  0.75137150  0.86795050  1
  Se  Se11  1  0.74862850  0.76277550  0.63204950  1
  Se  Se12  1  0.25137150  0.23722450  0.63204950  1
  Se  Se13  1  0.73722450  0.24862850  0.86795050  1
