# generated using pymatgen
data_Sc2Si2O7
_symmetry_space_group_name_H-M   'P 1'
_cell_length_a   9.37264000
_cell_length_b   9.37264000
_cell_length_c   9.37264000
_cell_angle_alpha   90.00000000
_cell_angle_beta   90.00000000
_cell_angle_gamma   90.00000000
_symmetry_Int_Tables_number   1
_chemical_formula_structural   Sc2Si2O7
_chemical_formula_sum   'Sc16 Si16 O56'
_cell_volume   823.35250038
_cell_formula_units_Z   8
loop_
 _symmetry_equiv_pos_site_id
 _symmetry_equiv_pos_as_xyz
  1  'x, y, z'
loop_
 _atom_site_type_symbol
 _atom_site_label
 _atom_site_symmetry_multiplicity
 _atom_site_fract_x
 _atom_site_fract_y
 _atom_site_fract_z
 _atom_site_occupancy
  Sc  Sc0  1  0.87500000  0.87500000  0.12500000  1
  Sc  Sc1  1  0.37500000  0.12500000  0.37500000  1
  Sc  Sc2  1  0.62500000  0.87500000  0.37500000  1
  Sc  Sc3  1  0.12500000  0.12500000  0.12500000  1
  Sc  Sc4  1  0.87500000  0.37500000  0.62500000  1
  Sc  Sc5  1  0.37500000  0.62500000  0.87500000  1
  Sc  Sc6  1  0.62500000  0.37500000  0.87500000  1
  Sc  Sc7  1  0.12500000  0.62500000  0.62500000  1
  Sc  Sc8  1  0.37500000  0.87500000  0.62500000  1
  Sc  Sc9  1  0.87500000  0.12500000  0.87500000  1
  Sc  Sc10  1  0.12500000  0.87500000  0.87500000  1
  Sc  Sc11  1  0.62500000  0.12500000  0.62500000  1
  Sc  Sc12  1  0.37500000  0.37500000  0.12500000  1
  Sc  Sc13  1  0.87500000  0.62500000  0.37500000  1
  Sc  Sc14  1  0.12500000  0.37500000  0.37500000  1
  Sc  Sc15  1  0.62500000  0.62500000  0.12500000  1
  Si  Si16  1  0.37500000  0.87500000  0.12500000  1
  Si  Si17  1  0.37500000  0.62500000  0.37500000  1
  Si  Si18  1  0.12500000  0.87500000  0.37500000  1
  Si  Si19  1  0.12500000  0.62500000  0.12500000  1
  Si  Si20  1  0.37500000  0.37500000  0.62500000  1
  Si  Si21  1  0.37500000  0.12500000  0.87500000  1
  Si  Si22  1  0.12500000  0.37500000  0.87500000  1
  Si  Si23  1  0.12500000  0.12500000  0.62500000  1
  Si  Si24  1  0.87500000  0.87500000  0.62500000  1
  Si  Si25  1  0.87500000  0.62500000  0.87500000  1
  Si  Si26  1  0.62500000  0.87500000  0.87500000  1
  Si  Si27  1  0.62500000  0.62500000  0.62500000  1
  Si  Si28  1  0.87500000  0.37500000  0.12500000  1
  Si  Si29  1  0.87500000  0.12500000  0.37500000  1
  Si  Si30  1  0.62500000  0.37500000  0.37500000  1
  Si  Si31  1  0.62500000  0.12500000  0.12500000  1
  O  O32  1  0.25000000  0.94931500  0.25000000  1
  O  O33  1  0.50000000  0.69931500  0.50000000  1
  O  O34  1  0.25000000  0.75000000  0.44931500  1
  O  O35  1  0.44931500  0.75000000  0.25000000  1
  O  O36  1  0.05068500  0.75000000  0.25000000  1
  O  O37  1  0.25000000  0.75000000  0.05068500  1
  O  O38  1  0.00000000  0.00000000  0.30068500  1
  O  O39  1  0.50000000  0.00000000  0.19931500  1
  O  O40  1  0.25000000  0.25000000  0.25000000  1
  O  O41  1  0.50000000  0.00000000  0.50000000  1
  O  O42  1  0.25000000  0.55068500  0.25000000  1
  O  O43  1  0.19931500  0.00000000  0.50000000  1
  O  O44  1  0.80068500  0.00000000  0.50000000  1
  O  O45  1  0.50000000  0.30068500  0.50000000  1
  O  O46  1  0.25000000  0.44931500  0.75000000  1
  O  O47  1  0.50000000  0.19931500  0.00000000  1
  O  O48  1  0.25000000  0.25000000  0.94931500  1
  O  O49  1  0.44931500  0.25000000  0.75000000  1
  O  O50  1  0.05068500  0.25000000  0.75000000  1
  O  O51  1  0.25000000  0.25000000  0.55068500  1
  O  O52  1  0.00000000  0.50000000  0.80068500  1
  O  O53  1  0.50000000  0.50000000  0.69931500  1
  O  O54  1  0.25000000  0.75000000  0.75000000  1
  O  O55  1  0.50000000  0.50000000  0.00000000  1
  O  O56  1  0.25000000  0.05068500  0.75000000  1
  O  O57  1  0.19931500  0.50000000  0.00000000  1
  O  O58  1  0.80068500  0.50000000  0.00000000  1
  O  O59  1  0.50000000  0.80068500  0.00000000  1
  O  O60  1  0.75000000  0.94931500  0.75000000  1
  O  O61  1  0.00000000  0.69931500  0.00000000  1
  O  O62  1  0.75000000  0.75000000  0.94931500  1
  O  O63  1  0.94931500  0.75000000  0.75000000  1
  O  O64  1  0.55068500  0.75000000  0.75000000  1
  O  O65  1  0.75000000  0.75000000  0.55068500  1
  O  O66  1  0.50000000  0.00000000  0.80068500  1
  O  O67  1  0.00000000  0.00000000  0.69931500  1
  O  O68  1  0.75000000  0.25000000  0.75000000  1
  O  O69  1  0.00000000  0.00000000  0.00000000  1
  O  O70  1  0.75000000  0.55068500  0.75000000  1
  O  O71  1  0.69931500  0.00000000  0.00000000  1
  O  O72  1  0.30068500  0.00000000  0.00000000  1
  O  O73  1  0.00000000  0.30068500  0.00000000  1
  O  O74  1  0.75000000  0.44931500  0.25000000  1
  O  O75  1  0.00000000  0.19931500  0.50000000  1
  O  O76  1  0.75000000  0.25000000  0.44931500  1
  O  O77  1  0.94931500  0.25000000  0.25000000  1
  O  O78  1  0.55068500  0.25000000  0.25000000  1
  O  O79  1  0.75000000  0.25000000  0.05068500  1
  O  O80  1  0.50000000  0.50000000  0.30068500  1
  O  O81  1  0.00000000  0.50000000  0.19931500  1
  O  O82  1  0.75000000  0.75000000  0.25000000  1
  O  O83  1  0.00000000  0.50000000  0.50000000  1
  O  O84  1  0.75000000  0.05068500  0.25000000  1
  O  O85  1  0.69931500  0.50000000  0.50000000  1
  O  O86  1  0.30068500  0.50000000  0.50000000  1
  O  O87  1  0.00000000  0.80068500  0.50000000  1
