# generated using pymatgen
data_KRe4O8F13
_symmetry_space_group_name_H-M   'P 1'
_cell_length_a   28.21159600
_cell_length_b   5.42636600
_cell_length_c   5.50963709
_cell_angle_alpha   90.00000000
_cell_angle_beta   99.46507640
_cell_angle_gamma   90.00000000
_symmetry_Int_Tables_number   1
_chemical_formula_structural   KRe4O8F13
_chemical_formula_sum   'K2 Re8 O16 F26'
_cell_volume   831.96803535
_cell_formula_units_Z   2
loop_
 _symmetry_equiv_pos_site_id
 _symmetry_equiv_pos_as_xyz
  1  'x, y, z'
loop_
 _atom_site_type_symbol
 _atom_site_label
 _atom_site_symmetry_multiplicity
 _atom_site_fract_x
 _atom_site_fract_y
 _atom_site_fract_z
 _atom_site_occupancy
  K  K0  1  0.00000000  0.49038300  0.50000000  1
  K  K1  1  0.50000000  0.99038300  0.50000000  1
  Re  Re2  1  0.42373350  0.55027550  0.91580100  1
  Re  Re3  1  0.29922250  0.96318250  0.38353500  1
  Re  Re4  1  0.20077750  0.46318250  0.61646500  1
  Re  Re5  1  0.07626650  0.05027550  0.08419900  1
  Re  Re6  1  0.92373350  0.05027550  0.91580100  1
  Re  Re7  1  0.79922250  0.46318250  0.38353500  1
  Re  Re8  1  0.70077750  0.96318250  0.61646500  1
  Re  Re9  1  0.57626650  0.55027550  0.08419900  1
  O  O10  1  0.41882850  0.72210850  0.17302500  1
  O  O11  1  0.36612650  0.45102150  0.82456300  1
  O  O12  1  0.34210750  0.15678650  0.30693500  1
  O  O13  1  0.32086350  0.68423250  0.31006900  1
  O  O14  1  0.17913650  0.18423250  0.68993100  1
  O  O15  1  0.15789250  0.65678650  0.69306500  1
  O  O16  1  0.13387350  0.95102150  0.17543700  1
  O  O17  1  0.08117150  0.22210850  0.82697500  1
  O  O18  1  0.91882850  0.22210850  0.17302500  1
  O  O19  1  0.86612650  0.95102150  0.82456300  1
  O  O20  1  0.84210750  0.65678650  0.30693500  1
  O  O21  1  0.82086350  0.18423250  0.31006900  1
  O  O22  1  0.67913650  0.68423250  0.68993100  1
  O  O23  1  0.65789250  0.15678650  0.69306500  1
  O  O24  1  0.63387350  0.45102150  0.17543700  1
  O  O25  1  0.58117150  0.72210850  0.82697500  1
  F  F26  1  0.44795100  0.26426900  0.09016000  1
  F  F27  1  0.45171750  0.40416450  0.64602600  1
  F  F28  1  0.42147500  0.83388000  0.71124700  1
  F  F29  1  0.32061050  0.95318150  0.72391500  1
  F  F30  1  0.25253600  0.00350100  0.10431800  1
  F  F31  1  0.26054200  0.27314500  0.49712500  1
  F  F32  1  0.23945800  0.77314500  0.50287500  1
  F  F33  1  0.24746400  0.50350100  0.89568200  1
  F  F34  1  0.17938950  0.45318150  0.27608500  1
  F  F35  1  0.07852500  0.33388000  0.28875300  1
  F  F36  1  0.04828250  0.90416450  0.35397400  1
  F  F37  1  0.05204900  0.76426900  0.90984000  1
  F  F38  1  0.00000000  0.16607000  0.00000000  1
  F  F39  1  0.94795100  0.76426900  0.09016000  1
  F  F40  1  0.95171750  0.90416450  0.64602600  1
  F  F41  1  0.92147500  0.33388000  0.71124700  1
  F  F42  1  0.82061050  0.45318150  0.72391500  1
  F  F43  1  0.75253600  0.50350100  0.10431800  1
  F  F44  1  0.76054200  0.77314500  0.49712500  1
  F  F45  1  0.73945800  0.27314500  0.50287500  1
  F  F46  1  0.74746400  0.00350100  0.89568200  1
  F  F47  1  0.67938950  0.95318150  0.27608500  1
  F  F48  1  0.57852500  0.83388000  0.28875300  1
  F  F49  1  0.54828250  0.40416450  0.35397400  1
  F  F50  1  0.55204900  0.26426900  0.90984000  1
  F  F51  1  0.50000000  0.66607000  0.00000000  1
