# generated using pymatgen
data_ZnPH5C2N4O3
_symmetry_space_group_name_H-M   'P 1'
_cell_length_a   14.76980000
_cell_length_b   10.73202000
_cell_length_c   10.54255304
_cell_angle_alpha   90.00000000
_cell_angle_beta   114.66206906
_cell_angle_gamma   90.00000000
_symmetry_Int_Tables_number   1
_chemical_formula_structural   ZnPH5C2N4O3
_chemical_formula_sum   'Zn8 P8 H40 C16 N32 O24'
_cell_volume   1518.66802249
_cell_formula_units_Z   8
loop_
 _symmetry_equiv_pos_site_id
 _symmetry_equiv_pos_as_xyz
  1  'x, y, z'
loop_
 _atom_site_type_symbol
 _atom_site_label
 _atom_site_symmetry_multiplicity
 _atom_site_fract_x
 _atom_site_fract_y
 _atom_site_fract_z
 _atom_site_occupancy
  Zn  Zn0  1  0.08213100  0.63949100  0.95543500  1
  Zn  Zn1  1  0.91786900  0.63949100  0.54456500  1
  Zn  Zn2  1  0.08213100  0.36050900  0.45543500  1
  Zn  Zn3  1  0.91786900  0.36050900  0.04456500  1
  Zn  Zn4  1  0.58213100  0.13949100  0.95543500  1
  Zn  Zn5  1  0.41786900  0.13949100  0.54456500  1
  Zn  Zn6  1  0.58213100  0.86050900  0.45543500  1
  Zn  Zn7  1  0.41786900  0.86050900  0.04456500  1
  P  P8  1  0.13798700  0.52896600  0.72124800  1
  P  P9  1  0.13798700  0.47103400  0.22124800  1
  P  P10  1  0.86201300  0.52896600  0.77875200  1
  P  P11  1  0.86201300  0.47103400  0.27875200  1
  P  P12  1  0.63798700  0.02896600  0.72124800  1
  P  P13  1  0.63798700  0.97103400  0.22124800  1
  P  P14  1  0.36201300  0.02896600  0.77875200  1
  P  P15  1  0.36201300  0.97103400  0.27875200  1
  H  H16  1  0.38631150  0.47118250  0.90479400  1
  H  H17  1  0.23392500  0.57373300  0.74792800  1
  H  H18  1  0.38631150  0.52881750  0.40479400  1
  H  H19  1  0.10381600  0.80828600  0.60340000  1
  H  H20  1  0.13015500  0.25582700  0.79420300  1
  H  H21  1  0.23392500  0.42626700  0.24792800  1
  H  H22  1  0.11399150  0.31498250  0.93725100  1
  H  H23  1  0.10381600  0.19171400  0.10340000  1
  H  H24  1  0.13015500  0.74417300  0.29420300  1
  H  H25  1  0.88600850  0.31498250  0.56274900  1
  H  H26  1  0.11399150  0.68501750  0.43725100  1
  H  H27  1  0.86984500  0.25582700  0.70579700  1
  H  H28  1  0.89618400  0.80828600  0.89660000  1
  H  H29  1  0.88600850  0.68501750  0.06274900  1
  H  H30  1  0.76607500  0.57373300  0.75207200  1
  H  H31  1  0.86984500  0.74417300  0.20579700  1
  H  H32  1  0.89618400  0.19171400  0.39660000  1
  H  H33  1  0.61368850  0.47118250  0.59520600  1
  H  H34  1  0.76607500  0.42626700  0.25207200  1
  H  H35  1  0.61368850  0.52881750  0.09520600  1
  H  H36  1  0.88631150  0.97118250  0.90479400  1
  H  H37  1  0.73392500  0.07373300  0.74792800  1
  H  H38  1  0.88631150  0.02881750  0.40479400  1
  H  H39  1  0.60381600  0.30828600  0.60340000  1
  H  H40  1  0.63015500  0.75582700  0.79420300  1
  H  H41  1  0.73392500  0.92626700  0.24792800  1
  H  H42  1  0.61399150  0.81498250  0.93725100  1
  H  H43  1  0.60381600  0.69171400  0.10340000  1
  H  H44  1  0.63015500  0.24417300  0.29420300  1
  H  H45  1  0.38600850  0.81498250  0.56274900  1
  H  H46  1  0.61399150  0.18501750  0.43725100  1
  H  H47  1  0.36984500  0.75582700  0.70579700  1
  H  H48  1  0.39618400  0.30828600  0.89660000  1
  H  H49  1  0.38600850  0.18501750  0.06274900  1
  H  H50  1  0.26607500  0.07373300  0.75207200  1
  H  H51  1  0.36984500  0.24417300  0.20579700  1
  H  H52  1  0.39618400  0.69171400  0.39660000  1
  H  H53  1  0.11368850  0.97118250  0.59520600  1
  H  H54  1  0.26607500  0.92626700  0.25207200  1
  H  H55  1  0.11368850  0.02881750  0.09520600  1
  C  C56  1  0.37892450  0.41612950  0.60268200  1
  C  C57  1  0.37892450  0.58387050  0.10268200  1
  C  C58  1  0.11948450  0.12566350  0.93118200  1
  C  C59  1  0.88051550  0.12566350  0.56881800  1
  C  C60  1  0.11948450  0.87433650  0.43118200  1
  C  C61  1  0.88051550  0.87433650  0.06881800  1
  C  C62  1  0.62107550  0.41612950  0.89731800  1
  C  C63  1  0.62107550  0.58387050  0.39731800  1
  C  C64  1  0.87892450  0.91612950  0.60268200  1
  C  C65  1  0.87892450  0.08387050  0.10268200  1
  C  C66  1  0.61948450  0.62566350  0.93118200  1
  C  C67  1  0.38051550  0.62566350  0.56881800  1
  C  C68  1  0.61948450  0.37433650  0.43118200  1
  C  C69  1  0.38051550  0.37433650  0.06881800  1
  C  C70  1  0.12107550  0.91612950  0.89731800  1
  C  C71  1  0.12107550  0.08387050  0.39731800  1
  N  N72  1  0.37367600  0.52705600  0.64430500  1
  N  N73  1  0.37367600  0.47294400  0.14430500  1
  N  N74  1  0.11017500  0.88616800  0.55189000  1
  N  N75  1  0.12103900  0.23979600  0.88334200  1
  N  N76  1  0.11625950  0.81135350  0.92917500  1
  N  N77  1  0.11017500  0.11383200  0.05189000  1
  N  N78  1  0.88374050  0.81135350  0.57082500  1
  N  N79  1  0.12103900  0.76020400  0.38334200  1
  N  N80  1  0.87896100  0.23979600  0.61665800  1
  N  N81  1  0.11625950  0.18864650  0.42917500  1
  N  N82  1  0.88982500  0.88616800  0.94811000  1
  N  N83  1  0.88374050  0.18864650  0.07082500  1
  N  N84  1  0.87896100  0.76020400  0.11665800  1
  N  N85  1  0.88982500  0.11383200  0.44811000  1
  N  N86  1  0.62632400  0.52705600  0.85569500  1
  N  N87  1  0.62632400  0.47294400  0.35569500  1
  N  N88  1  0.87367600  0.02705600  0.64430500  1
  N  N89  1  0.87367600  0.97294400  0.14430500  1
  N  N90  1  0.61017500  0.38616800  0.55189000  1
  N  N91  1  0.62103900  0.73979600  0.88334200  1
  N  N92  1  0.61625950  0.31135350  0.92917500  1
  N  N93  1  0.61017500  0.61383200  0.05189000  1
  N  N94  1  0.38374050  0.31135350  0.57082500  1
  N  N95  1  0.62103900  0.26020400  0.38334200  1
  N  N96  1  0.37896100  0.73979600  0.61665800  1
  N  N97  1  0.61625950  0.68864650  0.42917500  1
  N  N98  1  0.38982500  0.38616800  0.94811000  1
  N  N99  1  0.38374050  0.68864650  0.07082500  1
  N  N100  1  0.37896100  0.26020400  0.11665800  1
  N  N101  1  0.38982500  0.61383200  0.44811000  1
  N  N102  1  0.12632400  0.02705600  0.85569500  1
  N  N103  1  0.12632400  0.97294400  0.35569500  1
  O  O104  1  0.12951700  0.39904400  0.65466300  1
  O  O105  1  0.06704500  0.62797200  0.62234900  1
  O  O106  1  0.13144300  0.51666000  0.86245400  1
  O  O107  1  0.12951700  0.60095600  0.15466300  1
  O  O108  1  0.06704500  0.37202800  0.12234900  1
  O  O109  1  0.13144300  0.48334000  0.36245400  1
  O  O110  1  0.86855700  0.51666000  0.63754600  1
  O  O111  1  0.93295500  0.62797200  0.87765100  1
  O  O112  1  0.87048300  0.39904400  0.84533700  1
  O  O113  1  0.86855700  0.48334000  0.13754600  1
  O  O114  1  0.93295500  0.37202800  0.37765100  1
  O  O115  1  0.87048300  0.60095600  0.34533700  1
  O  O116  1  0.62951700  0.89904400  0.65466300  1
  O  O117  1  0.56704500  0.12797200  0.62234900  1
  O  O118  1  0.63144300  0.01666000  0.86245400  1
  O  O119  1  0.62951700  0.10095600  0.15466300  1
  O  O120  1  0.56704500  0.87202800  0.12234900  1
  O  O121  1  0.63144300  0.98334000  0.36245400  1
  O  O122  1  0.36855700  0.01666000  0.63754600  1
  O  O123  1  0.43295500  0.12797200  0.87765100  1
  O  O124  1  0.37048300  0.89904400  0.84533700  1
  O  O125  1  0.36855700  0.98334000  0.13754600  1
  O  O126  1  0.43295500  0.87202800  0.37765100  1
  O  O127  1  0.37048300  0.10095600  0.34533700  1
