# generated using pymatgen
data_MoO2
_symmetry_space_group_name_H-M   'P 1'
_cell_length_a   5.69340400
_cell_length_b   3.12489800
_cell_length_c   5.07224880
_cell_angle_alpha   90.00000000
_cell_angle_beta   112.77714363
_cell_angle_gamma   90.00000000
_symmetry_Int_Tables_number   1
_chemical_formula_structural   MoO2
_chemical_formula_sum   'Mo2 O4'
_cell_volume   83.20465776
_cell_formula_units_Z   2
loop_
 _symmetry_equiv_pos_site_id
 _symmetry_equiv_pos_as_xyz
  1  'x, y, z'
loop_
 _atom_site_type_symbol
 _atom_site_label
 _atom_site_symmetry_multiplicity
 _atom_site_fract_x
 _atom_site_fract_y
 _atom_site_fract_z
 _atom_site_occupancy
  Mo  Mo0  1  0.00000000  0.00000000  0.00000000  1
  Mo  Mo1  1  0.50000000  0.50000000  0.00000000  1
  O  O2  1  0.73539000  0.00000000  0.20977900  1
  O  O3  1  0.26461000  0.00000000  0.79022100  1
  O  O4  1  0.23539000  0.50000000  0.20977900  1
  O  O5  1  0.76461000  0.50000000  0.79022100  1
