# generated using pymatgen
data_Li2FeF6
_symmetry_space_group_name_H-M   'P 1'
_cell_length_a   4.98890800
_cell_length_b   8.69645600
_cell_length_c   4.48559068
_cell_angle_alpha   90.00000000
_cell_angle_beta   93.13050403
_cell_angle_gamma   90.00000000
_symmetry_Int_Tables_number   1
_chemical_formula_structural   Li2FeF6
_chemical_formula_sum   'Li4 Fe2 F12'
_cell_volume   194.32061416
_cell_formula_units_Z   2
loop_
 _symmetry_equiv_pos_site_id
 _symmetry_equiv_pos_as_xyz
  1  'x, y, z'
loop_
 _atom_site_type_symbol
 _atom_site_label
 _atom_site_symmetry_multiplicity
 _atom_site_fract_x
 _atom_site_fract_y
 _atom_site_fract_z
 _atom_site_occupancy
  Li  Li0  1  0.00000000  0.68238500  0.50000000  1
  Li  Li1  1  0.50000000  0.81761500  0.50000000  1
  Li  Li2  1  0.50000000  0.18238500  0.50000000  1
  Li  Li3  1  0.00000000  0.31761500  0.50000000  1
  Fe  Fe4  1  0.00000000  0.00000000  0.00000000  1
  Fe  Fe5  1  0.50000000  0.50000000  0.00000000  1
  F  F6  1  0.66414250  0.65535750  0.25259600  1
  F  F7  1  0.83585750  0.84464250  0.74740400  1
  F  F8  1  0.16414250  0.84464250  0.25259600  1
  F  F9  1  0.29218600  0.00000000  0.77808800  1
  F  F10  1  0.33585750  0.65535750  0.74740400  1
  F  F11  1  0.70781400  0.00000000  0.22191200  1
  F  F12  1  0.16414250  0.15535750  0.25259600  1
  F  F13  1  0.33585750  0.34464250  0.74740400  1
  F  F14  1  0.66414250  0.34464250  0.25259600  1
  F  F15  1  0.79218600  0.50000000  0.77808800  1
  F  F16  1  0.83585750  0.15535750  0.74740400  1
  F  F17  1  0.20781400  0.50000000  0.22191200  1
