# generated using pymatgen
data_Sr3GaN3
_symmetry_space_group_name_H-M   'P 1'
_cell_length_a   7.62718016
_cell_length_b   7.62718016
_cell_length_c   5.44643300
_cell_angle_alpha   90.00000000
_cell_angle_beta   90.00000000
_cell_angle_gamma   120.00000000
_symmetry_Int_Tables_number   1
_chemical_formula_structural   Sr3GaN3
_chemical_formula_sum   'Sr6 Ga2 N6'
_cell_volume   274.39159647
_cell_formula_units_Z   2
loop_
 _symmetry_equiv_pos_site_id
 _symmetry_equiv_pos_as_xyz
  1  'x, y, z'
loop_
 _atom_site_type_symbol
 _atom_site_label
 _atom_site_symmetry_multiplicity
 _atom_site_fract_x
 _atom_site_fract_y
 _atom_site_fract_z
 _atom_site_occupancy
  Sr  Sr0  1  0.71340600  0.07117100  0.25000000  1
  Sr  Sr1  1  0.64223500  0.71340600  0.75000000  1
  Sr  Sr2  1  0.07117100  0.35776500  0.75000000  1
  Sr  Sr3  1  0.92882900  0.64223500  0.25000000  1
  Sr  Sr4  1  0.35776500  0.28659400  0.25000000  1
  Sr  Sr5  1  0.28659400  0.92882900  0.75000000  1
  Ga  Ga6  1  0.66666667  0.33333333  0.75000000  1
  Ga  Ga7  1  0.33333333  0.66666667  0.25000000  1
  N  N8  1  0.59843500  0.69352600  0.25000000  1
  N  N9  1  0.90490900  0.59843500  0.75000000  1
  N  N10  1  0.69352600  0.09509100  0.75000000  1
  N  N11  1  0.30647400  0.90490900  0.25000000  1
  N  N12  1  0.09509100  0.40156500  0.25000000  1
  N  N13  1  0.40156500  0.30647400  0.75000000  1
