# generated using pymatgen
data_Na5Bi2As(CO4)4
_symmetry_space_group_name_H-M   'P 1'
_cell_length_a   14.69667000
_cell_length_b   14.76371000
_cell_length_c   15.02740000
_cell_angle_alpha   90.00000000
_cell_angle_beta   90.00000000
_cell_angle_gamma   90.00000000
_symmetry_Int_Tables_number   1
_chemical_formula_structural   Na5Bi2As(CO4)4
_chemical_formula_sum   'Na40 Bi16 As8 C32 O128'
_cell_volume   3260.60578773
_cell_formula_units_Z   8
loop_
 _symmetry_equiv_pos_site_id
 _symmetry_equiv_pos_as_xyz
  1  'x, y, z'
loop_
 _atom_site_type_symbol
 _atom_site_label
 _atom_site_symmetry_multiplicity
 _atom_site_fract_x
 _atom_site_fract_y
 _atom_site_fract_z
 _atom_site_occupancy
  Na  Na0  1  0.50467400  0.69479200  0.37797600  1
  Na  Na1  1  0.94527550  0.24537700  0.12725950  1
  Na  Na2  1  0.05472450  0.75462300  0.12725950  1
  Na  Na3  1  0.74532600  0.44479200  0.12797600  1
  Na  Na4  1  0.69527550  0.50462300  0.37725950  1
  Na  Na5  1  0.49532600  0.30520800  0.37797600  1
  Na  Na6  1  0.30472450  0.49537700  0.37725950  1
  Na  Na7  1  0.25000000  0.75000000  0.31871700  1
  Na  Na8  1  0.25467400  0.55520800  0.12797600  1
  Na  Na9  1  0.00000000  0.50000000  0.06871700  1
  Na  Na10  1  0.50467400  0.19479200  0.87797600  1
  Na  Na11  1  0.94527550  0.74537700  0.62725950  1
  Na  Na12  1  0.05472450  0.25462300  0.62725950  1
  Na  Na13  1  0.74532600  0.94479200  0.62797600  1
  Na  Na14  1  0.69527550  0.00462300  0.87725950  1
  Na  Na15  1  0.49532600  0.80520800  0.87797600  1
  Na  Na16  1  0.30472450  0.99537700  0.87725950  1
  Na  Na17  1  0.25000000  0.25000000  0.81871700  1
  Na  Na18  1  0.25467400  0.05520800  0.62797600  1
  Na  Na19  1  0.00000000  0.00000000  0.56871700  1
  Na  Na20  1  0.00467400  0.69479200  0.87797600  1
  Na  Na21  1  0.44527550  0.24537700  0.62725950  1
  Na  Na22  1  0.55472450  0.75462300  0.62725950  1
  Na  Na23  1  0.24532600  0.44479200  0.62797600  1
  Na  Na24  1  0.19527550  0.50462300  0.87725950  1
  Na  Na25  1  0.99532600  0.30520800  0.87797600  1
  Na  Na26  1  0.80472450  0.49537700  0.87725950  1
  Na  Na27  1  0.75000000  0.75000000  0.81871700  1
  Na  Na28  1  0.75467400  0.55520800  0.62797600  1
  Na  Na29  1  0.50000000  0.50000000  0.56871700  1
  Na  Na30  1  0.00467400  0.19479200  0.37797600  1
  Na  Na31  1  0.44527550  0.74537700  0.12725950  1
  Na  Na32  1  0.55472450  0.25462300  0.12725950  1
  Na  Na33  1  0.24532600  0.94479200  0.12797600  1
  Na  Na34  1  0.19527550  0.00462300  0.37725950  1
  Na  Na35  1  0.99532600  0.80520800  0.37797600  1
  Na  Na36  1  0.80472450  0.99537700  0.37725950  1
  Na  Na37  1  0.75000000  0.25000000  0.31871700  1
  Na  Na38  1  0.75467400  0.05520800  0.12797600  1
  Na  Na39  1  0.50000000  0.00000000  0.06871700  1
  Bi  Bi40  1  0.37724100  0.37844300  0.00244500  1
  Bi  Bi41  1  0.12724100  0.37155700  0.25244500  1
  Bi  Bi42  1  0.12275900  0.12155700  0.00244500  1
  Bi  Bi43  1  0.37275900  0.12844300  0.25244500  1
  Bi  Bi44  1  0.37724100  0.87844300  0.50244500  1
  Bi  Bi45  1  0.12724100  0.87155700  0.75244500  1
  Bi  Bi46  1  0.12275900  0.62155700  0.50244500  1
  Bi  Bi47  1  0.37275900  0.62844300  0.75244500  1
  Bi  Bi48  1  0.87724100  0.37844300  0.50244500  1
  Bi  Bi49  1  0.62724100  0.37155700  0.75244500  1
  Bi  Bi50  1  0.62275900  0.12155700  0.50244500  1
  Bi  Bi51  1  0.87275900  0.12844300  0.75244500  1
  Bi  Bi52  1  0.87724100  0.87844300  0.00244500  1
  Bi  Bi53  1  0.62724100  0.87155700  0.25244500  1
  Bi  Bi54  1  0.62275900  0.62155700  0.00244500  1
  Bi  Bi55  1  0.87275900  0.62844300  0.25244500  1
  As  As56  1  0.25000000  0.75000000  0.12534800  1
  As  As57  1  0.50000000  0.50000000  0.37534800  1
  As  As58  1  0.25000000  0.25000000  0.62534800  1
  As  As59  1  0.50000000  0.00000000  0.87534800  1
  As  As60  1  0.75000000  0.75000000  0.62534800  1
  As  As61  1  0.00000000  0.50000000  0.87534800  1
  As  As62  1  0.75000000  0.25000000  0.12534800  1
  As  As63  1  0.00000000  0.00000000  0.37534800  1
  C  C64  1  0.34779450  0.34635050  0.21877400  1
  C  C65  1  0.15220550  0.15364950  0.21877400  1
  C  C66  1  0.15364800  0.34574050  0.02948950  1
  C  C67  1  0.84635200  0.65425950  0.02948950  1
  C  C68  1  0.09779450  0.40364950  0.46877400  1
  C  C69  1  0.40220550  0.09635050  0.46877400  1
  C  C70  1  0.90364800  0.40425950  0.27948950  1
  C  C71  1  0.09635200  0.59574050  0.27948950  1
  C  C72  1  0.34779450  0.84635050  0.71877400  1
  C  C73  1  0.15220550  0.65364950  0.71877400  1
  C  C74  1  0.15364800  0.84574050  0.52948950  1
  C  C75  1  0.84635200  0.15425950  0.52948950  1
  C  C76  1  0.09779450  0.90364950  0.96877400  1
  C  C77  1  0.40220550  0.59635050  0.96877400  1
  C  C78  1  0.90364800  0.90425950  0.77948950  1
  C  C79  1  0.09635200  0.09574050  0.77948950  1
  C  C80  1  0.84779450  0.34635050  0.71877400  1
  C  C81  1  0.65220550  0.15364950  0.71877400  1
  C  C82  1  0.65364800  0.34574050  0.52948950  1
  C  C83  1  0.34635200  0.65425950  0.52948950  1
  C  C84  1  0.59779450  0.40364950  0.96877400  1
  C  C85  1  0.90220550  0.09635050  0.96877400  1
  C  C86  1  0.40364800  0.40425950  0.77948950  1
  C  C87  1  0.59635200  0.59574050  0.77948950  1
  C  C88  1  0.84779450  0.84635050  0.21877400  1
  C  C89  1  0.65220550  0.65364950  0.21877400  1
  C  C90  1  0.65364800  0.84574050  0.02948950  1
  C  C91  1  0.34635200  0.15425950  0.02948950  1
  C  C92  1  0.59779450  0.90364950  0.46877400  1
  C  C93  1  0.90220550  0.59635050  0.46877400  1
  C  C94  1  0.40364800  0.90425950  0.27948950  1
  C  C95  1  0.59635200  0.09574050  0.27948950  1
  O  O96  1  0.53396250  0.84278450  0.47511400  1
  O  O97  1  0.35674100  0.28509200  0.28012700  1
  O  O98  1  0.14325900  0.21490800  0.28012700  1
  O  O99  1  0.96881100  0.34442300  0.27228300  1
  O  O100  1  0.21603750  0.09278450  0.22511400  1
  O  O101  1  0.31772000  0.68273200  0.19387700  1
  O  O102  1  0.18228000  0.81726800  0.19387700  1
  O  O103  1  0.09670400  0.15393700  0.15116800  1
  O  O104  1  0.40329600  0.34606300  0.15116800  1
  O  O105  1  0.09460950  0.35315900  0.09369650  1
  O  O106  1  0.90539050  0.64684100  0.09369650  1
  O  O107  1  0.17902500  0.67887550  0.06727950  1
  O  O108  1  0.82097500  0.32112450  0.06727950  1
  O  O109  1  0.60674100  0.46490800  0.03012700  1
  O  O110  1  0.39325900  0.53509200  0.03012700  1
  O  O111  1  0.78118900  0.59442300  0.02228300  1
  O  O112  1  0.46603750  0.15721550  0.47511400  1
  O  O113  1  0.35272000  0.71972450  0.47186450  1
  O  O114  1  0.64728000  0.28027550  0.47186450  1
  O  O115  1  0.56772000  0.56726800  0.44387700  1
  O  O116  1  0.43228000  0.43273200  0.44387700  1
  O  O117  1  0.34670400  0.09606300  0.40116800  1
  O  O118  1  0.15329600  0.40393700  0.40116800  1
  O  O119  1  0.34460950  0.89684100  0.34369650  1
  O  O120  1  0.15539050  0.60315900  0.34369650  1
  O  O121  1  0.57097500  0.42887550  0.31727950  1
  O  O122  1  0.42902500  0.57112450  0.31727950  1
  O  O123  1  0.03118900  0.65557700  0.27228300  1
  O  O124  1  0.28396250  0.40721550  0.22511400  1
  O  O125  1  0.10272000  0.53027550  0.22186450  1
  O  O126  1  0.89728000  0.46972450  0.22186450  1
  O  O127  1  0.21881100  0.40557700  0.02228300  1
  O  O128  1  0.53396250  0.34278450  0.97511400  1
  O  O129  1  0.35674100  0.78509200  0.78012700  1
  O  O130  1  0.14325900  0.71490800  0.78012700  1
  O  O131  1  0.96881100  0.84442300  0.77228300  1
  O  O132  1  0.21603750  0.59278450  0.72511400  1
  O  O133  1  0.31772000  0.18273200  0.69387700  1
  O  O134  1  0.18228000  0.31726800  0.69387700  1
  O  O135  1  0.09670400  0.65393700  0.65116800  1
  O  O136  1  0.40329600  0.84606300  0.65116800  1
  O  O137  1  0.09460950  0.85315900  0.59369650  1
  O  O138  1  0.90539050  0.14684100  0.59369650  1
  O  O139  1  0.17902500  0.17887550  0.56727950  1
  O  O140  1  0.82097500  0.82112450  0.56727950  1
  O  O141  1  0.60674100  0.96490800  0.53012700  1
  O  O142  1  0.39325900  0.03509200  0.53012700  1
  O  O143  1  0.78118900  0.09442300  0.52228300  1
  O  O144  1  0.46603750  0.65721550  0.97511400  1
  O  O145  1  0.35272000  0.21972450  0.97186450  1
  O  O146  1  0.64728000  0.78027550  0.97186450  1
  O  O147  1  0.56772000  0.06726800  0.94387700  1
  O  O148  1  0.43228000  0.93273200  0.94387700  1
  O  O149  1  0.34670400  0.59606300  0.90116800  1
  O  O150  1  0.15329600  0.90393700  0.90116800  1
  O  O151  1  0.34460950  0.39684100  0.84369650  1
  O  O152  1  0.15539050  0.10315900  0.84369650  1
  O  O153  1  0.57097500  0.92887550  0.81727950  1
  O  O154  1  0.42902500  0.07112450  0.81727950  1
  O  O155  1  0.03118900  0.15557700  0.77228300  1
  O  O156  1  0.28396250  0.90721550  0.72511400  1
  O  O157  1  0.10272000  0.03027550  0.72186450  1
  O  O158  1  0.89728000  0.96972450  0.72186450  1
  O  O159  1  0.21881100  0.90557700  0.52228300  1
  O  O160  1  0.03396250  0.84278450  0.97511400  1
  O  O161  1  0.85674100  0.28509200  0.78012700  1
  O  O162  1  0.64325900  0.21490800  0.78012700  1
  O  O163  1  0.46881100  0.34442300  0.77228300  1
  O  O164  1  0.71603750  0.09278450  0.72511400  1
  O  O165  1  0.81772000  0.68273200  0.69387700  1
  O  O166  1  0.68228000  0.81726800  0.69387700  1
  O  O167  1  0.59670400  0.15393700  0.65116800  1
  O  O168  1  0.90329600  0.34606300  0.65116800  1
  O  O169  1  0.59460950  0.35315900  0.59369650  1
  O  O170  1  0.40539050  0.64684100  0.59369650  1
  O  O171  1  0.67902500  0.67887550  0.56727950  1
  O  O172  1  0.32097500  0.32112450  0.56727950  1
  O  O173  1  0.10674100  0.46490800  0.53012700  1
  O  O174  1  0.89325900  0.53509200  0.53012700  1
  O  O175  1  0.28118900  0.59442300  0.52228300  1
  O  O176  1  0.96603750  0.15721550  0.97511400  1
  O  O177  1  0.85272000  0.71972450  0.97186450  1
  O  O178  1  0.14728000  0.28027550  0.97186450  1
  O  O179  1  0.06772000  0.56726800  0.94387700  1
  O  O180  1  0.93228000  0.43273200  0.94387700  1
  O  O181  1  0.84670400  0.09606300  0.90116800  1
  O  O182  1  0.65329600  0.40393700  0.90116800  1
  O  O183  1  0.84460950  0.89684100  0.84369650  1
  O  O184  1  0.65539050  0.60315900  0.84369650  1
  O  O185  1  0.07097500  0.42887550  0.81727950  1
  O  O186  1  0.92902500  0.57112450  0.81727950  1
  O  O187  1  0.53118900  0.65557700  0.77228300  1
  O  O188  1  0.78396250  0.40721550  0.72511400  1
  O  O189  1  0.60272000  0.53027550  0.72186450  1
  O  O190  1  0.39728000  0.46972450  0.72186450  1
  O  O191  1  0.71881100  0.40557700  0.52228300  1
  O  O192  1  0.03396250  0.34278450  0.47511400  1
  O  O193  1  0.85674100  0.78509200  0.28012700  1
  O  O194  1  0.64325900  0.71490800  0.28012700  1
  O  O195  1  0.46881100  0.84442300  0.27228300  1
  O  O196  1  0.71603750  0.59278450  0.22511400  1
  O  O197  1  0.81772000  0.18273200  0.19387700  1
  O  O198  1  0.68228000  0.31726800  0.19387700  1
  O  O199  1  0.59670400  0.65393700  0.15116800  1
  O  O200  1  0.90329600  0.84606300  0.15116800  1
  O  O201  1  0.59460950  0.85315900  0.09369650  1
  O  O202  1  0.40539050  0.14684100  0.09369650  1
  O  O203  1  0.67902500  0.17887550  0.06727950  1
  O  O204  1  0.32097500  0.82112450  0.06727950  1
  O  O205  1  0.10674100  0.96490800  0.03012700  1
  O  O206  1  0.89325900  0.03509200  0.03012700  1
  O  O207  1  0.28118900  0.09442300  0.02228300  1
  O  O208  1  0.96603750  0.65721550  0.47511400  1
  O  O209  1  0.85272000  0.21972450  0.47186450  1
  O  O210  1  0.14728000  0.78027550  0.47186450  1
  O  O211  1  0.06772000  0.06726800  0.44387700  1
  O  O212  1  0.93228000  0.93273200  0.44387700  1
  O  O213  1  0.84670400  0.59606300  0.40116800  1
  O  O214  1  0.65329600  0.90393700  0.40116800  1
  O  O215  1  0.84460950  0.39684100  0.34369650  1
  O  O216  1  0.65539050  0.10315900  0.34369650  1
  O  O217  1  0.07097500  0.92887550  0.31727950  1
  O  O218  1  0.92902500  0.07112450  0.31727950  1
  O  O219  1  0.53118900  0.15557700  0.27228300  1
  O  O220  1  0.78396250  0.90721550  0.22511400  1
  O  O221  1  0.60272000  0.03027550  0.22186450  1
  O  O222  1  0.39728000  0.96972450  0.22186450  1
  O  O223  1  0.71881100  0.90557700  0.02228300  1
