# generated using pymatgen
data_Na2SbAu
_symmetry_space_group_name_H-M   'P 1'
_cell_length_a   7.59498400
_cell_length_b   9.39173200
_cell_length_c   5.92943100
_cell_angle_alpha   90.00000000
_cell_angle_beta   90.00000000
_cell_angle_gamma   90.00000000
_symmetry_Int_Tables_number   1
_chemical_formula_structural   Na2SbAu
_chemical_formula_sum   'Na8 Sb4 Au4'
_cell_volume   422.94663503
_cell_formula_units_Z   4
loop_
 _symmetry_equiv_pos_site_id
 _symmetry_equiv_pos_as_xyz
  1  'x, y, z'
loop_
 _atom_site_type_symbol
 _atom_site_label
 _atom_site_symmetry_multiplicity
 _atom_site_fract_x
 _atom_site_fract_y
 _atom_site_fract_z
 _atom_site_occupancy
  Na  Na0  1  0.33596300  0.67955400  0.25000000  1
  Na  Na1  1  0.66403700  0.32044600  0.75000000  1
  Na  Na2  1  0.33596300  0.32044600  0.25000000  1
  Na  Na3  1  0.66403700  0.67955400  0.75000000  1
  Na  Na4  1  0.83596300  0.17955400  0.25000000  1
  Na  Na5  1  0.16403700  0.82044600  0.75000000  1
  Na  Na6  1  0.83596300  0.82044600  0.25000000  1
  Na  Na7  1  0.16403700  0.17955400  0.75000000  1
  Sb  Sb8  1  0.79812600  0.00000000  0.75000000  1
  Sb  Sb9  1  0.20187400  0.00000000  0.25000000  1
  Sb  Sb10  1  0.29812600  0.50000000  0.75000000  1
  Sb  Sb11  1  0.70187400  0.50000000  0.25000000  1
  Au  Au12  1  0.50000000  0.00000000  0.50000000  1
  Au  Au13  1  0.50000000  0.00000000  0.00000000  1
  Au  Au14  1  0.00000000  0.50000000  0.50000000  1
  Au  Au15  1  0.00000000  0.50000000  0.00000000  1
