# generated using pymatgen
data_V3(PO4)2
_symmetry_space_group_name_H-M   'P 1'
_cell_length_a   5.31914231
_cell_length_b   8.53655057
_cell_length_c   9.39335982
_cell_angle_alpha   90.00000000
_cell_angle_beta   123.45299452
_cell_angle_gamma   90.00000000
_symmetry_Int_Tables_number   1
_chemical_formula_structural   V3(PO4)2
_chemical_formula_sum   'V6 P4 O16'
_cell_volume   355.86656998
_cell_formula_units_Z   2
loop_
 _symmetry_equiv_pos_site_id
 _symmetry_equiv_pos_as_xyz
  1  'x, y, z'
loop_
 _atom_site_type_symbol
 _atom_site_label
 _atom_site_symmetry_multiplicity
 _atom_site_fract_x
 _atom_site_fract_y
 _atom_site_fract_z
 _atom_site_occupancy
  V  V0  1  0.00000000  0.00000000  0.00000000  1
  V  V1  1  0.00000000  0.50000000  0.50000000  1
  V  V2  1  0.99468850  0.64216200  0.88638600  1
  V  V3  1  0.00531150  0.35783800  0.11361400  1
  V  V4  1  0.99468850  0.85783800  0.38638600  1
  V  V5  1  0.00531150  0.14216200  0.61361400  1
  P  P6  1  0.66275650  0.30348600  0.69939500  1
  P  P7  1  0.33724350  0.80348600  0.80060500  1
  P  P8  1  0.66275650  0.19651400  0.19939500  1
  P  P9  1  0.33724350  0.69651400  0.30060500  1
  O  O10  1  0.80970850  0.41641700  0.85364800  1
  O  O11  1  0.19029150  0.91641700  0.64635200  1
  O  O12  1  0.80970850  0.08358300  0.35364800  1
  O  O13  1  0.19029150  0.58358300  0.14635200  1
  O  O14  1  0.19878450  0.86458000  0.24063000  1
  O  O15  1  0.80121550  0.36458000  0.25937000  1
  O  O16  1  0.19878450  0.63542000  0.74063000  1
  O  O17  1  0.80121550  0.13542000  0.75937000  1
  O  O18  1  0.68220150  0.80143700  0.88676200  1
  O  O19  1  0.31779850  0.30143700  0.61323800  1
  O  O20  1  0.68220150  0.69856300  0.38676200  1
  O  O21  1  0.31779850  0.19856300  0.11323800  1
  O  O22  1  0.25532150  0.64659000  0.42988900  1
  O  O23  1  0.74467850  0.14659000  0.07011100  1
  O  O24  1  0.25532150  0.85341000  0.92988900  1
  O  O25  1  0.74467850  0.35341000  0.57011100  1
