# generated using pymatgen
data_Zr6O11
_symmetry_space_group_name_H-M   'P 1'
_cell_length_a   3.63388200
_cell_length_b   3.63705300
_cell_length_c   15.77837300
_cell_angle_alpha   90.00000000
_cell_angle_beta   90.00000000
_cell_angle_gamma   90.00000000
_symmetry_Int_Tables_number   1
_chemical_formula_structural   Zr6O11
_chemical_formula_sum   'Zr6 O11'
_cell_volume   208.53678272
_cell_formula_units_Z   1
loop_
 _symmetry_equiv_pos_site_id
 _symmetry_equiv_pos_as_xyz
  1  'x, y, z'
loop_
 _atom_site_type_symbol
 _atom_site_label
 _atom_site_symmetry_multiplicity
 _atom_site_fract_x
 _atom_site_fract_y
 _atom_site_fract_z
 _atom_site_occupancy
  Zr  Zr0  1  0.00000000  0.50000000  0.07566100  1
  Zr  Zr1  1  0.00000000  0.50000000  0.41089600  1
  Zr  Zr2  1  0.00000000  0.50000000  0.74545500  1
  Zr  Zr3  1  0.50000000  0.00000000  0.24314300  1
  Zr  Zr4  1  0.50000000  0.00000000  0.57867100  1
  Zr  Zr5  1  0.50000000  0.00000000  0.91096900  1
  O  O6  1  0.00000000  0.00000000  0.13797500  1
  O  O7  1  0.00000000  0.00000000  0.64468600  1
  O  O8  1  0.00000000  0.00000000  0.47695800  1
  O  O9  1  0.00000000  0.00000000  0.81249100  1
  O  O10  1  0.00000000  0.00000000  0.30833100  1
  O  O11  1  0.50000000  0.50000000  0.67821100  1
  O  O12  1  0.50000000  0.50000000  0.00892700  1
  O  O13  1  0.50000000  0.50000000  0.17741200  1
  O  O14  1  0.50000000  0.50000000  0.34458600  1
  O  O15  1  0.50000000  0.50000000  0.51130700  1
  O  O16  1  0.50000000  0.50000000  0.84451000  1
