# generated using pymatgen
data_Na2TiSi4H4O13
_symmetry_space_group_name_H-M   'P 1'
_cell_length_a   7.45980000
_cell_length_b   8.84054600
_cell_length_c   9.03201728
_cell_angle_alpha   90.00000000
_cell_angle_beta   112.38402616
_cell_angle_gamma   90.00000000
_symmetry_Int_Tables_number   1
_chemical_formula_structural   Na2TiSi4H4O13
_chemical_formula_sum   'Na4 Ti2 Si8 H8 O26'
_cell_volume   550.76896151
_cell_formula_units_Z   2
loop_
 _symmetry_equiv_pos_site_id
 _symmetry_equiv_pos_as_xyz
  1  'x, y, z'
loop_
 _atom_site_type_symbol
 _atom_site_label
 _atom_site_symmetry_multiplicity
 _atom_site_fract_x
 _atom_site_fract_y
 _atom_site_fract_z
 _atom_site_occupancy
  Na  Na0  1  0.79231100  0.19066000  0.80312300  1
  Na  Na1  1  0.70768900  0.69066000  0.19687700  1
  Na  Na2  1  0.20768900  0.80934000  0.19687700  1
  Na  Na3  1  0.29231100  0.30934000  0.80312300  1
  Ti  Ti4  1  0.50000000  0.00000000  0.00000000  1
  Ti  Ti5  1  0.00000000  0.50000000  0.00000000  1
  Si  Si6  1  0.30320700  0.66050400  0.83991800  1
  Si  Si7  1  0.19679300  0.16050400  0.16008200  1
  Si  Si8  1  0.69679300  0.33949600  0.16008200  1
  Si  Si9  1  0.80320700  0.83949600  0.83991800  1
  Si  Si10  1  0.09471000  0.94072000  0.68497600  1
  Si  Si11  1  0.40529000  0.44072000  0.31502400  1
  Si  Si12  1  0.90529000  0.05928000  0.31502400  1
  Si  Si13  1  0.59471000  0.55928000  0.68497600  1
  H  H14  1  0.40551000  0.10402300  0.66359800  1
  H  H15  1  0.09449000  0.60402300  0.33640200  1
  H  H16  1  0.59449000  0.89597700  0.33640200  1
  H  H17  1  0.90551000  0.39597700  0.66359800  1
  H  H18  1  0.41865900  0.19410400  0.51445200  1
  H  H19  1  0.08134100  0.69410400  0.48554800  1
  H  H20  1  0.58134100  0.80589600  0.48554800  1
  H  H21  1  0.91865900  0.30589600  0.51445200  1
  O  O22  1  0.15436900  0.76007800  0.68459400  1
  O  O23  1  0.34563100  0.26007800  0.31540600  1
  O  O24  1  0.84563100  0.23992200  0.31540600  1
  O  O25  1  0.65436900  0.73992200  0.68459400  1
  O  O26  1  0.18439600  0.53739200  0.89970400  1
  O  O27  1  0.31560400  0.03739200  0.10029600  1
  O  O28  1  0.81560400  0.46260800  0.10029600  1
  O  O29  1  0.68439600  0.96260800  0.89970400  1
  O  O30  1  0.43177900  0.77937800  0.97727300  1
  O  O31  1  0.06822100  0.27937800  0.02272700  1
  O  O32  1  0.56822100  0.22062200  0.02272700  1
  O  O33  1  0.93177900  0.72062200  0.97727300  1
  O  O34  1  0.43060500  0.55167500  0.76520600  1
  O  O35  1  0.06939500  0.05167500  0.23479400  1
  O  O36  1  0.56939500  0.44832500  0.23479400  1
  O  O37  1  0.93060500  0.94832500  0.76520600  1
  O  O38  1  0.28675400  0.03730200  0.78691100  1
  O  O39  1  0.21324600  0.53730200  0.21308900  1
  O  O40  1  0.71324600  0.96269800  0.21308900  1
  O  O41  1  0.78675400  0.46269800  0.78691100  1
  O  O42  1  0.50000000  0.50000000  0.50000000  1
  O  O43  1  0.00000000  0.00000000  0.50000000  1
  O  O44  1  0.47404200  0.18571100  0.63198100  1
  O  O45  1  0.02595800  0.68571100  0.36801900  1
  O  O46  1  0.52595800  0.81428900  0.36801900  1
  O  O47  1  0.97404200  0.31428900  0.63198100  1
