# generated using pymatgen
data_Rb2Ga2Ge3O10
_symmetry_space_group_name_H-M   'P 1'
_cell_length_a   17.84859800
_cell_length_b   6.84169600
_cell_length_c   12.89159997
_cell_angle_alpha   90.00000000
_cell_angle_beta   132.59944312
_cell_angle_gamma   90.00000000
_symmetry_Int_Tables_number   1
_chemical_formula_structural   Rb2Ga2Ge3O10
_chemical_formula_sum   'Rb8 Ga8 Ge12 O40'
_cell_volume   1158.81386469
_cell_formula_units_Z   4
loop_
 _symmetry_equiv_pos_site_id
 _symmetry_equiv_pos_as_xyz
  1  'x, y, z'
loop_
 _atom_site_type_symbol
 _atom_site_label
 _atom_site_symmetry_multiplicity
 _atom_site_fract_x
 _atom_site_fract_y
 _atom_site_fract_z
 _atom_site_occupancy
  Rb  Rb0  1  0.72640800  0.84929800  0.83464900  1
  Rb  Rb1  1  0.63921100  0.62745000  0.37691300  1
  Rb  Rb2  1  0.36078900  0.62745000  0.62308700  1
  Rb  Rb3  1  0.27359200  0.84929800  0.16535100  1
  Rb  Rb4  1  0.22640800  0.34929800  0.83464900  1
  Rb  Rb5  1  0.13921100  0.12745000  0.37691300  1
  Rb  Rb6  1  0.86078900  0.12745000  0.62308700  1
  Rb  Rb7  1  0.77359200  0.34929800  0.16535100  1
  Ga  Ga8  1  0.63277650  0.32491750  0.74038500  1
  Ga  Ga9  1  0.56149200  0.13088900  0.19301100  1
  Ga  Ga10  1  0.43850800  0.13088900  0.80698900  1
  Ga  Ga11  1  0.36722350  0.32491750  0.25961500  1
  Ga  Ga12  1  0.13277650  0.82491750  0.74038500  1
  Ga  Ga13  1  0.06149200  0.63088900  0.19301100  1
  Ga  Ga14  1  0.93850800  0.63088900  0.80698900  1
  Ga  Ga15  1  0.86722350  0.82491750  0.25961500  1
  Ge  Ge16  1  0.00000000  0.00224700  0.00000000  1
  Ge  Ge17  1  0.87136200  0.37735500  0.93841300  1
  Ge  Ge18  1  0.57827200  0.10428300  0.44716800  1
  Ge  Ge19  1  0.50000000  0.51123400  0.50000000  1
  Ge  Ge20  1  0.42172800  0.10428300  0.55283200  1
  Ge  Ge21  1  0.12863800  0.37735500  0.06158700  1
  Ge  Ge22  1  0.50000000  0.50224700  0.00000000  1
  Ge  Ge23  1  0.37136200  0.87735500  0.93841300  1
  Ge  Ge24  1  0.07827200  0.60428300  0.44716800  1
  Ge  Ge25  1  0.00000000  0.01123400  0.50000000  1
  Ge  Ge26  1  0.92172800  0.60428300  0.55283200  1
  Ge  Ge27  1  0.62863800  0.87735500  0.06158700  1
  O  O28  1  0.88554700  0.14530600  0.88735000  1
  O  O29  1  0.84683800  0.57007900  0.82847100  1
  O  O30  1  0.75962900  0.34445900  0.91130300  1
  O  O31  1  0.60240350  0.32945050  0.55866800  1
  O  O32  1  0.63852500  0.17024000  0.38413600  1
  O  O33  1  0.62946600  0.90269800  0.55031100  1
  O  O34  1  0.56094400  0.57054000  0.67279000  1
  O  O35  1  0.55484500  0.12197900  0.70966900  1
  O  O36  1  0.52334150  0.91197950  0.88178200  1
  O  O37  1  0.49535100  0.36823900  0.11133700  1
  O  O38  1  0.50464900  0.36823900  0.88866300  1
  O  O39  1  0.47665850  0.91197950  0.11821800  1
  O  O40  1  0.44515500  0.12197900  0.29033100  1
  O  O41  1  0.43905600  0.57054000  0.32721000  1
  O  O42  1  0.37053400  0.90269800  0.44968900  1
  O  O43  1  0.36147500  0.17024000  0.61586400  1
  O  O44  1  0.39759650  0.32945050  0.44133200  1
  O  O45  1  0.24037100  0.34445900  0.08869700  1
  O  O46  1  0.15316200  0.57007900  0.17152900  1
  O  O47  1  0.11445300  0.14530600  0.11265000  1
  O  O48  1  0.38554700  0.64530600  0.88735000  1
  O  O49  1  0.34683800  0.07007900  0.82847100  1
  O  O50  1  0.25962900  0.84445900  0.91130300  1
  O  O51  1  0.10240350  0.82945050  0.55866800  1
  O  O52  1  0.13852500  0.67024000  0.38413600  1
  O  O53  1  0.12946600  0.40269800  0.55031100  1
  O  O54  1  0.06094400  0.07054000  0.67279000  1
  O  O55  1  0.05484500  0.62197900  0.70966900  1
  O  O56  1  0.02334150  0.41197950  0.88178200  1
  O  O57  1  0.99535100  0.86823900  0.11133700  1
  O  O58  1  0.00464900  0.86823900  0.88866300  1
  O  O59  1  0.97665850  0.41197950  0.11821800  1
  O  O60  1  0.94515500  0.62197900  0.29033100  1
  O  O61  1  0.93905600  0.07054000  0.32721000  1
  O  O62  1  0.87053400  0.40269800  0.44968900  1
  O  O63  1  0.86147500  0.67024000  0.61586400  1
  O  O64  1  0.89759650  0.82945050  0.44133200  1
  O  O65  1  0.74037100  0.84445900  0.08869700  1
  O  O66  1  0.65316200  0.07007900  0.17152900  1
  O  O67  1  0.61445300  0.64530600  0.11265000  1
