# generated using pymatgen
data_TiMnCr(PO4)3
_symmetry_space_group_name_H-M   'P 1'
_cell_length_a   8.61855040
_cell_length_b   8.61855040
_cell_length_c   21.20439093
_cell_angle_alpha   90.00000000
_cell_angle_beta   90.00000000
_cell_angle_gamma   120.00000000
_symmetry_Int_Tables_number   1
_chemical_formula_structural   TiMnCr(PO4)3
_chemical_formula_sum   'Ti6 Mn6 Cr6 P18 O72'
_cell_volume   1364.03302559
_cell_formula_units_Z   6
loop_
 _symmetry_equiv_pos_site_id
 _symmetry_equiv_pos_as_xyz
  1  'x, y, z'
loop_
 _atom_site_type_symbol
 _atom_site_label
 _atom_site_symmetry_multiplicity
 _atom_site_fract_x
 _atom_site_fract_y
 _atom_site_fract_z
 _atom_site_occupancy
  Ti  Ti0  1  0.00000000  0.00000000  0.14489600  1
  Ti  Ti1  1  0.33333333  0.66666667  0.31156267  1
  Ti  Ti2  1  0.66666667  0.33333333  0.47822933  1
  Ti  Ti3  1  0.00000000  0.00000000  0.64489600  1
  Ti  Ti4  1  0.33333333  0.66666667  0.81156267  1
  Ti  Ti5  1  0.66666667  0.33333333  0.97822933  1
  Mn  Mn6  1  0.66666667  0.33333333  0.33213033  1
  Mn  Mn7  1  0.33333333  0.66666667  0.16546367  1
  Mn  Mn8  1  0.33333333  0.66666667  0.66546367  1
  Mn  Mn9  1  0.00000000  0.00000000  0.49879700  1
  Mn  Mn10  1  0.00000000  0.00000000  0.99879700  1
  Mn  Mn11  1  0.66666667  0.33333333  0.83213033  1
  Cr  Cr12  1  0.33333333  0.66666667  0.02371767  1
  Cr  Cr13  1  0.66666667  0.33333333  0.19038433  1
  Cr  Cr14  1  0.00000000  0.00000000  0.35705100  1
  Cr  Cr15  1  0.33333333  0.66666667  0.52371767  1
  Cr  Cr16  1  0.66666667  0.33333333  0.69038433  1
  Cr  Cr17  1  0.00000000  0.00000000  0.85705100  1
  P  P18  1  0.37583533  0.04140067  0.08406667  1
  P  P19  1  0.66556533  0.62416467  0.08406667  1
  P  P20  1  0.95859933  0.33443467  0.08406667  1
  P  P21  1  0.70916867  0.00110133  0.25073333  1
  P  P22  1  0.99889867  0.70806733  0.25073333  1
  P  P23  1  0.29193267  0.29083133  0.25073333  1
  P  P24  1  0.04250200  0.37473400  0.41740000  1
  P  P25  1  0.33223200  0.95749800  0.41740000  1
  P  P26  1  0.62526600  0.66776800  0.41740000  1
  P  P27  1  0.37583533  0.33443467  0.58406667  1
  P  P28  1  0.66556533  0.04140067  0.58406667  1
  P  P29  1  0.95859933  0.62416467  0.58406667  1
  P  P30  1  0.70916867  0.70806733  0.75073333  1
  P  P31  1  0.99889867  0.29083133  0.75073333  1
  P  P32  1  0.29193267  0.00110133  0.75073333  1
  P  P33  1  0.04250200  0.66776800  0.91740000  1
  P  P34  1  0.33223200  0.37473400  0.91740000  1
  P  P35  1  0.62526600  0.95749800  0.91740000  1
  O  O36  1  0.19624800  0.19273600  0.30990000  1
  O  O37  1  0.80726400  0.00351200  0.30990000  1
  O  O38  1  0.18573300  0.02191200  0.07861200  1
  O  O39  1  0.99648800  0.80375200  0.30990000  1
  O  O40  1  0.47393067  0.13708533  0.14323333  1
  O  O41  1  0.35404200  0.85189100  0.08720500  1
  O  O42  1  0.83617900  0.81426700  0.07861200  1
  O  O43  1  0.49784900  0.64595800  0.08720500  1
  O  O44  1  0.80943767  0.99692033  0.18996833  1
  O  O45  1  0.14810900  0.50215100  0.08720500  1
  O  O46  1  0.68737533  0.16881767  0.25387167  1
  O  O47  1  0.00307967  0.81251733  0.18996833  1
  O  O48  1  0.66315467  0.52606933  0.14323333  1
  O  O49  1  0.97808800  0.16382100  0.07861200  1
  O  O50  1  0.51906633  0.83048767  0.24527867  1
  O  O51  1  0.86291467  0.33684533  0.14323333  1
  O  O52  1  0.16951233  0.68857867  0.24527867  1
  O  O53  1  0.83118233  0.51855767  0.25387167  1
  O  O54  1  0.31142133  0.48093367  0.24527867  1
  O  O55  1  0.18748267  0.19056233  0.18996833  1
  O  O56  1  0.66974633  0.52389567  0.02330167  1
  O  O57  1  0.48144233  0.31262467  0.25387167  1
  O  O58  1  0.85414933  0.33025367  0.02330167  1
  O  O59  1  0.47610433  0.14585067  0.02330167  1
  O  O60  1  0.86291467  0.52606933  0.64323333  1
  O  O61  1  0.47393067  0.33684533  0.64323333  1
  O  O62  1  0.85239967  0.35524533  0.41194533  1
  O  O63  1  0.66315467  0.13708533  0.64323333  1
  O  O64  1  0.14059733  0.47041867  0.47656667  1
  O  O65  1  0.02070867  0.18522433  0.42053833  1
  O  O66  1  0.50284567  0.14760033  0.41194533  1
  O  O67  1  0.16451567  0.97929133  0.42053833  1
  O  O68  1  0.47610433  0.33025367  0.52330167  1
  O  O69  1  0.81477567  0.83548433  0.42053833  1
  O  O70  1  0.35404200  0.50215100  0.58720500  1
  O  O71  1  0.66974633  0.14585067  0.52330167  1
  O  O72  1  0.32982133  0.85940267  0.47656667  1
  O  O73  1  0.64475467  0.49715433  0.41194533  1
  O  O74  1  0.18573300  0.16382100  0.57861200  1
  O  O75  1  0.52958133  0.67017867  0.47656667  1
  O  O76  1  0.83617900  0.02191200  0.57861200  1
  O  O77  1  0.49784900  0.85189100  0.58720500  1
  O  O78  1  0.97808800  0.81426700  0.57861200  1
  O  O79  1  0.85414933  0.52389567  0.52330167  1
  O  O80  1  0.33641300  0.85722900  0.35663500  1
  O  O81  1  0.14810900  0.64595800  0.58720500  1
  O  O82  1  0.52081600  0.66358700  0.35663500  1
  O  O83  1  0.14277100  0.47918400  0.35663500  1
  O  O84  1  0.52958133  0.85940267  0.97656667  1
  O  O85  1  0.14059733  0.67017867  0.97656667  1
  O  O86  1  0.51906633  0.68857867  0.74527867  1
  O  O87  1  0.32982133  0.47041867  0.97656667  1
  O  O88  1  0.80726400  0.80375200  0.80990000  1
  O  O89  1  0.68737533  0.51855767  0.75387167  1
  O  O90  1  0.16951233  0.48093367  0.74527867  1
  O  O91  1  0.83118233  0.31262467  0.75387167  1
  O  O92  1  0.14277100  0.66358700  0.85663500  1
  O  O93  1  0.48144233  0.16881767  0.75387167  1
  O  O94  1  0.02070867  0.83548433  0.92053833  1
  O  O95  1  0.33641300  0.47918400  0.85663500  1
  O  O96  1  0.99648800  0.19273600  0.80990000  1
  O  O97  1  0.31142133  0.83048767  0.74527867  1
  O  O98  1  0.85239967  0.49715433  0.91194533  1
  O  O99  1  0.19624800  0.00351200  0.80990000  1
  O  O100  1  0.50284567  0.35524533  0.91194533  1
  O  O101  1  0.16451567  0.18522433  0.92053833  1
  O  O102  1  0.64475467  0.14760033  0.91194533  1
  O  O103  1  0.52081600  0.85722900  0.85663500  1
  O  O104  1  0.00307967  0.19056233  0.68996833  1
  O  O105  1  0.81477567  0.97929133  0.92053833  1
  O  O106  1  0.18748267  0.99692033  0.68996833  1
  O  O107  1  0.80943767  0.81251733  0.68996833  1
