# generated using pymatgen
data_TiGa2O5
_symmetry_space_group_name_H-M   'P 1'
_cell_length_a   10.09645600
_cell_length_b   5.04340800
_cell_length_c   7.06332251
_cell_angle_alpha   90.00000000
_cell_angle_beta   110.59777258
_cell_angle_gamma   90.00000000
_symmetry_Int_Tables_number   1
_chemical_formula_structural   TiGa2O5
_chemical_formula_sum   'Ti4 Ga8 O20'
_cell_volume   336.67581044
_cell_formula_units_Z   4
loop_
 _symmetry_equiv_pos_site_id
 _symmetry_equiv_pos_as_xyz
  1  'x, y, z'
loop_
 _atom_site_type_symbol
 _atom_site_label
 _atom_site_symmetry_multiplicity
 _atom_site_fract_x
 _atom_site_fract_y
 _atom_site_fract_z
 _atom_site_occupancy
  Ti  Ti0  1  0.00000000  0.00000000  0.50000000  1
  Ti  Ti1  1  0.00000000  0.00000000  0.00000000  1
  Ti  Ti2  1  0.50000000  0.50000000  0.50000000  1
  Ti  Ti3  1  0.50000000  0.50000000  0.00000000  1
  Ga  Ga4  1  0.13624700  0.50300700  0.72571500  1
  Ga  Ga5  1  0.13624700  0.49699300  0.22571500  1
  Ga  Ga6  1  0.36375300  0.00300700  0.77428500  1
  Ga  Ga7  1  0.36375300  0.99699300  0.27428500  1
  Ga  Ga8  1  0.63624700  0.00300700  0.72571500  1
  Ga  Ga9  1  0.63624700  0.99699300  0.22571500  1
  Ga  Ga10  1  0.86375300  0.50300700  0.77428500  1
  Ga  Ga11  1  0.86375300  0.49699300  0.27428500  1
  O  O12  1  0.08446000  0.66590000  0.94904300  1
  O  O13  1  0.08446000  0.33410000  0.44904300  1
  O  O14  1  0.18487800  0.84691300  0.64985300  1
  O  O15  1  0.31512200  0.34691300  0.85014700  1
  O  O16  1  0.18487800  0.15308700  0.14985300  1
  O  O17  1  0.31512200  0.65308700  0.35014700  1
  O  O18  1  0.41554000  0.16590000  0.55095700  1
  O  O19  1  0.00000000  0.19647500  0.75000000  1
  O  O20  1  0.41554000  0.83410000  0.05095700  1
  O  O21  1  0.00000000  0.80352500  0.25000000  1
  O  O22  1  0.58446000  0.16590000  0.94904300  1
  O  O23  1  0.58446000  0.83410000  0.44904300  1
  O  O24  1  0.68487800  0.34691300  0.64985300  1
  O  O25  1  0.81512200  0.84691300  0.85014700  1
  O  O26  1  0.68487800  0.65308700  0.14985300  1
  O  O27  1  0.81512200  0.15308700  0.35014700  1
  O  O28  1  0.91554000  0.66590000  0.55095700  1
  O  O29  1  0.50000000  0.69647500  0.75000000  1
  O  O30  1  0.91554000  0.33410000  0.05095700  1
  O  O31  1  0.50000000  0.30352500  0.25000000  1
