# generated using pymatgen
data_La3PO7
_symmetry_space_group_name_H-M   'P 1'
_cell_length_a   13.28474600
_cell_length_b   13.66383200
_cell_length_c   12.54082992
_cell_angle_alpha   90.00000000
_cell_angle_beta   108.59004856
_cell_angle_gamma   90.00000000
_symmetry_Int_Tables_number   1
_chemical_formula_structural   La3PO7
_chemical_formula_sum   'La36 P12 O84'
_cell_volume   2157.64332451
_cell_formula_units_Z   12
loop_
 _symmetry_equiv_pos_site_id
 _symmetry_equiv_pos_as_xyz
  1  'x, y, z'
loop_
 _atom_site_type_symbol
 _atom_site_label
 _atom_site_symmetry_multiplicity
 _atom_site_fract_x
 _atom_site_fract_y
 _atom_site_fract_z
 _atom_site_occupancy
  La  La0  1  0.31988900  0.17196200  0.94674800  1
  La  La1  1  0.31988900  0.82803800  0.94674800  1
  La  La2  1  0.34520800  0.15477900  0.61895100  1
  La  La3  1  0.34520800  0.84522100  0.61895100  1
  La  La4  1  0.51525150  0.32836250  0.83765100  1
  La  La5  1  0.51525150  0.67163750  0.83765100  1
  La  La6  1  0.34845400  0.84320400  0.28005400  1
  La  La7  1  0.34845400  0.15679600  0.28005400  1
  La  La8  1  0.48679550  0.34504450  0.50165400  1
  La  La9  1  0.48679550  0.65495550  0.50165400  1
  La  La10  1  0.49113450  0.34580050  0.16446700  1
  La  La11  1  0.49113450  0.65419950  0.16446700  1
  La  La12  1  0.67237400  0.82784200  0.70380800  1
  La  La13  1  0.67237400  0.17215800  0.70380800  1
  La  La14  1  0.66805800  0.18744800  0.39162300  1
  La  La15  1  0.66805800  0.81255200  0.39162300  1
  La  La16  1  0.66244450  0.17099150  0.07903900  1
  La  La17  1  0.66244450  0.82900850  0.07903900  1
  La  La18  1  0.81988900  0.67196200  0.94674800  1
  La  La19  1  0.81988900  0.32803800  0.94674800  1
  La  La20  1  0.84520800  0.65477900  0.61895100  1
  La  La21  1  0.84520800  0.34522100  0.61895100  1
  La  La22  1  0.01525150  0.82836250  0.83765100  1
  La  La23  1  0.01525150  0.17163750  0.83765100  1
  La  La24  1  0.84845400  0.34320400  0.28005400  1
  La  La25  1  0.84845400  0.65679600  0.28005400  1
  La  La26  1  0.98679550  0.84504450  0.50165400  1
  La  La27  1  0.98679550  0.15495550  0.50165400  1
  La  La28  1  0.99113450  0.84580050  0.16446700  1
  La  La29  1  0.99113450  0.15419950  0.16446700  1
  La  La30  1  0.17237400  0.32784200  0.70380800  1
  La  La31  1  0.17237400  0.67215800  0.70380800  1
  La  La32  1  0.16805800  0.68744800  0.39162300  1
  La  La33  1  0.16805800  0.31255200  0.39162300  1
  La  La34  1  0.16244450  0.67099150  0.07903900  1
  La  La35  1  0.16244450  0.32900850  0.07903900  1
  P  P36  1  0.17307900  0.00000000  0.71505100  1
  P  P37  1  0.16454500  0.00000000  0.07612600  1
  P  P38  1  0.50518500  0.00000000  0.50687700  1
  P  P39  1  0.50292600  0.00000000  0.12814000  1
  P  P40  1  0.83678200  0.00000000  0.65771300  1
  P  P41  1  0.83476600  0.00000000  0.27805400  1
  P  P42  1  0.67307900  0.50000000  0.71505100  1
  P  P43  1  0.66454500  0.50000000  0.07612600  1
  P  P44  1  0.00518500  0.50000000  0.50687700  1
  P  P45  1  0.00292600  0.50000000  0.12814000  1
  P  P46  1  0.33678200  0.50000000  0.65771300  1
  P  P47  1  0.33476600  0.50000000  0.27805400  1
  O  O48  1  0.07761300  0.00000000  0.60470500  1
  O  O49  1  0.17127800  0.90663800  0.78346800  1
  O  O50  1  0.17127800  0.09336200  0.78346800  1
  O  O51  1  0.05624800  0.00000000  0.10168700  1
  O  O52  1  0.27934400  0.00000000  0.68553600  1
  O  O53  1  0.34014450  0.75295350  0.77958000  1
  O  O54  1  0.34014450  0.24704650  0.77958000  1
  O  O55  1  0.16841350  0.09411250  0.00985600  1
  O  O56  1  0.16841350  0.90588750  0.00985600  1
  O  O57  1  0.25672100  0.00000000  0.18937500  1
  O  O58  1  0.33711300  0.22765200  0.44685800  1
  O  O59  1  0.33711300  0.77234800  0.44685800  1
  O  O60  1  0.40267700  0.00000000  0.40298700  1
  O  O61  1  0.47198800  0.00000000  0.61604900  1
  O  O62  1  0.33020250  0.74232250  0.11373700  1
  O  O63  1  0.33020250  0.25767750  0.11373700  1
  O  O64  1  0.50515250  0.24560650  0.66847000  1
  O  O65  1  0.50515250  0.75439350  0.66847000  1
  O  O66  1  0.39678600  0.00000000  0.02765500  1
  O  O67  1  0.66628150  0.78404350  0.89149900  1
  O  O68  1  0.66628150  0.21595650  0.89149900  1
  O  O69  1  0.49933050  0.27172550  0.33567000  1
  O  O70  1  0.49933050  0.72827450  0.33567000  1
  O  O71  1  0.56975400  0.90649300  0.50472900  1
  O  O72  1  0.56975400  0.09350700  0.50472900  1
  O  O73  1  0.51276050  0.90592150  0.19942400  1
  O  O74  1  0.51276050  0.09407850  0.19942400  1
  O  O75  1  0.49447100  0.74719900  0.00401900  1
  O  O76  1  0.49447100  0.25280100  0.00401900  1
  O  O77  1  0.66955600  0.71612100  0.55466400  1
  O  O78  1  0.66955600  0.28387900  0.55466400  1
  O  O79  1  0.74150600  0.00000000  0.70686400  1
  O  O80  1  0.59420300  0.00000000  0.07286000  1
  O  O81  1  0.66671150  0.71806350  0.22824900  1
  O  O82  1  0.66671150  0.28193650  0.22824900  1
  O  O83  1  0.83115850  0.90610950  0.58717900  1
  O  O84  1  0.83115850  0.09389050  0.58717900  1
  O  O85  1  0.77267450  0.90672150  0.28760200  1
  O  O86  1  0.77267450  0.09327850  0.28760200  1
  O  O87  1  0.93974200  0.00000000  0.76284300  1
  O  O88  1  0.85762400  0.00000000  0.16343800  1
  O  O89  1  0.94397900  0.00000000  0.37436000  1
  O  O90  1  0.57761300  0.50000000  0.60470500  1
  O  O91  1  0.67127800  0.40663800  0.78346800  1
  O  O92  1  0.67127800  0.59336200  0.78346800  1
  O  O93  1  0.55624800  0.50000000  0.10168700  1
  O  O94  1  0.77934400  0.50000000  0.68553600  1
  O  O95  1  0.84014450  0.25295350  0.77958000  1
  O  O96  1  0.84014450  0.74704650  0.77958000  1
  O  O97  1  0.66841350  0.59411250  0.00985600  1
  O  O98  1  0.66841350  0.40588750  0.00985600  1
  O  O99  1  0.75672100  0.50000000  0.18937500  1
  O  O100  1  0.83711300  0.72765200  0.44685800  1
  O  O101  1  0.83711300  0.27234800  0.44685800  1
  O  O102  1  0.90267700  0.50000000  0.40298700  1
  O  O103  1  0.97198800  0.50000000  0.61604900  1
  O  O104  1  0.83020250  0.24232250  0.11373700  1
  O  O105  1  0.83020250  0.75767750  0.11373700  1
  O  O106  1  0.00515250  0.74560650  0.66847000  1
  O  O107  1  0.00515250  0.25439350  0.66847000  1
  O  O108  1  0.89678600  0.50000000  0.02765500  1
  O  O109  1  0.16628150  0.28404350  0.89149900  1
  O  O110  1  0.16628150  0.71595650  0.89149900  1
  O  O111  1  0.99933050  0.77172550  0.33567000  1
  O  O112  1  0.99933050  0.22827450  0.33567000  1
  O  O113  1  0.06975400  0.40649300  0.50472900  1
  O  O114  1  0.06975400  0.59350700  0.50472900  1
  O  O115  1  0.01276050  0.40592150  0.19942400  1
  O  O116  1  0.01276050  0.59407850  0.19942400  1
  O  O117  1  0.99447100  0.24719900  0.00401900  1
  O  O118  1  0.99447100  0.75280100  0.00401900  1
  O  O119  1  0.16955600  0.21612100  0.55466400  1
  O  O120  1  0.16955600  0.78387900  0.55466400  1
  O  O121  1  0.24150600  0.50000000  0.70686400  1
  O  O122  1  0.09420300  0.50000000  0.07286000  1
  O  O123  1  0.16671150  0.21806350  0.22824900  1
  O  O124  1  0.16671150  0.78193650  0.22824900  1
  O  O125  1  0.33115850  0.40610950  0.58717900  1
  O  O126  1  0.33115850  0.59389050  0.58717900  1
  O  O127  1  0.27267450  0.40672150  0.28760200  1
  O  O128  1  0.27267450  0.59327850  0.28760200  1
  O  O129  1  0.43974200  0.50000000  0.76284300  1
  O  O130  1  0.35762400  0.50000000  0.16343800  1
  O  O131  1  0.44397900  0.50000000  0.37436000  1
