# generated using pymatgen
data_K3Nb7O19
_symmetry_space_group_name_H-M   'P 1'
_cell_length_a   6.56703700
_cell_length_b   10.11337292
_cell_length_c   14.39054053
_cell_angle_alpha   97.35805430
_cell_angle_beta   95.69439871
_cell_angle_gamma   106.51733624
_symmetry_Int_Tables_number   1
_chemical_formula_structural   K3Nb7O19
_chemical_formula_sum   'K6 Nb14 O38'
_cell_volume   899.46736520
_cell_formula_units_Z   2
loop_
 _symmetry_equiv_pos_site_id
 _symmetry_equiv_pos_as_xyz
  1  'x, y, z'
loop_
 _atom_site_type_symbol
 _atom_site_label
 _atom_site_symmetry_multiplicity
 _atom_site_fract_x
 _atom_site_fract_y
 _atom_site_fract_z
 _atom_site_occupancy
  K  K0  1  0.00625000  0.82366100  0.90434900  1
  K  K1  1  0.58855200  0.40881900  0.78954200  1
  K  K2  1  0.35849400  0.02352700  0.63417500  1
  K  K3  1  0.64150600  0.97647300  0.36582500  1
  K  K4  1  0.41144800  0.59118100  0.21045800  1
  K  K5  1  0.99375000  0.17633900  0.09565100  1
  Nb  Nb6  1  0.22084700  0.52826500  0.96328100  1
  Nb  Nb7  1  0.56445100  0.09115100  0.88906100  1
  Nb  Nb8  1  0.00338600  0.15504700  0.81209300  1
  Nb  Nb9  1  0.38038200  0.70646200  0.74081600  1
  Nb  Nb10  1  0.17087000  0.31653500  0.58052200  1
  Nb  Nb11  1  0.84222200  0.78041900  0.65215600  1
  Nb  Nb12  1  0.36659400  0.62145200  0.50522900  1
  Nb  Nb13  1  0.63340600  0.37854800  0.49477100  1
  Nb  Nb14  1  0.15777800  0.21958100  0.34784400  1
  Nb  Nb15  1  0.82913000  0.68346500  0.41947800  1
  Nb  Nb16  1  0.61961800  0.29353800  0.25918400  1
  Nb  Nb17  1  0.99661400  0.84495300  0.18790700  1
  Nb  Nb18  1  0.43554900  0.90884900  0.11093900  1
  Nb  Nb19  1  0.77915300  0.47173500  0.03671900  1
  O  O20  1  0.50000000  0.50000000  0.00000000  1
  O  O21  1  0.67437700  0.27602400  0.96926600  1
  O  O22  1  0.50000000  0.00000000  0.00000000  1
  O  O23  1  0.88070600  0.06460600  0.91058000  1
  O  O24  1  0.12734700  0.34024100  0.87889000  1
  O  O25  1  0.91294800  0.54774900  0.93314500  1
  O  O26  1  0.29845000  0.11418000  0.84099000  1
  O  O27  1  0.28696600  0.60480500  0.83633600  1
  O  O28  1  0.71181700  0.16575300  0.77772100  1
  O  O29  1  0.46499700  0.89099100  0.80567600  1
  O  O30  1  0.10765700  0.23442700  0.68597900  1
  O  O31  1  0.67308500  0.68547700  0.74654900  1
  O  O32  1  0.09286300  0.72969100  0.68530200  1
  O  O33  1  0.93137300  0.96160900  0.71882300  1
  O  O34  1  0.28687300  0.52558400  0.62630200  1
  O  O35  1  0.47804700  0.30758600  0.59495700  1
  O  O36  1  0.50359900  0.78254300  0.60624700  1
  O  O37  1  0.89122000  0.35200300  0.53971400  1
  O  O38  1  0.68924300  0.58398500  0.54556200  1
  O  O39  1  0.09416900  0.16275800  0.47419900  1
  O  O40  1  0.90583100  0.83724200  0.52580100  1
  O  O41  1  0.31075700  0.41601500  0.45443800  1
  O  O42  1  0.10878000  0.64799700  0.46028600  1
  O  O43  1  0.49640100  0.21745700  0.39375300  1
  O  O44  1  0.52195300  0.69241400  0.40504300  1
  O  O45  1  0.71312700  0.47441600  0.37369800  1
  O  O46  1  0.06862700  0.03839100  0.28117700  1
  O  O47  1  0.90713700  0.27030900  0.31469800  1
  O  O48  1  0.32691500  0.31452300  0.25345100  1
  O  O49  1  0.89234300  0.76557300  0.31402100  1
  O  O50  1  0.53500300  0.10900900  0.19432400  1
  O  O51  1  0.28818300  0.83424700  0.22227900  1
  O  O52  1  0.71303400  0.39519500  0.16366400  1
  O  O53  1  0.70155000  0.88582000  0.15901000  1
  O  O54  1  0.08705200  0.45225100  0.06685500  1
  O  O55  1  0.87265300  0.65975900  0.12111000  1
  O  O56  1  0.11929400  0.93539400  0.08942000  1
  O  O57  1  0.32562300  0.72397600  0.03073400  1
