# generated using pymatgen
data_Y6TeO12
_symmetry_space_group_name_H-M   'P 1'
_cell_length_a   9.88600411
_cell_length_b   9.88600411
_cell_length_c   9.43098367
_cell_angle_alpha   90.00000000
_cell_angle_beta   90.00000000
_cell_angle_gamma   120.00000000
_symmetry_Int_Tables_number   1
_chemical_formula_structural   Y6TeO12
_chemical_formula_sum   'Y18 Te3 O36'
_cell_volume   798.23211671
_cell_formula_units_Z   3
loop_
 _symmetry_equiv_pos_site_id
 _symmetry_equiv_pos_as_xyz
  1  'x, y, z'
loop_
 _atom_site_type_symbol
 _atom_site_label
 _atom_site_symmetry_multiplicity
 _atom_site_fract_x
 _atom_site_fract_y
 _atom_site_fract_z
 _atom_site_occupancy
  Y  Y0  1  0.74693667  0.78801733  0.64344133  1
  Y  Y1  1  0.95891933  0.74693667  0.35655867  1
  Y  Y2  1  0.78801733  0.04108067  0.35655867  1
  Y  Y3  1  0.21198267  0.95891933  0.64344133  1
  Y  Y4  1  0.04108067  0.25306333  0.64344133  1
  Y  Y5  1  0.25306333  0.21198267  0.35655867  1
  Y  Y6  1  0.41360333  0.12135067  0.97677467  1
  Y  Y7  1  0.62558600  0.08027000  0.68989200  1
  Y  Y8  1  0.45468400  0.37441400  0.68989200  1
  Y  Y9  1  0.87864933  0.29225267  0.97677467  1
  Y  Y10  1  0.70774733  0.58639667  0.97677467  1
  Y  Y11  1  0.91973000  0.54531600  0.68989200  1
  Y  Y12  1  0.08027000  0.45468400  0.31010800  1
  Y  Y13  1  0.29225267  0.41360333  0.02322533  1
  Y  Y14  1  0.12135067  0.70774733  0.02322533  1
  Y  Y15  1  0.54531600  0.62558600  0.31010800  1
  Y  Y16  1  0.37441400  0.91973000  0.31010800  1
  Y  Y17  1  0.58639667  0.87864933  0.02322533  1
  Te  Te18  1  0.00000000  0.00000000  0.00000000  1
  Te  Te19  1  0.66666667  0.33333333  0.33333333  1
  Te  Te20  1  0.33333333  0.66666667  0.66666667  1
  O  O21  1  0.47883800  0.62678100  0.55523300  1
  O  O22  1  0.85205700  0.47883800  0.44476700  1
  O  O23  1  0.77605033  0.80757967  0.40104367  1
  O  O24  1  0.96847067  0.77605033  0.59895633  1
  O  O25  1  0.62678100  0.14794300  0.44476700  1
  O  O26  1  0.80757967  0.03152933  0.59895633  1
  O  O27  1  0.19242033  0.96847067  0.40104367  1
  O  O28  1  0.37321900  0.85205700  0.55523300  1
  O  O29  1  0.03152933  0.22394967  0.40104367  1
  O  O30  1  0.22394967  0.19242033  0.59895633  1
  O  O31  1  0.14794300  0.52116200  0.55523300  1
  O  O32  1  0.52116200  0.37321900  0.44476700  1
  O  O33  1  0.14550467  0.96011433  0.88856633  1
  O  O34  1  0.51872367  0.81217133  0.77810033  1
  O  O35  1  0.44271700  0.14091300  0.73437700  1
  O  O36  1  0.63513733  0.10938367  0.93228967  1
  O  O37  1  0.29344767  0.48127633  0.77810033  1
  O  O38  1  0.47424633  0.36486267  0.93228967  1
  O  O39  1  0.85908700  0.30180400  0.73437700  1
  O  O40  1  0.03988567  0.18539033  0.88856633  1
  O  O41  1  0.69819600  0.55728300  0.73437700  1
  O  O42  1  0.89061633  0.52575367  0.93228967  1
  O  O43  1  0.81460967  0.85449533  0.88856633  1
  O  O44  1  0.18782867  0.70655233  0.77810033  1
  O  O45  1  0.81217133  0.29344767  0.22189967  1
  O  O46  1  0.18539033  0.14550467  0.11143367  1
  O  O47  1  0.10938367  0.47424633  0.06771033  1
  O  O48  1  0.30180400  0.44271700  0.26562300  1
  O  O49  1  0.96011433  0.81460967  0.11143367  1
  O  O50  1  0.14091300  0.69819600  0.26562300  1
  O  O51  1  0.52575367  0.63513733  0.06771033  1
  O  O52  1  0.70655233  0.51872367  0.22189967  1
  O  O53  1  0.36486267  0.89061633  0.06771033  1
  O  O54  1  0.55728300  0.85908700  0.26562300  1
  O  O55  1  0.48127633  0.18782867  0.22189967  1
  O  O56  1  0.85449533  0.03988567  0.11143367  1
