# generated using pymatgen
data_CaH12(IO6)2
_symmetry_space_group_name_H-M   'P 1'
_cell_length_a   6.37582400
_cell_length_b   15.04221400
_cell_length_c   23.14478600
_cell_angle_alpha   90.00000000
_cell_angle_beta   90.00000000
_cell_angle_gamma   90.00000000
_symmetry_Int_Tables_number   1
_chemical_formula_structural   CaH12(IO6)2
_chemical_formula_sum   'Ca8 H96 I16 O96'
_cell_volume   2219.73562761
_cell_formula_units_Z   8
loop_
 _symmetry_equiv_pos_site_id
 _symmetry_equiv_pos_as_xyz
  1  'x, y, z'
loop_
 _atom_site_type_symbol
 _atom_site_label
 _atom_site_symmetry_multiplicity
 _atom_site_fract_x
 _atom_site_fract_y
 _atom_site_fract_z
 _atom_site_occupancy
  Ca  Ca0  1  0.56767800  0.25000000  0.75000000  1
  Ca  Ca1  1  0.31767800  0.00000000  0.50000000  1
  Ca  Ca2  1  0.06767800  0.25000000  0.25000000  1
  Ca  Ca3  1  0.81767800  0.00000000  0.00000000  1
  Ca  Ca4  1  0.06767800  0.75000000  0.75000000  1
  Ca  Ca5  1  0.81767800  0.50000000  0.50000000  1
  Ca  Ca6  1  0.56767800  0.75000000  0.25000000  1
  Ca  Ca7  1  0.31767800  0.50000000  0.00000000  1
  H  H8  1  0.02590550  0.47572850  0.61869200  1
  H  H9  1  0.58067850  0.44847150  0.77712900  1
  H  H10  1  0.74873050  0.43415200  0.95802550  1
  H  H11  1  0.34044550  0.42372250  0.77545200  1
  H  H12  1  0.93404800  0.38319950  0.59902350  1
  H  H13  1  0.19422550  0.37618200  0.51092750  1
  H  H14  1  0.94422550  0.37381800  0.76092750  1
  H  H15  1  0.68404800  0.36680050  0.84902350  1
  H  H16  1  0.59044550  0.32627750  0.52545200  1
  H  H17  1  0.99873050  0.31584800  0.70802550  1
  H  H18  1  0.83067850  0.30152850  0.52712900  1
  H  H19  1  0.77590550  0.27427150  0.86869200  1
  H  H20  1  0.77590550  0.22572850  0.63130800  1
  H  H21  1  0.83067850  0.19847150  0.97287100  1
  H  H22  1  0.99873050  0.18415200  0.79197450  1
  H  H23  1  0.59044550  0.17372250  0.97454800  1
  H  H24  1  0.68404800  0.13319950  0.65097650  1
  H  H25  1  0.94422550  0.12618200  0.73907250  1
  H  H26  1  0.19422550  0.12381800  0.98907250  1
  H  H27  1  0.93404800  0.11680050  0.90097650  1
  H  H28  1  0.34044550  0.07627750  0.72454800  1
  H  H29  1  0.74873050  0.06584800  0.54197450  1
  H  H30  1  0.58067850  0.05152850  0.72287100  1
  H  H31  1  0.02590550  0.02427150  0.88130800  1
  H  H32  1  0.52590550  0.47572850  0.11869200  1
  H  H33  1  0.08067850  0.44847150  0.27712900  1
  H  H34  1  0.24873050  0.43415200  0.45802550  1
  H  H35  1  0.84044550  0.42372250  0.27545200  1
  H  H36  1  0.43404800  0.38319950  0.09902350  1
  H  H37  1  0.69422550  0.37618200  0.01092750  1
  H  H38  1  0.44422550  0.37381800  0.26092750  1
  H  H39  1  0.18404800  0.36680050  0.34902350  1
  H  H40  1  0.09044550  0.32627750  0.02545200  1
  H  H41  1  0.49873050  0.31584800  0.20802550  1
  H  H42  1  0.33067850  0.30152850  0.02712900  1
  H  H43  1  0.27590550  0.27427150  0.36869200  1
  H  H44  1  0.27590550  0.22572850  0.13130800  1
  H  H45  1  0.33067850  0.19847150  0.47287100  1
  H  H46  1  0.49873050  0.18415200  0.29197450  1
  H  H47  1  0.09044550  0.17372250  0.47454800  1
  H  H48  1  0.18404800  0.13319950  0.15097650  1
  H  H49  1  0.44422550  0.12618200  0.23907250  1
  H  H50  1  0.69422550  0.12381800  0.48907250  1
  H  H51  1  0.43404800  0.11680050  0.40097650  1
  H  H52  1  0.84044550  0.07627750  0.22454800  1
  H  H53  1  0.24873050  0.06584800  0.04197450  1
  H  H54  1  0.08067850  0.05152850  0.22287100  1
  H  H55  1  0.52590550  0.02427150  0.38130800  1
  H  H56  1  0.52590550  0.97572850  0.61869200  1
  H  H57  1  0.08067850  0.94847150  0.77712900  1
  H  H58  1  0.24873050  0.93415200  0.95802550  1
  H  H59  1  0.84044550  0.92372250  0.77545200  1
  H  H60  1  0.43404800  0.88319950  0.59902350  1
  H  H61  1  0.69422550  0.87618200  0.51092750  1
  H  H62  1  0.44422550  0.87381800  0.76092750  1
  H  H63  1  0.18404800  0.86680050  0.84902350  1
  H  H64  1  0.09044550  0.82627750  0.52545200  1
  H  H65  1  0.49873050  0.81584800  0.70802550  1
  H  H66  1  0.33067850  0.80152850  0.52712900  1
  H  H67  1  0.27590550  0.77427150  0.86869200  1
  H  H68  1  0.27590550  0.72572850  0.63130800  1
  H  H69  1  0.33067850  0.69847150  0.97287100  1
  H  H70  1  0.49873050  0.68415200  0.79197450  1
  H  H71  1  0.09044550  0.67372250  0.97454800  1
  H  H72  1  0.18404800  0.63319950  0.65097650  1
  H  H73  1  0.44422550  0.62618200  0.73907250  1
  H  H74  1  0.69422550  0.62381800  0.98907250  1
  H  H75  1  0.43404800  0.61680050  0.90097650  1
  H  H76  1  0.84044550  0.57627750  0.72454800  1
  H  H77  1  0.24873050  0.56584800  0.54197450  1
  H  H78  1  0.08067850  0.55152850  0.72287100  1
  H  H79  1  0.52590550  0.52427150  0.88130800  1
  H  H80  1  0.02590550  0.97572850  0.11869200  1
  H  H81  1  0.58067850  0.94847150  0.27712900  1
  H  H82  1  0.74873050  0.93415200  0.45802550  1
  H  H83  1  0.34044550  0.92372250  0.27545200  1
  H  H84  1  0.93404800  0.88319950  0.09902350  1
  H  H85  1  0.19422550  0.87618200  0.01092750  1
  H  H86  1  0.94422550  0.87381800  0.26092750  1
  H  H87  1  0.68404800  0.86680050  0.34902350  1
  H  H88  1  0.59044550  0.82627750  0.02545200  1
  H  H89  1  0.99873050  0.81584800  0.20802550  1
  H  H90  1  0.83067850  0.80152850  0.02712900  1
  H  H91  1  0.77590550  0.77427150  0.36869200  1
  H  H92  1  0.77590550  0.72572850  0.13130800  1
  H  H93  1  0.83067850  0.69847150  0.47287100  1
  H  H94  1  0.99873050  0.68415200  0.29197450  1
  H  H95  1  0.59044550  0.67372250  0.47454800  1
  H  H96  1  0.68404800  0.63319950  0.15097650  1
  H  H97  1  0.94422550  0.62618200  0.23907250  1
  H  H98  1  0.19422550  0.62381800  0.48907250  1
  H  H99  1  0.93404800  0.61680050  0.40097650  1
  H  H100  1  0.34044550  0.57627750  0.22454800  1
  H  H101  1  0.74873050  0.56584800  0.04197450  1
  H  H102  1  0.58067850  0.55152850  0.22287100  1
  H  H103  1  0.02590550  0.52427150  0.38130800  1
  I  I104  1  0.50225200  0.48352450  0.63879550  1
  I  I105  1  0.25225200  0.26647550  0.88879550  1
  I  I106  1  0.25225200  0.23352450  0.61120450  1
  I  I107  1  0.50225200  0.01647550  0.86120450  1
  I  I108  1  0.00225200  0.48352450  0.13879550  1
  I  I109  1  0.75225200  0.26647550  0.38879550  1
  I  I110  1  0.75225200  0.23352450  0.11120450  1
  I  I111  1  0.00225200  0.01647550  0.36120450  1
  I  I112  1  0.00225200  0.98352450  0.63879550  1
  I  I113  1  0.75225200  0.76647550  0.88879550  1
  I  I114  1  0.75225200  0.73352450  0.61120450  1
  I  I115  1  0.00225200  0.51647550  0.86120450  1
  I  I116  1  0.50225200  0.98352450  0.13879550  1
  I  I117  1  0.25225200  0.76647550  0.38879550  1
  I  I118  1  0.25225200  0.73352450  0.11120450  1
  I  I119  1  0.50225200  0.51647550  0.36120450  1
  O  O120  1  0.72859250  0.48433300  0.84243050  1
  O  O121  1  0.01102600  0.47550600  0.93282300  1
  O  O122  1  0.90592450  0.44824400  0.59689050  1
  O  O123  1  0.12287150  0.41960950  0.82136900  1
  O  O124  1  0.47636000  0.41473150  0.75452350  1
  O  O125  1  0.62900350  0.40380100  0.97665550  1
  O  O126  1  0.87900350  0.34619900  0.72665550  1
  O  O127  1  0.72636000  0.33526850  0.50452350  1
  O  O128  1  0.37287150  0.33039050  0.57136900  1
  O  O129  1  0.65592450  0.30175600  0.84689050  1
  O  O130  1  0.26102600  0.27449400  0.68282300  1
  O  O131  1  0.97859250  0.26566700  0.59243050  1
  O  O132  1  0.97859250  0.23433300  0.90756950  1
  O  O133  1  0.26102600  0.22550600  0.81717700  1
  O  O134  1  0.65592450  0.19824400  0.65310950  1
  O  O135  1  0.37287150  0.16960950  0.92863100  1
  O  O136  1  0.72636000  0.16473150  0.99547650  1
  O  O137  1  0.87900350  0.15380100  0.77334450  1
  O  O138  1  0.62900350  0.09619900  0.52334450  1
  O  O139  1  0.47636000  0.08526850  0.74547650  1
  O  O140  1  0.12287150  0.08039050  0.67863100  1
  O  O141  1  0.90592450  0.05175600  0.90310950  1
  O  O142  1  0.01102600  0.02449400  0.56717700  1
  O  O143  1  0.72859250  0.01566700  0.65756950  1
  O  O144  1  0.22859250  0.48433300  0.34243050  1
  O  O145  1  0.51102600  0.47550600  0.43282300  1
  O  O146  1  0.40592450  0.44824400  0.09689050  1
  O  O147  1  0.62287150  0.41960950  0.32136900  1
  O  O148  1  0.97636000  0.41473150  0.25452350  1
  O  O149  1  0.12900350  0.40380100  0.47665550  1
  O  O150  1  0.37900350  0.34619900  0.22665550  1
  O  O151  1  0.22636000  0.33526850  0.00452350  1
  O  O152  1  0.87287150  0.33039050  0.07136900  1
  O  O153  1  0.15592450  0.30175600  0.34689050  1
  O  O154  1  0.76102600  0.27449400  0.18282300  1
  O  O155  1  0.47859250  0.26566700  0.09243050  1
  O  O156  1  0.47859250  0.23433300  0.40756950  1
  O  O157  1  0.76102600  0.22550600  0.31717700  1
  O  O158  1  0.15592450  0.19824400  0.15310950  1
  O  O159  1  0.87287150  0.16960950  0.42863100  1
  O  O160  1  0.22636000  0.16473150  0.49547650  1
  O  O161  1  0.37900350  0.15380100  0.27334450  1
  O  O162  1  0.12900350  0.09619900  0.02334450  1
  O  O163  1  0.97636000  0.08526850  0.24547650  1
  O  O164  1  0.62287150  0.08039050  0.17863100  1
  O  O165  1  0.40592450  0.05175600  0.40310950  1
  O  O166  1  0.51102600  0.02449400  0.06717700  1
  O  O167  1  0.22859250  0.01566700  0.15756950  1
  O  O168  1  0.22859250  0.98433300  0.84243050  1
  O  O169  1  0.51102600  0.97550600  0.93282300  1
  O  O170  1  0.40592450  0.94824400  0.59689050  1
  O  O171  1  0.62287150  0.91960950  0.82136900  1
  O  O172  1  0.97636000  0.91473150  0.75452350  1
  O  O173  1  0.12900350  0.90380100  0.97665550  1
  O  O174  1  0.37900350  0.84619900  0.72665550  1
  O  O175  1  0.22636000  0.83526850  0.50452350  1
  O  O176  1  0.87287150  0.83039050  0.57136900  1
  O  O177  1  0.15592450  0.80175600  0.84689050  1
  O  O178  1  0.76102600  0.77449400  0.68282300  1
  O  O179  1  0.47859250  0.76566700  0.59243050  1
  O  O180  1  0.47859250  0.73433300  0.90756950  1
  O  O181  1  0.76102600  0.72550600  0.81717700  1
  O  O182  1  0.15592450  0.69824400  0.65310950  1
  O  O183  1  0.87287150  0.66960950  0.92863100  1
  O  O184  1  0.22636000  0.66473150  0.99547650  1
  O  O185  1  0.37900350  0.65380100  0.77334450  1
  O  O186  1  0.12900350  0.59619900  0.52334450  1
  O  O187  1  0.97636000  0.58526850  0.74547650  1
  O  O188  1  0.62287150  0.58039050  0.67863100  1
  O  O189  1  0.40592450  0.55175600  0.90310950  1
  O  O190  1  0.51102600  0.52449400  0.56717700  1
  O  O191  1  0.22859250  0.51566700  0.65756950  1
  O  O192  1  0.72859250  0.98433300  0.34243050  1
  O  O193  1  0.01102600  0.97550600  0.43282300  1
  O  O194  1  0.90592450  0.94824400  0.09689050  1
  O  O195  1  0.12287150  0.91960950  0.32136900  1
  O  O196  1  0.47636000  0.91473150  0.25452350  1
  O  O197  1  0.62900350  0.90380100  0.47665550  1
  O  O198  1  0.87900350  0.84619900  0.22665550  1
  O  O199  1  0.72636000  0.83526850  0.00452350  1
  O  O200  1  0.37287150  0.83039050  0.07136900  1
  O  O201  1  0.65592450  0.80175600  0.34689050  1
  O  O202  1  0.26102600  0.77449400  0.18282300  1
  O  O203  1  0.97859250  0.76566700  0.09243050  1
  O  O204  1  0.97859250  0.73433300  0.40756950  1
  O  O205  1  0.26102600  0.72550600  0.31717700  1
  O  O206  1  0.65592450  0.69824400  0.15310950  1
  O  O207  1  0.37287150  0.66960950  0.42863100  1
  O  O208  1  0.72636000  0.66473150  0.49547650  1
  O  O209  1  0.87900350  0.65380100  0.27334450  1
  O  O210  1  0.62900350  0.59619900  0.02334450  1
  O  O211  1  0.47636000  0.58526850  0.24547650  1
  O  O212  1  0.12287150  0.58039050  0.17863100  1
  O  O213  1  0.90592450  0.55175600  0.40310950  1
  O  O214  1  0.01102600  0.52449400  0.06717700  1
  O  O215  1  0.72859250  0.51566700  0.15756950  1
