# generated using pymatgen
data_Sr2Hf7O16
_symmetry_space_group_name_H-M   'P 1'
_cell_length_a   6.40625206
_cell_length_b   6.40625206
_cell_length_c   26.81288105
_cell_angle_alpha   90.00000000
_cell_angle_beta   90.00000000
_cell_angle_gamma   120.00000000
_symmetry_Int_Tables_number   1
_chemical_formula_structural   Sr2Hf7O16
_chemical_formula_sum   'Sr6 Hf21 O48'
_cell_volume   952.97642731
_cell_formula_units_Z   3
loop_
 _symmetry_equiv_pos_site_id
 _symmetry_equiv_pos_as_xyz
  1  'x, y, z'
loop_
 _atom_site_type_symbol
 _atom_site_label
 _atom_site_symmetry_multiplicity
 _atom_site_fract_x
 _atom_site_fract_y
 _atom_site_fract_z
 _atom_site_occupancy
  Sr  Sr0  1  0.33333333  0.66666667  0.33330067  1
  Sr  Sr1  1  0.33333333  0.66666667  0.00003267  1
  Sr  Sr2  1  0.00000000  0.00000000  0.66663400  1
  Sr  Sr3  1  0.00000000  0.00000000  0.33336600  1
  Sr  Sr4  1  0.66666667  0.33333333  0.99996733  1
  Sr  Sr5  1  0.66666667  0.33333333  0.66669933  1
  Hf  Hf6  1  0.00000000  0.00000000  0.00000000  1
  Hf  Hf7  1  0.37065700  0.00160700  0.11537200  1
  Hf  Hf8  1  0.03571667  0.70399033  0.21796133  1
  Hf  Hf9  1  0.66827367  0.96428333  0.21796133  1
  Hf  Hf10  1  0.99839300  0.36905000  0.11537200  1
  Hf  Hf11  1  0.63095000  0.62934300  0.11537200  1
  Hf  Hf12  1  0.29600967  0.33172633  0.21796133  1
  Hf  Hf13  1  0.66666667  0.33333333  0.33333333  1
  Hf  Hf14  1  0.03732367  0.33494033  0.44870533  1
  Hf  Hf15  1  0.70238333  0.03732367  0.55129467  1
  Hf  Hf16  1  0.33494033  0.29761667  0.55129467  1
  Hf  Hf17  1  0.66505967  0.70238333  0.44870533  1
  Hf  Hf18  1  0.29761667  0.96267633  0.44870533  1
  Hf  Hf19  1  0.96267633  0.66505967  0.55129467  1
  Hf  Hf20  1  0.33333333  0.66666667  0.66666667  1
  Hf  Hf21  1  0.70399033  0.66827367  0.78203867  1
  Hf  Hf22  1  0.36905000  0.37065700  0.88462800  1
  Hf  Hf23  1  0.00160700  0.63095000  0.88462800  1
  Hf  Hf24  1  0.33172633  0.03571667  0.78203867  1
  Hf  Hf25  1  0.96428333  0.29600967  0.78203867  1
  Hf  Hf26  1  0.62934300  0.99839300  0.88462800  1
  O  O27  1  0.66666667  0.33333333  0.09778633  1
  O  O28  1  0.27835633  0.00750867  0.04282367  1
  O  O29  1  0.39142000  0.04447100  0.19648900  1
  O  O30  1  0.01361567  0.72475333  0.13684433  1
  O  O31  1  0.93751433  0.61168967  0.29050967  1
  O  O32  1  0.67417533  0.06248567  0.29050967  1
  O  O33  1  0.71113767  0.98638433  0.13684433  1
  O  O34  1  0.33333333  0.66666667  0.09577167  1
  O  O35  1  0.33333333  0.66666667  0.23756167  1
  O  O36  1  0.95552900  0.34694900  0.19648900  1
  O  O37  1  0.99249133  0.27084767  0.04282367  1
  O  O38  1  0.72915233  0.72164367  0.04282367  1
  O  O39  1  0.65305100  0.60858000  0.19648900  1
  O  O40  1  0.27524667  0.28886233  0.13684433  1
  O  O41  1  0.38831033  0.32582467  0.29050967  1
  O  O42  1  0.00000000  0.00000000  0.23554700  1
  O  O43  1  0.33333333  0.66666667  0.43111967  1
  O  O44  1  0.94502300  0.34084200  0.37615700  1
  O  O45  1  0.05808667  0.37780433  0.52982233  1
  O  O46  1  0.68028233  0.05808667  0.47017767  1
  O  O47  1  0.60418100  0.94502300  0.62384300  1
  O  O48  1  0.34084200  0.39581900  0.62384300  1
  O  O49  1  0.37780433  0.31971767  0.47017767  1
  O  O50  1  0.00000000  0.00000000  0.42910500  1
  O  O51  1  0.00000000  0.00000000  0.57089500  1
  O  O52  1  0.62219567  0.68028233  0.52982233  1
  O  O53  1  0.65915800  0.60418100  0.37615700  1
  O  O54  1  0.39581900  0.05497700  0.37615700  1
  O  O55  1  0.31971767  0.94191333  0.52982233  1
  O  O56  1  0.94191333  0.62219567  0.47017767  1
  O  O57  1  0.05497700  0.65915800  0.62384300  1
  O  O58  1  0.66666667  0.33333333  0.56888033  1
  O  O59  1  0.00000000  0.00000000  0.76445300  1
  O  O60  1  0.61168967  0.67417533  0.70949033  1
  O  O61  1  0.72475333  0.71113767  0.86315567  1
  O  O62  1  0.34694900  0.39142000  0.80351100  1
  O  O63  1  0.27084767  0.27835633  0.95717633  1
  O  O64  1  0.00750867  0.72915233  0.95717633  1
  O  O65  1  0.04447100  0.65305100  0.80351100  1
  O  O66  1  0.66666667  0.33333333  0.76243833  1
  O  O67  1  0.66666667  0.33333333  0.90422833  1
  O  O68  1  0.28886233  0.01361567  0.86315567  1
  O  O69  1  0.32582467  0.93751433  0.70949033  1
  O  O70  1  0.06248567  0.38831033  0.70949033  1
  O  O71  1  0.98638433  0.27524667  0.86315567  1
  O  O72  1  0.60858000  0.95552900  0.80351100  1
  O  O73  1  0.72164367  0.99249133  0.95717633  1
  O  O74  1  0.33333333  0.66666667  0.90221367  1
