# generated using pymatgen
data_Sr2CaI6
_symmetry_space_group_name_H-M   'P 1'
_cell_length_a   10.01572300
_cell_length_b   16.95954500
_cell_length_c   11.27688645
_cell_angle_alpha   90.00000000
_cell_angle_beta   122.70768788
_cell_angle_gamma   90.00000000
_symmetry_Int_Tables_number   1
_chemical_formula_structural   Sr2CaI6
_chemical_formula_sum   'Sr8 Ca4 I24'
_cell_volume   1611.78822067
_cell_formula_units_Z   4
loop_
 _symmetry_equiv_pos_site_id
 _symmetry_equiv_pos_as_xyz
  1  'x, y, z'
loop_
 _atom_site_type_symbol
 _atom_site_label
 _atom_site_symmetry_multiplicity
 _atom_site_fract_x
 _atom_site_fract_y
 _atom_site_fract_z
 _atom_site_occupancy
  Sr  Sr0  1  0.81221300  0.92140800  0.26592000  1
  Sr  Sr1  1  0.18778700  0.42140800  0.23408000  1
  Sr  Sr2  1  0.23575900  0.74602500  0.21929200  1
  Sr  Sr3  1  0.76424100  0.24602500  0.28070800  1
  Sr  Sr4  1  0.23575900  0.75397500  0.71929200  1
  Sr  Sr5  1  0.76424100  0.25397500  0.78070800  1
  Sr  Sr6  1  0.81221300  0.57859200  0.76592000  1
  Sr  Sr7  1  0.18778700  0.07859200  0.73408000  1
  Ca  Ca8  1  0.33187900  0.09365700  0.29445300  1
  Ca  Ca9  1  0.66812100  0.59365700  0.20554700  1
  Ca  Ca10  1  0.33187900  0.40634300  0.79445300  1
  Ca  Ca11  1  0.66812100  0.90634300  0.70554700  1
  I  I12  1  0.40009700  0.91290000  0.37382500  1
  I  I13  1  0.42503900  0.57351000  0.30849100  1
  I  I14  1  0.07481800  0.07969300  0.39060000  1
  I  I15  1  0.45049400  0.27124000  0.33543500  1
  I  I16  1  0.54950600  0.77124000  0.16456500  1
  I  I17  1  0.09084400  0.39816400  0.46590700  1
  I  I18  1  0.57496100  0.07351000  0.19150900  1
  I  I19  1  0.05345500  0.76909300  0.38326800  1
  I  I20  1  0.94654500  0.26909300  0.11673200  1
  I  I21  1  0.40009700  0.58710000  0.87382500  1
  I  I22  1  0.90915600  0.89816400  0.03409300  1
  I  I23  1  0.07481800  0.42030700  0.89060000  1
  I  I24  1  0.92518200  0.57969300  0.10940000  1
  I  I25  1  0.09084400  0.10183600  0.96590700  1
  I  I26  1  0.59990300  0.41290000  0.12617500  1
  I  I27  1  0.05345500  0.73090700  0.88326800  1
  I  I28  1  0.94654500  0.23090700  0.61673200  1
  I  I29  1  0.42503900  0.92649000  0.80849100  1
  I  I30  1  0.90915600  0.60183600  0.53409300  1
  I  I31  1  0.45049400  0.22876000  0.83543500  1
  I  I32  1  0.54950600  0.72876000  0.66456500  1
  I  I33  1  0.92518200  0.92030700  0.60940000  1
  I  I34  1  0.57496100  0.42649000  0.69150900  1
  I  I35  1  0.59990300  0.08710000  0.62617500  1
