# generated using pymatgen
data_Sn4P2O9
_symmetry_space_group_name_H-M   'P 1'
_cell_length_a   7.25286700
_cell_length_b   9.73016300
_cell_length_c   13.69884800
_cell_angle_alpha   90.00000000
_cell_angle_beta   90.00000000
_cell_angle_gamma   90.00000000
_symmetry_Int_Tables_number   1
_chemical_formula_structural   Sn4P2O9
_chemical_formula_sum   'Sn16 P8 O36'
_cell_volume   966.74932189
_cell_formula_units_Z   4
loop_
 _symmetry_equiv_pos_site_id
 _symmetry_equiv_pos_as_xyz
  1  'x, y, z'
loop_
 _atom_site_type_symbol
 _atom_site_label
 _atom_site_symmetry_multiplicity
 _atom_site_fract_x
 _atom_site_fract_y
 _atom_site_fract_z
 _atom_site_occupancy
  Sn  Sn0  1  0.75000000  0.53409800  0.89035700  1
  Sn  Sn1  1  0.25000000  0.69167800  0.59081500  1
  Sn  Sn2  1  0.01495600  0.63543900  0.33640300  1
  Sn  Sn3  1  0.48504400  0.63543900  0.33640300  1
  Sn  Sn4  1  0.51495600  0.86456100  0.83640300  1
  Sn  Sn5  1  0.98504400  0.86456100  0.83640300  1
  Sn  Sn6  1  0.75000000  0.80832200  0.09081500  1
  Sn  Sn7  1  0.25000000  0.96590200  0.39035700  1
  Sn  Sn8  1  0.75000000  0.03409800  0.60964300  1
  Sn  Sn9  1  0.25000000  0.19167800  0.90918500  1
  Sn  Sn10  1  0.01495600  0.13543900  0.16359700  1
  Sn  Sn11  1  0.48504400  0.13543900  0.16359700  1
  Sn  Sn12  1  0.51495600  0.36456100  0.66359700  1
  Sn  Sn13  1  0.98504400  0.36456100  0.66359700  1
  Sn  Sn14  1  0.75000000  0.30832200  0.40918500  1
  Sn  Sn15  1  0.25000000  0.46590200  0.10964300  1
  P  P16  1  0.25000000  0.54352400  0.86333500  1
  P  P17  1  0.75000000  0.64965100  0.55009700  1
  P  P18  1  0.25000000  0.85034900  0.05009700  1
  P  P19  1  0.75000000  0.95647600  0.36333500  1
  P  P20  1  0.25000000  0.04352400  0.63666500  1
  P  P21  1  0.75000000  0.14965100  0.94990300  1
  P  P22  1  0.25000000  0.35034900  0.44990300  1
  P  P23  1  0.75000000  0.45647600  0.13666500  1
  O  O24  1  0.92818000  0.58541800  0.59425600  1
  O  O25  1  0.57182000  0.58541800  0.59425600  1
  O  O26  1  0.75000000  0.60713200  0.43571700  1
  O  O27  1  0.75000000  0.54328700  0.23059200  1
  O  O28  1  0.42816500  0.63154100  0.87068400  1
  O  O29  1  0.07183500  0.63154100  0.87068400  1
  O  O30  1  0.75000000  0.56389400  0.04853200  1
  O  O31  1  0.25000000  0.69474700  0.06343100  1
  O  O32  1  0.25000000  0.70211200  0.43754900  1
  O  O33  1  0.75000000  0.79788800  0.93754900  1
  O  O34  1  0.75000000  0.80525300  0.56343100  1
  O  O35  1  0.25000000  0.93610600  0.54853200  1
  O  O36  1  0.92816500  0.86845900  0.37068400  1
  O  O37  1  0.57183500  0.86845900  0.37068400  1
  O  O38  1  0.25000000  0.95671300  0.73059200  1
  O  O39  1  0.25000000  0.89286800  0.93571700  1
  O  O40  1  0.42818000  0.91458200  0.09425600  1
  O  O41  1  0.07182000  0.91458200  0.09425600  1
  O  O42  1  0.92818000  0.08541800  0.90574400  1
  O  O43  1  0.57182000  0.08541800  0.90574400  1
  O  O44  1  0.75000000  0.10713200  0.06428300  1
  O  O45  1  0.75000000  0.04328700  0.26940800  1
  O  O46  1  0.42816500  0.13154100  0.62931600  1
  O  O47  1  0.07183500  0.13154100  0.62931600  1
  O  O48  1  0.75000000  0.06389400  0.45146800  1
  O  O49  1  0.25000000  0.19474700  0.43656900  1
  O  O50  1  0.25000000  0.20211200  0.06245100  1
  O  O51  1  0.75000000  0.29788800  0.56245100  1
  O  O52  1  0.75000000  0.30525300  0.93656900  1
  O  O53  1  0.25000000  0.43610600  0.95146800  1
  O  O54  1  0.92816500  0.36845900  0.12931600  1
  O  O55  1  0.57183500  0.36845900  0.12931600  1
  O  O56  1  0.25000000  0.45671300  0.76940800  1
  O  O57  1  0.25000000  0.39286800  0.56428300  1
  O  O58  1  0.42818000  0.41458200  0.40574400  1
  O  O59  1  0.07182000  0.41458200  0.40574400  1
