# generated using pymatgen
data_LiMn2OF3
_symmetry_space_group_name_H-M   'P 1'
_cell_length_a   6.27734959
_cell_length_b   6.27734959
_cell_length_c   8.98151425
_cell_angle_alpha   90.00000000
_cell_angle_beta   90.00000000
_cell_angle_gamma   90.00000000
_symmetry_Int_Tables_number   1
_chemical_formula_structural   LiMn2OF3
_chemical_formula_sum   'Li4 Mn8 O4 F12'
_cell_volume   353.91762833
_cell_formula_units_Z   4
loop_
 _symmetry_equiv_pos_site_id
 _symmetry_equiv_pos_as_xyz
  1  'x, y, z'
loop_
 _atom_site_type_symbol
 _atom_site_label
 _atom_site_symmetry_multiplicity
 _atom_site_fract_x
 _atom_site_fract_y
 _atom_site_fract_z
 _atom_site_occupancy
  Li  Li0  1  0.75154650  0.01094450  0.24984900  1
  Li  Li1  1  0.98905550  0.75154650  0.99984900  1
  Li  Li2  1  0.01094450  0.24845350  0.49984900  1
  Li  Li3  1  0.24845350  0.98905550  0.74984900  1
  Mn  Mn4  1  0.25068650  0.51510350  0.73377400  1
  Mn  Mn5  1  0.75815450  0.27495950  0.88559100  1
  Mn  Mn6  1  0.24184550  0.72504050  0.38559100  1
  Mn  Mn7  1  0.27495950  0.24184550  0.13559100  1
  Mn  Mn8  1  0.51510350  0.74931350  0.98377400  1
  Mn  Mn9  1  0.48489650  0.25068650  0.48377400  1
  Mn  Mn10  1  0.74931350  0.48489650  0.23377400  1
  Mn  Mn11  1  0.72504050  0.75815450  0.63559100  1
  O  O12  1  0.53300750  0.24440850  0.25819300  1
  O  O13  1  0.75559150  0.53300750  0.00819300  1
  O  O14  1  0.24440850  0.46699250  0.50819300  1
  O  O15  1  0.46699250  0.75559150  0.75819300  1
  F  F16  1  0.50872650  0.76134450  0.24190600  1
  F  F17  1  0.76134450  0.49127350  0.49190600  1
  F  F18  1  0.23865550  0.50872650  0.99190600  1
  F  F19  1  0.49127350  0.23865550  0.74190600  1
  F  F20  1  0.76168550  0.99705650  0.01299700  1
  F  F21  1  0.00294350  0.76168550  0.76299700  1
  F  F22  1  0.99705650  0.23831450  0.26299700  1
  F  F23  1  0.23831450  0.00294350  0.51299700  1
  F  F24  1  0.75505950  0.01796750  0.49288700  1
  F  F25  1  0.01796750  0.24494050  0.74288700  1
  F  F26  1  0.98203250  0.75505950  0.24288700  1
  F  F27  1  0.24494050  0.98203250  0.99288700  1
