# generated using pymatgen
data_Li7W5O16
_symmetry_space_group_name_H-M   'P 1'
_cell_length_a   6.04448645
_cell_length_b   6.05342976
_cell_length_c   9.92142448
_cell_angle_alpha   90.16178565
_cell_angle_beta   90.03300214
_cell_angle_gamma   119.47966680
_symmetry_Int_Tables_number   1
_chemical_formula_structural   Li7W5O16
_chemical_formula_sum   'Li7 W5 O16'
_cell_volume   316.02107510
_cell_formula_units_Z   1
loop_
 _symmetry_equiv_pos_site_id
 _symmetry_equiv_pos_as_xyz
  1  'x, y, z'
loop_
 _atom_site_type_symbol
 _atom_site_label
 _atom_site_symmetry_multiplicity
 _atom_site_fract_x
 _atom_site_fract_y
 _atom_site_fract_z
 _atom_site_occupancy
  Li  Li0  1  0.17426100  0.34097900  0.21273600  1
  Li  Li1  1  0.32247000  0.66964000  0.91275700  1
  Li  Li2  1  0.99863800  0.00714000  0.99738900  1
  Li  Li3  1  0.98005700  0.01322200  0.47910300  1
  Li  Li4  1  0.65981300  0.82746200  0.21192100  1
  Li  Li5  1  0.83283400  0.16114700  0.71499900  1
  Li  Li6  1  0.67032100  0.33196100  0.40059300  1
  W  W7  1  0.35570400  0.65947200  0.47513700  1
  W  W8  1  0.17423000  0.82743400  0.22179700  1
  W  W9  1  0.67247300  0.33408200  0.99392000  1
  W  W10  1  0.33872300  0.16398000  0.71205800  1
  W  W11  1  0.82556900  0.65414200  0.71210600  1
  O  O12  1  0.20268700  0.33685800  0.60147300  1
  O  O13  1  0.48009500  0.51373100  0.35910200  1
  O  O14  1  0.31759400  0.68115800  0.10907800  1
  O  O15  1  0.00665800  0.99656200  0.29229200  1
  O  O16  1  0.00253300  0.99567700  0.81092700  1
  O  O17  1  0.67468600  0.82300100  0.59133000  1
  O  O18  1  0.03527300  0.53778000  0.35516100  1
  O  O19  1  0.46953800  0.96757700  0.35304000  1
  O  O20  1  0.82176100  0.17183900  0.07184500  1
  O  O21  1  0.18179200  0.83618600  0.59914600  1
  O  O22  1  0.49973000  0.04718500  0.84357400  1
  O  O23  1  0.94681800  0.48883200  0.85125400  1
  O  O24  1  0.66655200  0.32539400  0.60341500  1
  O  O25  1  0.35268000  0.16407000  0.08558500  1
  O  O26  1  0.50444200  0.47610700  0.84734000  1
  O  O27  1  0.83176800  0.64708200  0.08875900  1
