# generated using pymatgen
data_Li4Mn3WO8
_symmetry_space_group_name_H-M   'P 1'
_cell_length_a   6.29229169
_cell_length_b   6.29229169
_cell_length_c   14.68326040
_cell_angle_alpha   90.00000000
_cell_angle_beta   90.00000000
_cell_angle_gamma   120.00000000
_symmetry_Int_Tables_number   1
_chemical_formula_structural   Li4Mn3WO8
_chemical_formula_sum   'Li12 Mn9 W3 O24'
_cell_volume   503.46678693
_cell_formula_units_Z   3
loop_
 _symmetry_equiv_pos_site_id
 _symmetry_equiv_pos_as_xyz
  1  'x, y, z'
loop_
 _atom_site_type_symbol
 _atom_site_label
 _atom_site_symmetry_multiplicity
 _atom_site_fract_x
 _atom_site_fract_y
 _atom_site_fract_z
 _atom_site_occupancy
  Li  Li0  1  0.33333333  0.66666667  0.16666667  1
  Li  Li1  1  0.33333333  0.16666667  0.16666667  1
  Li  Li2  1  0.83333333  0.16666667  0.16666667  1
  Li  Li3  1  0.83333333  0.66666667  0.16666667  1
  Li  Li4  1  1.00000000  1.00000000  0.50000000  1
  Li  Li5  1  0.00000000  0.50000000  0.50000000  1
  Li  Li6  1  0.50000000  0.50000000  0.50000000  1
  Li  Li7  1  0.50000000  0.00000000  0.50000000  1
  Li  Li8  1  0.66666667  0.33333333  0.83333333  1
  Li  Li9  1  0.66666667  0.83333333  0.83333333  1
  Li  Li10  1  0.16666667  0.83333333  0.83333333  1
  Li  Li11  1  0.16666667  0.33333333  0.83333333  1
  Mn  Mn12  1  0.00000000  0.50000000  0.00000000  1
  Mn  Mn13  1  0.50000000  0.50000000  0.00000000  1
  Mn  Mn14  1  0.16666667  0.33333333  0.33333333  1
  Mn  Mn15  1  0.66666667  0.83333333  0.33333333  1
  Mn  Mn16  1  0.16666667  0.83333333  0.33333333  1
  Mn  Mn17  1  0.83333333  0.66666667  0.66666667  1
  Mn  Mn18  1  0.33333333  0.16666667  0.66666667  1
  Mn  Mn19  1  0.83333333  0.16666667  0.66666667  1
  Mn  Mn20  1  0.50000000  0.00000000  0.00000000  1
  W  W21  1  0.66666667  0.33333333  0.33333333  1
  W  W22  1  0.33333333  0.66666667  0.66666667  1
  W  W23  1  1.00000000  1.00000000  0.00000000  1
  O  O24  1  0.33333333  0.66666667  0.40624450  1
  O  O25  1  0.33333333  0.66666667  0.92708883  1
  O  O26  1  0.70501450  0.85250725  0.07886600  1
  O  O27  1  0.14749275  0.85250725  0.07886600  1
  O  O28  1  0.14749275  0.29498550  0.07886600  1
  O  O29  1  0.96165217  0.48082608  0.25446733  1
  O  O30  1  0.51917392  0.48082608  0.25446733  1
  O  O31  1  0.51917392  0.03834783  0.25446733  1
  O  O32  1  0.00000000  0.00000000  0.73957783  1
  O  O33  1  0.00000000  0.00000000  0.26042217  1
  O  O34  1  0.37168117  0.18584058  0.41219933  1
  O  O35  1  0.81415942  0.18584058  0.41219933  1
  O  O36  1  0.81415942  0.62831883  0.41219933  1
  O  O37  1  0.62831883  0.81415942  0.58780067  1
  O  O38  1  0.18584058  0.81415942  0.58780067  1
  O  O39  1  0.18584058  0.37168117  0.58780067  1
  O  O40  1  0.66666667  0.33333333  0.07291117  1
  O  O41  1  0.66666667  0.33333333  0.59375550  1
  O  O42  1  0.03834783  0.51917392  0.74553267  1
  O  O43  1  0.48082608  0.51917392  0.74553267  1
  O  O44  1  0.48082608  0.96165217  0.74553267  1
  O  O45  1  0.29498550  0.14749275  0.92113400  1
  O  O46  1  0.85250725  0.14749275  0.92113400  1
  O  O47  1  0.85250725  0.70501450  0.92113400  1
