# generated using pymatgen
data_Li5WNO4
_symmetry_space_group_name_H-M   'P 1'
_cell_length_a   5.01470300
_cell_length_b   9.24556400
_cell_length_c   9.77979200
_cell_angle_alpha   90.00000000
_cell_angle_beta   90.00000000
_cell_angle_gamma   90.00000000
_symmetry_Int_Tables_number   1
_chemical_formula_structural   Li5WNO4
_chemical_formula_sum   'Li20 W4 N4 O16'
_cell_volume   453.42790496
_cell_formula_units_Z   4
loop_
 _symmetry_equiv_pos_site_id
 _symmetry_equiv_pos_as_xyz
  1  'x, y, z'
loop_
 _atom_site_type_symbol
 _atom_site_label
 _atom_site_symmetry_multiplicity
 _atom_site_fract_x
 _atom_site_fract_y
 _atom_site_fract_z
 _atom_site_occupancy
  Li  Li0  1  0.98004850  0.21290650  0.49272300  1
  Li  Li1  1  0.01995150  0.21290650  0.99272300  1
  Li  Li2  1  0.84460800  0.30771800  0.24490300  1
  Li  Li3  1  0.15539200  0.30771800  0.74490300  1
  Li  Li4  1  0.57441600  0.00000000  0.97332700  1
  Li  Li5  1  0.42558400  0.00000000  0.47332700  1
  Li  Li6  1  0.34460800  0.19228200  0.24490300  1
  Li  Li7  1  0.65539200  0.19228200  0.74490300  1
  Li  Li8  1  0.48004850  0.28709350  0.49272300  1
  Li  Li9  1  0.51995150  0.28709350  0.99272300  1
  Li  Li10  1  0.48004850  0.71290650  0.49272300  1
  Li  Li11  1  0.51995150  0.71290650  0.99272300  1
  Li  Li12  1  0.34460800  0.80771800  0.24490300  1
  Li  Li13  1  0.65539200  0.80771800  0.74490300  1
  Li  Li14  1  0.07441600  0.50000000  0.97332700  1
  Li  Li15  1  0.92558400  0.50000000  0.47332700  1
  Li  Li16  1  0.84460800  0.69228200  0.24490300  1
  Li  Li17  1  0.15539200  0.69228200  0.74490300  1
  Li  Li18  1  0.98004850  0.78709350  0.49272300  1
  Li  Li19  1  0.01995150  0.78709350  0.99272300  1
  W  W20  1  0.19592100  0.00000000  0.75061300  1
  W  W21  1  0.80407900  0.00000000  0.25061300  1
  W  W22  1  0.69592100  0.50000000  0.75061300  1
  W  W23  1  0.30407900  0.50000000  0.25061300  1
  N  N24  1  0.84160200  0.00000000  0.77418200  1
  N  N25  1  0.15839800  0.00000000  0.27418200  1
  N  N26  1  0.34160200  0.50000000  0.77418200  1
  N  N27  1  0.65839800  0.50000000  0.27418200  1
  O  O28  1  0.82536650  0.35167250  0.87760600  1
  O  O29  1  0.17463350  0.35167250  0.37760600  1
  O  O30  1  0.77770400  0.35307200  0.61094200  1
  O  O31  1  0.22229600  0.35307200  0.11094200  1
  O  O32  1  0.27770400  0.14692800  0.61094200  1
  O  O33  1  0.72229600  0.14692800  0.11094200  1
  O  O34  1  0.32536650  0.14832750  0.87760600  1
  O  O35  1  0.67463350  0.14832750  0.37760600  1
  O  O36  1  0.32536650  0.85167250  0.87760600  1
  O  O37  1  0.67463350  0.85167250  0.37760600  1
  O  O38  1  0.27770400  0.85307200  0.61094200  1
  O  O39  1  0.72229600  0.85307200  0.11094200  1
  O  O40  1  0.77770400  0.64692800  0.61094200  1
  O  O41  1  0.22229600  0.64692800  0.11094200  1
  O  O42  1  0.82536650  0.64832750  0.87760600  1
  O  O43  1  0.17463350  0.64832750  0.37760600  1
