# generated using pymatgen
data_Li2Co3WO8
_symmetry_space_group_name_H-M   'P 1'
_cell_length_a   5.87133000
_cell_length_b   10.27799600
_cell_length_c   9.65509294
_cell_angle_alpha   90.00000000
_cell_angle_beta   90.24033802
_cell_angle_gamma   90.00000000
_symmetry_Int_Tables_number   1
_chemical_formula_structural   Li2Co3WO8
_chemical_formula_sum   'Li8 Co12 W4 O32'
_cell_volume   582.63634565
_cell_formula_units_Z   4
loop_
 _symmetry_equiv_pos_site_id
 _symmetry_equiv_pos_as_xyz
  1  'x, y, z'
loop_
 _atom_site_type_symbol
 _atom_site_label
 _atom_site_symmetry_multiplicity
 _atom_site_fract_x
 _atom_site_fract_y
 _atom_site_fract_z
 _atom_site_occupancy
  Li  Li0  1  0.50266100  0.83658100  0.90561300  1
  Li  Li1  1  0.49769800  0.50104500  0.99013500  1
  Li  Li2  1  0.99769800  0.99895500  0.49013500  1
  Li  Li3  1  0.00266100  0.66341900  0.40561300  1
  Li  Li4  1  0.00266100  0.33658100  0.90561300  1
  Li  Li5  1  0.99769800  0.00104500  0.99013500  1
  Li  Li6  1  0.49769800  0.49895500  0.49013500  1
  Li  Li7  1  0.50266100  0.16341900  0.40561300  1
  Co  Co8  1  0.74241050  0.91312650  0.21988000  1
  Co  Co9  1  0.25400850  0.91802250  0.21455100  1
  Co  Co10  1  0.49956350  0.67419650  0.21330400  1
  Co  Co11  1  0.99956350  0.82580350  0.71330400  1
  Co  Co12  1  0.24241050  0.58687350  0.71988000  1
  Co  Co13  1  0.75400850  0.58197750  0.71455100  1
  Co  Co14  1  0.24241050  0.41312650  0.21988000  1
  Co  Co15  1  0.75400850  0.41802250  0.21455100  1
  Co  Co16  1  0.99956350  0.17419650  0.21330400  1
  Co  Co17  1  0.49956350  0.32580350  0.71330400  1
  Co  Co18  1  0.74241050  0.08687350  0.71988000  1
  Co  Co19  1  0.25400850  0.08197750  0.71455100  1
  W  W20  1  0.49676400  0.82794700  0.48920300  1
  W  W21  1  0.99676400  0.67205300  0.98920300  1
  W  W22  1  0.99676400  0.32794700  0.48920300  1
  W  W23  1  0.49676400  0.17205300  0.98920300  1
  O  O24  1  0.75334050  0.89981250  0.58938300  1
  O  O25  1  0.50586350  0.97838850  0.36021700  1
  O  O26  1  0.51163750  0.83606550  0.11239500  1
  O  O27  1  0.48630200  0.50597500  0.29842900  1
  O  O28  1  0.98630200  0.99402500  0.79842900  1
  O  O29  1  0.24484850  0.89990650  0.58768900  1
  O  O30  1  0.71689600  0.75057100  0.34218200  1
  O  O31  1  0.28915950  0.74894550  0.34353700  1
  O  O32  1  0.99899700  0.83246800  0.08740200  1
  O  O33  1  0.49899700  0.66753200  0.58740200  1
  O  O34  1  0.21689600  0.74942900  0.84218200  1
  O  O35  1  0.78915950  0.75105450  0.84353700  1
  O  O36  1  0.01163750  0.66393450  0.61239500  1
  O  O37  1  0.25334050  0.60018750  0.08938300  1
  O  O38  1  0.00586350  0.52161150  0.86021700  1
  O  O39  1  0.74484850  0.60009350  0.08768900  1
  O  O40  1  0.25334050  0.39981250  0.58938300  1
  O  O41  1  0.00586350  0.47838850  0.36021700  1
  O  O42  1  0.01163750  0.33606550  0.11239500  1
  O  O43  1  0.98630200  0.00597500  0.29842900  1
  O  O44  1  0.48630200  0.49402500  0.79842900  1
  O  O45  1  0.74484850  0.39990650  0.58768900  1
  O  O46  1  0.21689600  0.25057100  0.34218200  1
  O  O47  1  0.78915950  0.24894550  0.34353700  1
  O  O48  1  0.49899700  0.33246800  0.08740200  1
  O  O49  1  0.99899700  0.16753200  0.58740200  1
  O  O50  1  0.71689600  0.24942900  0.84218200  1
  O  O51  1  0.28915950  0.25105450  0.84353700  1
  O  O52  1  0.51163750  0.16393450  0.61239500  1
  O  O53  1  0.75334050  0.10018750  0.08938300  1
  O  O54  1  0.50586350  0.02161150  0.86021700  1
  O  O55  1  0.24484850  0.10009350  0.08768900  1
