# generated using pymatgen
data_V3Bi2(PO4)6
_symmetry_space_group_name_H-M   'P 1'
_cell_length_a   8.72928375
_cell_length_b   8.72928375
_cell_length_c   21.70856462
_cell_angle_alpha   90.00000000
_cell_angle_beta   90.00000000
_cell_angle_gamma   120.00000000
_symmetry_Int_Tables_number   1
_chemical_formula_structural   V3Bi2(PO4)6
_chemical_formula_sum   'V9 Bi6 P18 O72'
_cell_volume   1432.58025837
_cell_formula_units_Z   3
loop_
 _symmetry_equiv_pos_site_id
 _symmetry_equiv_pos_as_xyz
  1  'x, y, z'
loop_
 _atom_site_type_symbol
 _atom_site_label
 _atom_site_symmetry_multiplicity
 _atom_site_fract_x
 _atom_site_fract_y
 _atom_site_fract_z
 _atom_site_occupancy
  V  V0  1  0.33333333  0.66666667  0.31511667  1
  V  V1  1  0.66666667  0.33333333  0.19214333  1
  V  V2  1  0.33333333  0.66666667  0.01049067  1
  V  V3  1  0.00000000  0.00000000  0.64845000  1
  V  V4  1  0.33333333  0.66666667  0.52547667  1
  V  V5  1  0.00000000  0.00000000  0.34382400  1
  V  V6  1  0.66666667  0.33333333  0.98178333  1
  V  V7  1  0.00000000  0.00000000  0.85881000  1
  V  V8  1  0.66666667  0.33333333  0.67715733  1
  Bi  Bi9  1  0.00000000  0.00000000  0.02235600  1
  Bi  Bi10  1  0.33333333  0.66666667  0.16550167  1
  Bi  Bi11  1  0.66666667  0.33333333  0.35568933  1
  Bi  Bi12  1  0.00000000  0.00000000  0.49883500  1
  Bi  Bi13  1  0.33333333  0.66666667  0.68902267  1
  Bi  Bi14  1  0.66666667  0.33333333  0.83216833  1
  P  P15  1  0.29415067  0.99715633  0.24484433  1
  P  P16  1  0.00284367  0.29699433  0.24484433  1
  P  P17  1  0.70300567  0.70584933  0.24484433  1
  P  P18  1  0.95535833  0.60822967  0.08462167  1
  P  P19  1  0.65287133  0.04464167  0.08462167  1
  P  P20  1  0.39177033  0.34712867  0.08462167  1
  P  P21  1  0.96081733  0.33048967  0.57817767  1
  P  P22  1  0.66951033  0.63032767  0.57817767  1
  P  P23  1  0.36967233  0.03918267  0.57817767  1
  P  P24  1  0.62202500  0.94156300  0.41795500  1
  P  P25  1  0.31953800  0.37797500  0.41795500  1
  P  P26  1  0.05843700  0.68046200  0.41795500  1
  P  P27  1  0.62748400  0.66382300  0.91151100  1
  P  P28  1  0.33617700  0.96366100  0.91151100  1
  P  P29  1  0.03633900  0.37251600  0.91151100  1
  P  P30  1  0.28869167  0.27489633  0.75128833  1
  P  P31  1  0.98620467  0.71130833  0.75128833  1
  P  P32  1  0.72510367  0.01379533  0.75128833  1
  O  O33  1  0.98854000  0.18241800  0.30408000  1
  O  O34  1  0.81758200  0.80612200  0.30408000  1
  O  O35  1  0.19387800  0.01146000  0.30408000  1
  O  O36  1  0.47788133  0.17319967  0.24979667  1
  O  O37  1  0.33858067  0.84413333  0.25750633  1
  O  O38  1  0.19863867  0.95799233  0.18520033  1
  O  O39  1  0.82680033  0.30468167  0.24979667  1
  O  O40  1  0.15586667  0.49444733  0.25750633  1
  O  O41  1  0.50555267  0.66141933  0.25750633  1
  O  O42  1  0.86677067  0.50603733  0.14402433  1
  O  O43  1  0.96825467  0.78845833  0.08271633  1
  O  O44  1  0.63926667  0.13322933  0.14402433  1
  O  O45  1  0.04200767  0.24064633  0.18520033  1
  O  O46  1  0.69531833  0.52211867  0.24979667  1
  O  O47  1  0.75935367  0.80136133  0.18520033  1
  O  O48  1  0.14507033  0.62917567  0.08200867  1
  O  O49  1  0.48410533  0.85492967  0.08200867  1
  O  O50  1  0.82020367  0.03174533  0.08271633  1
  O  O51  1  0.49396267  0.36073333  0.14402433  1
  O  O52  1  0.37082433  0.51589467  0.08200867  1
  O  O53  1  0.21154167  0.17979633  0.08271633  1
  O  O54  1  0.49368333  0.35276967  0.02607267  1
  O  O55  1  0.85908633  0.50631667  0.02607267  1
  O  O56  1  0.64723033  0.14091367  0.02607267  1
  O  O57  1  0.65520667  0.51575133  0.63741333  1
  O  O58  1  0.48424867  0.13945533  0.63741333  1
  O  O59  1  0.86054467  0.34479333  0.63741333  1
  O  O60  1  0.14454800  0.50653300  0.58313000  1
  O  O61  1  0.00524733  0.17746667  0.59083967  1
  O  O62  1  0.86530533  0.29132567  0.51853367  1
  O  O63  1  0.49346700  0.63801500  0.58313000  1
  O  O64  1  0.82253333  0.82778067  0.59083967  1
  O  O65  1  0.17221933  0.99475267  0.59083967  1
  O  O66  1  0.53343733  0.83937067  0.47735767  1
  O  O67  1  0.63492133  0.12179167  0.41604967  1
  O  O68  1  0.30593333  0.46656267  0.47735767  1
  O  O69  1  0.70867433  0.57397967  0.51853367  1
  O  O70  1  0.36198500  0.85545200  0.58313000  1
  O  O71  1  0.42602033  0.13469467  0.51853367  1
  O  O72  1  0.81173700  0.96250900  0.41534200  1
  O  O73  1  0.15077200  0.18826300  0.41534200  1
  O  O74  1  0.48687033  0.36507867  0.41604967  1
  O  O75  1  0.16062933  0.69406667  0.47735767  1
  O  O76  1  0.03749100  0.84922800  0.41534200  1
  O  O77  1  0.87820833  0.51312967  0.41604967  1
  O  O78  1  0.16035000  0.68610300  0.35940600  1
  O  O79  1  0.52575300  0.83965000  0.35940600  1
  O  O80  1  0.31389700  0.47424700  0.35940600  1
  O  O81  1  0.32187333  0.84908467  0.97074667  1
  O  O82  1  0.15091533  0.47278867  0.97074667  1
  O  O83  1  0.52721133  0.67812667  0.97074667  1
  O  O84  1  0.81121467  0.83986633  0.91646333  1
  O  O85  1  0.67191400  0.51080000  0.92417300  1
  O  O86  1  0.53197200  0.62465900  0.85186700  1
  O  O87  1  0.16013367  0.97134833  0.91646333  1
  O  O88  1  0.48920000  0.16111400  0.92417300  1
  O  O89  1  0.83888600  0.32808600  0.92417300  1
  O  O90  1  0.20010400  0.17270400  0.81069100  1
  O  O91  1  0.30158800  0.45512500  0.74938300  1
  O  O92  1  0.97260000  0.79989600  0.81069100  1
  O  O93  1  0.37534100  0.90731300  0.85186700  1
  O  O94  1  0.02865167  0.18878533  0.91646333  1
  O  O95  1  0.09268700  0.46802800  0.85186700  1
  O  O96  1  0.47840367  0.29584233  0.74867533  1
  O  O97  1  0.81743867  0.52159633  0.74867533  1
  O  O98  1  0.15353700  0.69841200  0.74938300  1
  O  O99  1  0.82729600  0.02740000  0.81069100  1
  O  O100  1  0.70415767  0.18256133  0.74867533  1
  O  O101  1  0.54487500  0.84646300  0.74938300  1
  O  O102  1  0.82701667  0.01943633  0.69273933  1
  O  O103  1  0.19241967  0.17298333  0.69273933  1
  O  O104  1  0.98056367  0.80758033  0.69273933  1
