# generated using pymatgen
data_CdSeO4
_symmetry_space_group_name_H-M   'P 1'
_cell_length_a   5.72845600
_cell_length_b   8.71948800
_cell_length_c   7.30807200
_cell_angle_alpha   90.00000000
_cell_angle_beta   90.00000000
_cell_angle_gamma   90.00000000
_symmetry_Int_Tables_number   1
_chemical_formula_structural   CdSeO4
_chemical_formula_sum   'Cd4 Se4 O16'
_cell_volume   365.03237443
_cell_formula_units_Z   4
loop_
 _symmetry_equiv_pos_site_id
 _symmetry_equiv_pos_as_xyz
  1  'x, y, z'
loop_
 _atom_site_type_symbol
 _atom_site_label
 _atom_site_symmetry_multiplicity
 _atom_site_fract_x
 _atom_site_fract_y
 _atom_site_fract_z
 _atom_site_occupancy
  Cd  Cd0  1  0.00000000  0.00000000  0.00000000  1
  Cd  Cd1  1  0.00000000  0.00000000  0.50000000  1
  Cd  Cd2  1  0.50000000  0.50000000  0.00000000  1
  Cd  Cd3  1  0.50000000  0.50000000  0.50000000  1
  Se  Se4  1  0.50000000  0.85507300  0.25000000  1
  Se  Se5  1  0.50000000  0.14492700  0.75000000  1
  Se  Se6  1  0.00000000  0.35507300  0.25000000  1
  Se  Se7  1  0.00000000  0.64492700  0.75000000  1
  O  O8  1  0.26056900  0.97073700  0.25000000  1
  O  O9  1  0.26056900  0.02926300  0.75000000  1
  O  O10  1  0.50000000  0.75600400  0.05612100  1
  O  O11  1  0.50000000  0.75600400  0.44387900  1
  O  O12  1  0.50000000  0.24399600  0.55612100  1
  O  O13  1  0.50000000  0.24399600  0.94387900  1
  O  O14  1  0.73943100  0.97073700  0.25000000  1
  O  O15  1  0.73943100  0.02926300  0.75000000  1
  O  O16  1  0.76056900  0.47073700  0.25000000  1
  O  O17  1  0.76056900  0.52926300  0.75000000  1
  O  O18  1  0.00000000  0.25600400  0.05612100  1
  O  O19  1  0.00000000  0.25600400  0.44387900  1
  O  O20  1  0.00000000  0.74399600  0.55612100  1
  O  O21  1  0.00000000  0.74399600  0.94387900  1
  O  O22  1  0.23943100  0.47073700  0.25000000  1
  O  O23  1  0.23943100  0.52926300  0.75000000  1
