# generated using pymatgen
data_Hf3N2O3
_symmetry_space_group_name_H-M   'P 1'
_cell_length_a   10.60753400
_cell_length_b   4.00393400
_cell_length_c   10.64915256
_cell_angle_alpha   90.00000000
_cell_angle_beta   90.55663985
_cell_angle_gamma   90.00000000
_symmetry_Int_Tables_number   1
_chemical_formula_structural   Hf3N2O3
_chemical_formula_sum   'Hf12 N8 O12'
_cell_volume   452.26803629
_cell_formula_units_Z   4
loop_
 _symmetry_equiv_pos_site_id
 _symmetry_equiv_pos_as_xyz
  1  'x, y, z'
loop_
 _atom_site_type_symbol
 _atom_site_label
 _atom_site_symmetry_multiplicity
 _atom_site_fract_x
 _atom_site_fract_y
 _atom_site_fract_z
 _atom_site_occupancy
  Hf  Hf0  1  0.81554500  0.00000000  0.75125800  1
  Hf  Hf1  1  0.85494500  0.00000000  0.05818900  1
  Hf  Hf2  1  0.86340100  0.00000000  0.44453400  1
  Hf  Hf3  1  0.69207500  0.50000000  0.25038800  1
  Hf  Hf4  1  0.64264200  0.50000000  0.94498500  1
  Hf  Hf5  1  0.63683100  0.50000000  0.55969000  1
  Hf  Hf6  1  0.31554500  0.50000000  0.75125800  1
  Hf  Hf7  1  0.35494500  0.50000000  0.05818900  1
  Hf  Hf8  1  0.36340100  0.50000000  0.44453400  1
  Hf  Hf9  1  0.19207500  0.00000000  0.25038800  1
  Hf  Hf10  1  0.14264200  0.00000000  0.94498500  1
  Hf  Hf11  1  0.13683100  0.00000000  0.55969000  1
  N  N12  1  0.69997100  0.00000000  0.92100400  1
  N  N13  1  0.95328700  0.00000000  0.61515900  1
  N  N14  1  0.79552500  0.50000000  0.42523100  1
  N  N15  1  0.79852900  0.50000000  0.07999500  1
  N  N16  1  0.19997100  0.50000000  0.92100400  1
  N  N17  1  0.45328700  0.50000000  0.61515900  1
  N  N18  1  0.29552500  0.00000000  0.42523100  1
  N  N19  1  0.29852900  0.00000000  0.07999500  1
  O  O20  1  0.68940400  0.00000000  0.58092100  1
  O  O21  1  0.75238000  0.00000000  0.24811800  1
  O  O22  1  0.95426700  0.00000000  0.88711400  1
  O  O23  1  0.74513100  0.50000000  0.74262700  1
  O  O24  1  0.54363400  0.50000000  0.11529100  1
  O  O25  1  0.54244300  0.50000000  0.37984100  1
  O  O26  1  0.18940400  0.50000000  0.58092100  1
  O  O27  1  0.25238000  0.50000000  0.24811800  1
  O  O28  1  0.45426700  0.50000000  0.88711400  1
  O  O29  1  0.24513100  0.00000000  0.74262700  1
  O  O30  1  0.04363400  0.00000000  0.11529100  1
  O  O31  1  0.04244300  0.00000000  0.37984100  1
