# generated using pymatgen
data_Li3Fe5O9
_symmetry_space_group_name_H-M   'P 1'
_cell_length_a   13.44724389
_cell_length_b   11.43455800
_cell_length_c   5.36159264
_cell_angle_alpha   90.00000000
_cell_angle_beta   90.73264056
_cell_angle_gamma   90.00000000
_symmetry_Int_Tables_number   1
_chemical_formula_structural   Li3Fe5O9
_chemical_formula_sum   'Li12 Fe20 O36'
_cell_volume   824.34872690
_cell_formula_units_Z   4
loop_
 _symmetry_equiv_pos_site_id
 _symmetry_equiv_pos_as_xyz
  1  'x, y, z'
loop_
 _atom_site_type_symbol
 _atom_site_label
 _atom_site_symmetry_multiplicity
 _atom_site_fract_x
 _atom_site_fract_y
 _atom_site_fract_z
 _atom_site_occupancy
  Li  Li0  1  0.74797250  0.92489450  0.78352100  1
  Li  Li1  1  0.74797250  0.07510550  0.28352100  1
  Li  Li2  1  0.50000000  0.90475600  0.75000000  1
  Li  Li3  1  0.50000000  0.09524400  0.25000000  1
  Li  Li4  1  0.25202750  0.92489450  0.71647900  1
  Li  Li5  1  0.25202750  0.07510550  0.21647900  1
  Li  Li6  1  0.24797250  0.42489450  0.78352100  1
  Li  Li7  1  0.24797250  0.57510550  0.28352100  1
  Li  Li8  1  0.00000000  0.40475600  0.75000000  1
  Li  Li9  1  0.00000000  0.59524400  0.25000000  1
  Li  Li10  1  0.75202750  0.42489450  0.71647900  1
  Li  Li11  1  0.75202750  0.57510550  0.21647900  1
  Fe  Fe12  1  0.64222250  0.66556150  0.78895500  1
  Fe  Fe13  1  0.64222250  0.33443850  0.28895500  1
  Fe  Fe14  1  0.61863550  0.16330150  0.79333500  1
  Fe  Fe15  1  0.61863550  0.83669850  0.29333500  1
  Fe  Fe16  1  0.50000000  0.43204200  0.75000000  1
  Fe  Fe17  1  0.50000000  0.56795800  0.25000000  1
  Fe  Fe18  1  0.38136450  0.16330150  0.70666500  1
  Fe  Fe19  1  0.38136450  0.83669850  0.20666500  1
  Fe  Fe20  1  0.35777750  0.66556150  0.71104500  1
  Fe  Fe21  1  0.35777750  0.33443850  0.21104500  1
  Fe  Fe22  1  0.14222250  0.16556150  0.78895500  1
  Fe  Fe23  1  0.14222250  0.83443850  0.28895500  1
  Fe  Fe24  1  0.11863550  0.66330150  0.79333500  1
  Fe  Fe25  1  0.11863550  0.33669850  0.29333500  1
  Fe  Fe26  1  0.00000000  0.93204200  0.75000000  1
  Fe  Fe27  1  0.00000000  0.06795800  0.25000000  1
  Fe  Fe28  1  0.88136450  0.66330150  0.70666500  1
  Fe  Fe29  1  0.88136450  0.33669850  0.20666500  1
  Fe  Fe30  1  0.85777750  0.16556150  0.71104500  1
  Fe  Fe31  1  0.85777750  0.83443850  0.21104500  1
  O  O32  1  0.92210400  0.05978500  0.92225200  1
  O  O33  1  0.92210400  0.94021500  0.42225200  1
  O  O34  1  0.73157650  0.08874450  0.65538500  1
  O  O35  1  0.73157650  0.91125550  0.15538500  1
  O  O36  1  0.63598650  0.82057750  0.65004100  1
  O  O37  1  0.63598650  0.17942250  0.15004100  1
  O  O38  1  0.60180950  0.31321850  0.63297600  1
  O  O39  1  0.60180950  0.68678150  0.13297600  1
  O  O40  1  0.50000000  0.07491400  0.75000000  1
  O  O41  1  0.50000000  0.92508600  0.25000000  1
  O  O42  1  0.39819050  0.31321850  0.86702400  1
  O  O43  1  0.39819050  0.68678150  0.36702400  1
  O  O44  1  0.36401350  0.82057750  0.84995900  1
  O  O45  1  0.36401350  0.17942250  0.34995900  1
  O  O46  1  0.26842350  0.08874450  0.84461500  1
  O  O47  1  0.26842350  0.91125550  0.34461500  1
  O  O48  1  0.07789600  0.05978500  0.57774800  1
  O  O49  1  0.07789600  0.94021500  0.07774800  1
  O  O50  1  0.42210400  0.55978500  0.92225200  1
  O  O51  1  0.42210400  0.44021500  0.42225200  1
  O  O52  1  0.23157650  0.58874450  0.65538500  1
  O  O53  1  0.23157650  0.41125550  0.15538500  1
  O  O54  1  0.13598650  0.32057750  0.65004100  1
  O  O55  1  0.13598650  0.67942250  0.15004100  1
  O  O56  1  0.10180950  0.81321850  0.63297600  1
  O  O57  1  0.10180950  0.18678150  0.13297600  1
  O  O58  1  0.00000000  0.57491400  0.75000000  1
  O  O59  1  0.00000000  0.42508600  0.25000000  1
  O  O60  1  0.89819050  0.81321850  0.86702400  1
  O  O61  1  0.89819050  0.18678150  0.36702400  1
  O  O62  1  0.86401350  0.32057750  0.84995900  1
  O  O63  1  0.86401350  0.67942250  0.34995900  1
  O  O64  1  0.76842350  0.58874450  0.84461500  1
  O  O65  1  0.76842350  0.41125550  0.34461500  1
  O  O66  1  0.57789600  0.55978500  0.57774800  1
  O  O67  1  0.57789600  0.44021500  0.07774800  1
