# generated using pymatgen
data_Ho2WO6
_symmetry_space_group_name_H-M   'P 1'
_cell_length_a   16.32369800
_cell_length_b   11.07634800
_cell_length_c   5.38746293
_cell_angle_alpha   90.00000000
_cell_angle_beta   107.25303187
_cell_angle_gamma   90.00000000
_symmetry_Int_Tables_number   1
_chemical_formula_structural   Ho2WO6
_chemical_formula_sum   'Ho16 W8 O48'
_cell_volume   930.26084798
_cell_formula_units_Z   8
loop_
 _symmetry_equiv_pos_site_id
 _symmetry_equiv_pos_as_xyz
  1  'x, y, z'
loop_
 _atom_site_type_symbol
 _atom_site_label
 _atom_site_symmetry_multiplicity
 _atom_site_fract_x
 _atom_site_fract_y
 _atom_site_fract_z
 _atom_site_occupancy
  Ho  Ho0  1  0.50000000  0.39489800  0.25000000  1
  Ho  Ho1  1  0.50000000  0.86579400  0.25000000  1
  Ho  Ho2  1  0.82971050  0.88561350  0.61738800  1
  Ho  Ho3  1  0.82971050  0.11438650  0.11738800  1
  Ho  Ho4  1  0.17028950  0.88561350  0.88261200  1
  Ho  Ho5  1  0.17028950  0.11438650  0.38261200  1
  Ho  Ho6  1  0.50000000  0.13420600  0.75000000  1
  Ho  Ho7  1  0.50000000  0.60510200  0.75000000  1
  Ho  Ho8  1  0.00000000  0.89489800  0.25000000  1
  Ho  Ho9  1  0.00000000  0.36579400  0.25000000  1
  Ho  Ho10  1  0.32971050  0.38561350  0.61738800  1
  Ho  Ho11  1  0.32971050  0.61438650  0.11738800  1
  Ho  Ho12  1  0.67028950  0.38561350  0.88261200  1
  Ho  Ho13  1  0.67028950  0.61438650  0.38261200  1
  Ho  Ho14  1  0.00000000  0.63420600  0.75000000  1
  Ho  Ho15  1  0.00000000  0.10510200  0.75000000  1
  W  W16  1  0.65317750  0.14765250  0.43360200  1
  W  W17  1  0.34682250  0.14765250  0.06639800  1
  W  W18  1  0.65317750  0.85234750  0.93360200  1
  W  W19  1  0.34682250  0.85234750  0.56639800  1
  W  W20  1  0.15317750  0.64765250  0.43360200  1
  W  W21  1  0.84682250  0.64765250  0.06639800  1
  W  W22  1  0.15317750  0.35234750  0.93360200  1
  W  W23  1  0.84682250  0.35234750  0.56639800  1
  O  O24  1  0.90866450  0.01634850  0.92171300  1
  O  O25  1  0.73316250  0.20655550  0.73988600  1
  O  O26  1  0.57595200  0.26457700  0.57876000  1
  O  O27  1  0.57735200  0.03281200  0.47994400  1
  O  O28  1  0.42264800  0.03281200  0.02005600  1
  O  O29  1  0.42404800  0.26457700  0.92124000  1
  O  O30  1  0.90866450  0.98365150  0.42171300  1
  O  O31  1  0.39821100  0.22249400  0.38651400  1
  O  O32  1  0.39821100  0.77750600  0.88651400  1
  O  O33  1  0.26581950  0.04961050  0.14889000  1
  O  O34  1  0.26581950  0.95038950  0.64889000  1
  O  O35  1  0.26683750  0.20655550  0.76011400  1
  O  O36  1  0.73316250  0.79344450  0.23988600  1
  O  O37  1  0.73418050  0.04961050  0.35111000  1
  O  O38  1  0.73418050  0.95038950  0.85111000  1
  O  O39  1  0.60178900  0.22249400  0.11348600  1
  O  O40  1  0.60178900  0.77750600  0.61348600  1
  O  O41  1  0.09133550  0.01634850  0.57828700  1
  O  O42  1  0.57595200  0.73542300  0.07876000  1
  O  O43  1  0.57735200  0.96718800  0.97994400  1
  O  O44  1  0.42264800  0.96718800  0.52005600  1
  O  O45  1  0.42404800  0.73542300  0.42124000  1
  O  O46  1  0.26683750  0.79344450  0.26011400  1
  O  O47  1  0.09133550  0.98365150  0.07828700  1
  O  O48  1  0.40866450  0.51634850  0.92171300  1
  O  O49  1  0.23316250  0.70655550  0.73988600  1
  O  O50  1  0.07595200  0.76457700  0.57876000  1
  O  O51  1  0.07735200  0.53281200  0.47994400  1
  O  O52  1  0.92264800  0.53281200  0.02005600  1
  O  O53  1  0.92404800  0.76457700  0.92124000  1
  O  O54  1  0.40866450  0.48365150  0.42171300  1
  O  O55  1  0.89821100  0.72249400  0.38651400  1
  O  O56  1  0.89821100  0.27750600  0.88651400  1
  O  O57  1  0.76581950  0.54961050  0.14889000  1
  O  O58  1  0.76581950  0.45038950  0.64889000  1
  O  O59  1  0.76683750  0.70655550  0.76011400  1
  O  O60  1  0.23316250  0.29344450  0.23988600  1
  O  O61  1  0.23418050  0.54961050  0.35111000  1
  O  O62  1  0.23418050  0.45038950  0.85111000  1
  O  O63  1  0.10178900  0.72249400  0.11348600  1
  O  O64  1  0.10178900  0.27750600  0.61348600  1
  O  O65  1  0.59133550  0.51634850  0.57828700  1
  O  O66  1  0.07595200  0.23542300  0.07876000  1
  O  O67  1  0.07735200  0.46718800  0.97994400  1
  O  O68  1  0.92264800  0.46718800  0.52005600  1
  O  O69  1  0.92404800  0.23542300  0.42124000  1
  O  O70  1  0.76683750  0.29344450  0.26011400  1
  O  O71  1  0.59133550  0.48365150  0.07828700  1
