# generated using pymatgen
data_GdTa3O9
_symmetry_space_group_name_H-M   'P 1'
_cell_length_a   12.57043400
_cell_length_b   7.63790400
_cell_length_c   6.55455675
_cell_angle_alpha   90.00000000
_cell_angle_beta   94.50826342
_cell_angle_gamma   90.00000000
_symmetry_Int_Tables_number   1
_chemical_formula_structural   GdTa3O9
_chemical_formula_sum   'Gd4 Ta12 O36'
_cell_volume   627.36748822
_cell_formula_units_Z   4
loop_
 _symmetry_equiv_pos_site_id
 _symmetry_equiv_pos_as_xyz
  1  'x, y, z'
loop_
 _atom_site_type_symbol
 _atom_site_label
 _atom_site_symmetry_multiplicity
 _atom_site_fract_x
 _atom_site_fract_y
 _atom_site_fract_z
 _atom_site_occupancy
  Gd  Gd0  1  0.26822000  0.00000000  0.94598500  1
  Gd  Gd1  1  0.73178000  0.00000000  0.05401500  1
  Gd  Gd2  1  0.76822000  0.50000000  0.94598500  1
  Gd  Gd3  1  0.23178000  0.50000000  0.05401500  1
  Ta  Ta4  1  0.75000000  0.25000000  0.50000000  1
  Ta  Ta5  1  0.46549100  0.75149800  0.23605700  1
  Ta  Ta6  1  0.46549100  0.24850200  0.23605700  1
  Ta  Ta7  1  0.53450900  0.75149800  0.76394300  1
  Ta  Ta8  1  0.53450900  0.24850200  0.76394300  1
  Ta  Ta9  1  0.75000000  0.75000000  0.50000000  1
  Ta  Ta10  1  0.25000000  0.75000000  0.50000000  1
  Ta  Ta11  1  0.96549100  0.25149800  0.23605700  1
  Ta  Ta12  1  0.96549100  0.74850200  0.23605700  1
  Ta  Ta13  1  0.03450900  0.25149800  0.76394300  1
  Ta  Ta14  1  0.03450900  0.74850200  0.76394300  1
  Ta  Ta15  1  0.25000000  0.25000000  0.50000000  1
  O  O16  1  0.07383100  0.00000000  0.80999300  1
  O  O17  1  0.27039100  0.00000000  0.58379000  1
  O  O18  1  0.29078700  0.20987000  0.21765800  1
  O  O19  1  0.29078700  0.79013000  0.21765800  1
  O  O20  1  0.40940100  0.21733700  0.93020800  1
  O  O21  1  0.40940100  0.78266300  0.93020800  1
  O  O22  1  0.40852300  0.28636400  0.54549900  1
  O  O23  1  0.40852300  0.71363600  0.54549900  1
  O  O24  1  0.46035200  0.00000000  0.28250800  1
  O  O25  1  0.53964800  0.00000000  0.71749200  1
  O  O26  1  0.59147700  0.28636400  0.45450100  1
  O  O27  1  0.59147700  0.71363600  0.45450100  1
  O  O28  1  0.59059900  0.21733700  0.06979200  1
  O  O29  1  0.59059900  0.78266300  0.06979200  1
  O  O30  1  0.70921300  0.79013000  0.78234200  1
  O  O31  1  0.70921300  0.20987000  0.78234200  1
  O  O32  1  0.72960900  0.00000000  0.41621000  1
  O  O33  1  0.92616900  0.00000000  0.19000700  1
  O  O34  1  0.57383100  0.50000000  0.80999300  1
  O  O35  1  0.77039100  0.50000000  0.58379000  1
  O  O36  1  0.79078700  0.70987000  0.21765800  1
  O  O37  1  0.79078700  0.29013000  0.21765800  1
  O  O38  1  0.90940100  0.71733700  0.93020800  1
  O  O39  1  0.90940100  0.28266300  0.93020800  1
  O  O40  1  0.90852300  0.78636400  0.54549900  1
  O  O41  1  0.90852300  0.21363600  0.54549900  1
  O  O42  1  0.96035200  0.50000000  0.28250800  1
  O  O43  1  0.03964800  0.50000000  0.71749200  1
  O  O44  1  0.09147700  0.78636400  0.45450100  1
  O  O45  1  0.09147700  0.21363600  0.45450100  1
  O  O46  1  0.09059900  0.71733700  0.06979200  1
  O  O47  1  0.09059900  0.28266300  0.06979200  1
  O  O48  1  0.20921300  0.29013000  0.78234200  1
  O  O49  1  0.20921300  0.70987000  0.78234200  1
  O  O50  1  0.22960900  0.50000000  0.41621000  1
  O  O51  1  0.42616900  0.50000000  0.19000700  1
