# generated using pymatgen
data_Er(ReO4)3
_symmetry_space_group_name_H-M   'P 1'
_cell_length_a   8.94975219
_cell_length_b   8.94975219
_cell_length_c   26.31210182
_cell_angle_alpha   90.00000000
_cell_angle_beta   90.00000000
_cell_angle_gamma   120.00000000
_symmetry_Int_Tables_number   1
_chemical_formula_structural   Er(ReO4)3
_chemical_formula_sum   'Er6 Re18 O72'
_cell_volume   1825.19047369
_cell_formula_units_Z   6
loop_
 _symmetry_equiv_pos_site_id
 _symmetry_equiv_pos_as_xyz
  1  'x, y, z'
loop_
 _atom_site_type_symbol
 _atom_site_label
 _atom_site_symmetry_multiplicity
 _atom_site_fract_x
 _atom_site_fract_y
 _atom_site_fract_z
 _atom_site_occupancy
  Er  Er0  1  0.00000000  0.00000000  0.06018900  1
  Er  Er1  1  0.33333333  0.66666667  0.22685567  1
  Er  Er2  1  0.66666667  0.33333333  0.39352233  1
  Er  Er3  1  0.00000000  0.00000000  0.56018900  1
  Er  Er4  1  0.33333333  0.66666667  0.72685567  1
  Er  Er5  1  0.66666667  0.33333333  0.89352233  1
  Re  Re6  1  0.67519233  0.96913267  0.16527267  1
  Re  Re7  1  0.03086733  0.70605967  0.16527267  1
  Re  Re8  1  0.29394033  0.32480767  0.16527267  1
  Re  Re9  1  0.36420067  0.99147433  0.33193933  1
  Re  Re10  1  0.62727367  0.63579933  0.33193933  1
  Re  Re11  1  0.00852567  0.37272633  0.33193933  1
  Re  Re12  1  0.34185900  0.30246600  0.49860600  1
  Re  Re13  1  0.69753400  0.03939300  0.49860600  1
  Re  Re14  1  0.96060700  0.65814100  0.49860600  1
  Re  Re15  1  0.03086733  0.32480767  0.66527267  1
  Re  Re16  1  0.29394033  0.96913267  0.66527267  1
  Re  Re17  1  0.67519233  0.70605967  0.66527267  1
  Re  Re18  1  0.00852567  0.63579933  0.83193933  1
  Re  Re19  1  0.36420067  0.37272633  0.83193933  1
  Re  Re20  1  0.62727367  0.99147433  0.83193933  1
  Re  Re21  1  0.69753400  0.65814100  0.99860600  1
  Re  Re22  1  0.96060700  0.30246600  0.99860600  1
  Re  Re23  1  0.34185900  0.03939300  0.99860600  1
  O  O24  1  0.44517800  0.92338800  0.00902500  1
  O  O25  1  0.47821000  0.55482200  0.00902500  1
  O  O26  1  0.07661200  0.52179000  0.00902500  1
  O  O27  1  0.80247267  0.66055633  0.05506233  1
  O  O28  1  0.78379400  0.92320800  0.11618700  1
  O  O29  1  0.77851133  0.18845667  0.17569167  1
  O  O30  1  0.07679200  0.86058600  0.11618700  1
  O  O31  1  0.45178433  0.88431167  0.15524267  1
  O  O32  1  0.85808367  0.19752733  0.05506233  1
  O  O33  1  0.33944367  0.14191633  0.05506233  1
  O  O34  1  0.11568833  0.56747267  0.15524267  1
  O  O35  1  0.43252733  0.54821567  0.15524267  1
  O  O36  1  0.67277700  0.86419400  0.22172900  1
  O  O37  1  0.81154333  0.59005467  0.17569167  1
  O  O38  1  0.13580600  0.80858300  0.22172900  1
  O  O39  1  0.13941400  0.21620600  0.11618700  1
  O  O40  1  0.78511767  0.23413933  0.32190933  1
  O  O41  1  0.44902167  0.21488233  0.32190933  1
  O  O42  1  0.40994533  0.22148867  0.17569167  1
  O  O43  1  0.41012533  0.88287267  0.28285367  1
  O  O44  1  0.19141700  0.32722300  0.22172900  1
  O  O45  1  0.47274733  0.58987467  0.28285367  1
  O  O46  1  0.11712733  0.52725267  0.28285367  1
  O  O47  1  0.76586067  0.55097833  0.32190933  1
  O  O48  1  0.11184467  0.25672133  0.34235833  1
  O  O49  1  0.14487667  0.88815533  0.34235833  1
  O  O50  1  0.74327867  0.85512333  0.34235833  1
  O  O51  1  0.46913933  0.99388967  0.38839567  1
  O  O52  1  0.45046067  0.25654133  0.44952033  1
  O  O53  1  0.44517800  0.52179000  0.50902500  1
  O  O54  1  0.74345867  0.19391933  0.44952033  1
  O  O55  1  0.11845100  0.21764500  0.48857600  1
  O  O56  1  0.52475033  0.53086067  0.38839567  1
  O  O57  1  0.00611033  0.47524967  0.38839567  1
  O  O58  1  0.78235500  0.90080600  0.48857600  1
  O  O59  1  0.09919400  0.88154900  0.48857600  1
  O  O60  1  0.33944367  0.19752733  0.55506233  1
  O  O61  1  0.47821000  0.92338800  0.50902500  1
  O  O62  1  0.80247267  0.14191633  0.55506233  1
  O  O63  1  0.80608067  0.54953933  0.44952033  1
  O  O64  1  0.45178433  0.56747267  0.65524267  1
  O  O65  1  0.11568833  0.54821567  0.65524267  1
  O  O66  1  0.07661200  0.55482200  0.50902500  1
  O  O67  1  0.07679200  0.21620600  0.61618700  1
  O  O68  1  0.85808367  0.66055633  0.55506233  1
  O  O69  1  0.13941400  0.92320800  0.61618700  1
  O  O70  1  0.78379400  0.86058600  0.61618700  1
  O  O71  1  0.43252733  0.88431167  0.65524267  1
  O  O72  1  0.77851133  0.59005467  0.67569167  1
  O  O73  1  0.81154333  0.22148867  0.67569167  1
  O  O74  1  0.40994533  0.18845667  0.67569167  1
  O  O75  1  0.13580600  0.32722300  0.72172900  1
  O  O76  1  0.11712733  0.58987467  0.78285367  1
  O  O77  1  0.11184467  0.85512333  0.84235833  1
  O  O78  1  0.41012533  0.52725267  0.78285367  1
  O  O79  1  0.78511767  0.55097833  0.82190933  1
  O  O80  1  0.19141700  0.86419400  0.72172900  1
  O  O81  1  0.67277700  0.80858300  0.72172900  1
  O  O82  1  0.44902167  0.23413933  0.82190933  1
  O  O83  1  0.76586067  0.21488233  0.82190933  1
  O  O84  1  0.00611033  0.53086067  0.88839567  1
  O  O85  1  0.14487667  0.25672133  0.84235833  1
  O  O86  1  0.46913933  0.47524967  0.88839567  1
  O  O87  1  0.47274733  0.88287267  0.78285367  1
  O  O88  1  0.11845100  0.90080600  0.98857600  1
  O  O89  1  0.78235500  0.88154900  0.98857600  1
  O  O90  1  0.74327867  0.88815533  0.84235833  1
  O  O91  1  0.74345867  0.54953933  0.94952033  1
  O  O92  1  0.52475033  0.99388967  0.88839567  1
  O  O93  1  0.80608067  0.25654133  0.94952033  1
  O  O94  1  0.45046067  0.19391933  0.94952033  1
  O  O95  1  0.09919400  0.21764500  0.98857600  1
