# generated using pymatgen
data_Y2GeO5
_symmetry_space_group_name_H-M   'P 1'
_cell_length_a   11.75300600
_cell_length_b   5.20407600
_cell_length_c   7.35059491
_cell_angle_alpha   90.00000000
_cell_angle_beta   113.27364452
_cell_angle_gamma   90.00000000
_symmetry_Int_Tables_number   1
_chemical_formula_structural   Y2GeO5
_chemical_formula_sum   'Y8 Ge4 O20'
_cell_volume   413.00457801
_cell_formula_units_Z   4
loop_
 _symmetry_equiv_pos_site_id
 _symmetry_equiv_pos_as_xyz
  1  'x, y, z'
loop_
 _atom_site_type_symbol
 _atom_site_label
 _atom_site_symmetry_multiplicity
 _atom_site_fract_x
 _atom_site_fract_y
 _atom_site_fract_z
 _atom_site_occupancy
  Y  Y0  1  0.14742900  0.47484000  0.78556900  1
  Y  Y1  1  0.14742900  0.52516000  0.28556900  1
  Y  Y2  1  0.35257100  0.97484000  0.71443100  1
  Y  Y3  1  0.35257100  0.02516000  0.21443100  1
  Y  Y4  1  0.64742900  0.97484000  0.78556900  1
  Y  Y5  1  0.64742900  0.02516000  0.28556900  1
  Y  Y6  1  0.85257100  0.47484000  0.71443100  1
  Y  Y7  1  0.85257100  0.52516000  0.21443100  1
  Ge  Ge8  1  0.00000000  0.00000000  0.50000000  1
  Ge  Ge9  1  0.00000000  0.00000000  0.00000000  1
  Ge  Ge10  1  0.50000000  0.50000000  0.50000000  1
  Ge  Ge11  1  0.50000000  0.50000000  0.00000000  1
  O  O12  1  0.07949050  0.70213150  0.97461300  1
  O  O13  1  0.07949050  0.29786850  0.47461300  1
  O  O14  1  0.16250700  0.83186700  0.62692500  1
  O  O15  1  0.33749300  0.33186700  0.87307500  1
  O  O16  1  0.16250700  0.16813300  0.12692500  1
  O  O17  1  0.33749300  0.66813300  0.37307500  1
  O  O18  1  0.42050950  0.20213150  0.52538700  1
  O  O19  1  0.00000000  0.15613800  0.75000000  1
  O  O20  1  0.42050950  0.79786850  0.02538700  1
  O  O21  1  0.00000000  0.84386200  0.25000000  1
  O  O22  1  0.57949050  0.20213150  0.97461300  1
  O  O23  1  0.57949050  0.79786850  0.47461300  1
  O  O24  1  0.66250700  0.33186700  0.62692500  1
  O  O25  1  0.83749300  0.83186700  0.87307500  1
  O  O26  1  0.66250700  0.66813300  0.12692500  1
  O  O27  1  0.83749300  0.16813300  0.37307500  1
  O  O28  1  0.92050950  0.70213150  0.52538700  1
  O  O29  1  0.50000000  0.65613800  0.75000000  1
  O  O30  1  0.92050950  0.29786850  0.02538700  1
  O  O31  1  0.50000000  0.34386200  0.25000000  1
