# generated using pymatgen
data_Al2(SeO4)3
_symmetry_space_group_name_H-M   'P 1'
_cell_length_a   8.70960900
_cell_length_b   8.78209300
_cell_length_c   12.20260000
_cell_angle_alpha   90.00000000
_cell_angle_beta   90.00000000
_cell_angle_gamma   90.00000000
_symmetry_Int_Tables_number   1
_chemical_formula_structural   Al2(SeO4)3
_chemical_formula_sum   'Al8 Se12 O48'
_cell_volume   933.35974438
_cell_formula_units_Z   4
loop_
 _symmetry_equiv_pos_site_id
 _symmetry_equiv_pos_as_xyz
  1  'x, y, z'
loop_
 _atom_site_type_symbol
 _atom_site_label
 _atom_site_symmetry_multiplicity
 _atom_site_fract_x
 _atom_site_fract_y
 _atom_site_fract_z
 _atom_site_occupancy
  Al  Al0  1  0.24872400  0.96418500  0.11556800  1
  Al  Al1  1  0.75127600  0.46418500  0.11556800  1
  Al  Al2  1  0.25127600  0.46418500  0.38443200  1
  Al  Al3  1  0.74872400  0.96418500  0.38443200  1
  Al  Al4  1  0.25127600  0.03581500  0.61556800  1
  Al  Al5  1  0.74872400  0.53581500  0.61556800  1
  Al  Al6  1  0.24872400  0.53581500  0.88443200  1
  Al  Al7  1  0.75127600  0.03581500  0.88443200  1
  Se  Se8  1  0.47615800  0.25000000  0.00000000  1
  Se  Se9  1  0.52384200  0.75000000  0.00000000  1
  Se  Se10  1  0.10367100  0.61748200  0.14799800  1
  Se  Se11  1  0.89632900  0.11748200  0.14799800  1
  Se  Se12  1  0.39632900  0.11748200  0.35200200  1
  Se  Se13  1  0.60367100  0.61748200  0.35200200  1
  Se  Se14  1  0.02384200  0.75000000  0.50000000  1
  Se  Se15  1  0.97615800  0.25000000  0.50000000  1
  Se  Se16  1  0.39632900  0.38251800  0.64799800  1
  Se  Se17  1  0.60367100  0.88251800  0.64799800  1
  Se  Se18  1  0.10367100  0.88251800  0.85200200  1
  Se  Se19  1  0.89632900  0.38251800  0.85200200  1
  O  O20  1  0.81782200  0.06917100  0.02982200  1
  O  O21  1  0.18217800  0.56917100  0.02982200  1
  O  O22  1  0.63236100  0.63089700  0.06893900  1
  O  O23  1  0.36763900  0.13089700  0.06893900  1
  O  O24  1  0.58013900  0.33092700  0.09871900  1
  O  O25  1  0.41986100  0.83092700  0.09871900  1
  O  O26  1  0.08637900  0.10377100  0.14433700  1
  O  O27  1  0.91362100  0.60377100  0.14433700  1
  O  O28  1  0.13081700  0.80159800  0.17619400  1
  O  O29  1  0.86918300  0.30159800  0.17619400  1
  O  O30  1  0.18289400  0.49821300  0.23690100  1
  O  O31  1  0.81710600  0.99821300  0.23690100  1
  O  O32  1  0.31710600  0.99821300  0.26309900  1
  O  O33  1  0.68289400  0.49821300  0.26309900  1
  O  O34  1  0.36918300  0.30159800  0.32380600  1
  O  O35  1  0.63081700  0.80159800  0.32380600  1
  O  O36  1  0.41362100  0.60377100  0.35566300  1
  O  O37  1  0.58637900  0.10377100  0.35566300  1
  O  O38  1  0.08013900  0.33092700  0.40128100  1
  O  O39  1  0.91986100  0.83092700  0.40128100  1
  O  O40  1  0.13236100  0.63089700  0.43106100  1
  O  O41  1  0.86763900  0.13089700  0.43106100  1
  O  O42  1  0.31782200  0.06917100  0.47017800  1
  O  O43  1  0.68217800  0.56917100  0.47017800  1
  O  O44  1  0.31782200  0.43082900  0.52982200  1
  O  O45  1  0.68217800  0.93082900  0.52982200  1
  O  O46  1  0.13236100  0.86910300  0.56893900  1
  O  O47  1  0.86763900  0.36910300  0.56893900  1
  O  O48  1  0.08013900  0.16907300  0.59871900  1
  O  O49  1  0.91986100  0.66907300  0.59871900  1
  O  O50  1  0.41362100  0.89622900  0.64433700  1
  O  O51  1  0.58637900  0.39622900  0.64433700  1
  O  O52  1  0.36918300  0.19840200  0.67619400  1
  O  O53  1  0.63081700  0.69840200  0.67619400  1
  O  O54  1  0.31710600  0.50178700  0.73690100  1
  O  O55  1  0.68289400  0.00178700  0.73690100  1
  O  O56  1  0.18289400  0.00178700  0.76309900  1
  O  O57  1  0.81710600  0.50178700  0.76309900  1
  O  O58  1  0.13081700  0.69840200  0.82380600  1
  O  O59  1  0.86918300  0.19840200  0.82380600  1
  O  O60  1  0.08637900  0.39622900  0.85566300  1
  O  O61  1  0.91362100  0.89622900  0.85566300  1
  O  O62  1  0.41986100  0.66907300  0.90128100  1
  O  O63  1  0.58013900  0.16907300  0.90128100  1
  O  O64  1  0.36763900  0.36910300  0.93106100  1
  O  O65  1  0.63236100  0.86910300  0.93106100  1
  O  O66  1  0.18217800  0.93082900  0.97017800  1
  O  O67  1  0.81782200  0.43082900  0.97017800  1
