# generated using pymatgen
data_Dy2TiO5
_symmetry_space_group_name_H-M   'P 1'
_cell_length_a   11.80560000
_cell_length_b   5.28397800
_cell_length_c   7.55119748
_cell_angle_alpha   90.00000000
_cell_angle_beta   114.06022456
_cell_angle_gamma   90.00000000
_symmetry_Int_Tables_number   1
_chemical_formula_structural   Dy2TiO5
_chemical_formula_sum   'Dy8 Ti4 O20'
_cell_volume   430.12186849
_cell_formula_units_Z   4
loop_
 _symmetry_equiv_pos_site_id
 _symmetry_equiv_pos_as_xyz
  1  'x, y, z'
loop_
 _atom_site_type_symbol
 _atom_site_label
 _atom_site_symmetry_multiplicity
 _atom_site_fract_x
 _atom_site_fract_y
 _atom_site_fract_z
 _atom_site_occupancy
  Dy  Dy0  1  0.36020450  0.98781650  0.74186300  1
  Dy  Dy1  1  0.36020450  0.01218350  0.24186300  1
  Dy  Dy2  1  0.13979550  0.48781650  0.75813700  1
  Dy  Dy3  1  0.13979550  0.51218350  0.25813700  1
  Dy  Dy4  1  0.86020450  0.48781650  0.74186300  1
  Dy  Dy5  1  0.86020450  0.51218350  0.24186300  1
  Dy  Dy6  1  0.63979550  0.98781650  0.75813700  1
  Dy  Dy7  1  0.63979550  0.01218350  0.25813700  1
  Ti  Ti8  1  0.00000000  0.00000000  0.50000000  1
  Ti  Ti9  1  0.00000000  0.00000000  0.00000000  1
  Ti  Ti10  1  0.50000000  0.50000000  0.50000000  1
  Ti  Ti11  1  0.50000000  0.50000000  0.00000000  1
  O  O12  1  0.16812450  0.85311950  0.63980600  1
  O  O13  1  0.16812450  0.14688050  0.13980600  1
  O  O14  1  0.42837850  0.18288950  0.54114700  1
  O  O15  1  0.00000000  0.16485200  0.75000000  1
  O  O16  1  0.07162150  0.68288950  0.95885300  1
  O  O17  1  0.42837850  0.81711050  0.04114700  1
  O  O18  1  0.00000000  0.83514800  0.25000000  1
  O  O19  1  0.07162150  0.31711050  0.45885300  1
  O  O20  1  0.33187550  0.35311950  0.86019400  1
  O  O21  1  0.33187550  0.64688050  0.36019400  1
  O  O22  1  0.66812450  0.35311950  0.63980600  1
  O  O23  1  0.66812450  0.64688050  0.13980600  1
  O  O24  1  0.92837850  0.68288950  0.54114700  1
  O  O25  1  0.50000000  0.66485200  0.75000000  1
  O  O26  1  0.57162150  0.18288950  0.95885300  1
  O  O27  1  0.92837850  0.31711050  0.04114700  1
  O  O28  1  0.50000000  0.33514800  0.25000000  1
  O  O29  1  0.57162150  0.81711050  0.45885300  1
  O  O30  1  0.83187550  0.85311950  0.86019400  1
  O  O31  1  0.83187550  0.14688050  0.36019400  1
