# generated using pymatgen
data_CaAl2Si2(H2O5)2
_symmetry_space_group_name_H-M   'P 1'
_cell_length_a   5.89934000
_cell_length_b   8.90125400
_cell_length_c   13.26602900
_cell_angle_alpha   90.00000000
_cell_angle_beta   90.00000000
_cell_angle_gamma   90.00000000
_symmetry_Int_Tables_number   1
_chemical_formula_structural   CaAl2Si2(H2O5)2
_chemical_formula_sum   'Ca4 Al8 Si8 H16 O40'
_cell_volume   696.61939720
_cell_formula_units_Z   4
loop_
 _symmetry_equiv_pos_site_id
 _symmetry_equiv_pos_as_xyz
  1  'x, y, z'
loop_
 _atom_site_type_symbol
 _atom_site_label
 _atom_site_symmetry_multiplicity
 _atom_site_fract_x
 _atom_site_fract_y
 _atom_site_fract_z
 _atom_site_occupancy
  Ca  Ca0  1  0.50000000  0.83582300  0.25000000  1
  Ca  Ca1  1  0.50000000  0.16417700  0.75000000  1
  Ca  Ca2  1  0.00000000  0.33582300  0.25000000  1
  Ca  Ca3  1  0.00000000  0.66417700  0.75000000  1
  Al  Al4  1  0.25000000  0.75000000  0.50000000  1
  Al  Al5  1  0.25000000  0.25000000  0.50000000  1
  Al  Al6  1  0.25000000  0.75000000  0.00000000  1
  Al  Al7  1  0.25000000  0.25000000  0.00000000  1
  Al  Al8  1  0.75000000  0.25000000  0.50000000  1
  Al  Al9  1  0.75000000  0.75000000  0.50000000  1
  Al  Al10  1  0.75000000  0.25000000  0.00000000  1
  Al  Al11  1  0.75000000  0.75000000  0.00000000  1
  Si  Si12  1  0.50000000  0.48196300  0.36739100  1
  Si  Si13  1  0.50000000  0.51803700  0.63260900  1
  Si  Si14  1  0.50000000  0.48196300  0.13260900  1
  Si  Si15  1  0.50000000  0.51803700  0.86739100  1
  Si  Si16  1  0.00000000  0.98196300  0.36739100  1
  Si  Si17  1  0.00000000  0.01803700  0.63260900  1
  Si  Si18  1  0.00000000  0.98196300  0.13260900  1
  Si  Si19  1  0.00000000  0.01803700  0.86739100  1
  H  H20  1  0.50000000  0.16257400  0.31208500  1
  H  H21  1  0.50000000  0.83742600  0.68791500  1
  H  H22  1  0.50000000  0.16257400  0.18791500  1
  H  H23  1  0.50000000  0.83742600  0.81208500  1
  H  H24  1  0.50000000  0.03496900  0.43658700  1
  H  H25  1  0.50000000  0.96503100  0.56341300  1
  H  H26  1  0.50000000  0.03496900  0.06341300  1
  H  H27  1  0.50000000  0.96503100  0.93658700  1
  H  H28  1  0.00000000  0.66257400  0.31208500  1
  H  H29  1  0.00000000  0.33742600  0.68791500  1
  H  H30  1  0.00000000  0.66257400  0.18791500  1
  H  H31  1  0.00000000  0.33742600  0.81208500  1
  H  H32  1  0.00000000  0.53496900  0.43658700  1
  H  H33  1  0.00000000  0.46503100  0.56341300  1
  H  H34  1  0.00000000  0.53496900  0.06341300  1
  H  H35  1  0.00000000  0.46503100  0.93658700  1
  O  O36  1  0.50000000  0.54891300  0.25000000  1
  O  O37  1  0.50000000  0.45108700  0.75000000  1
  O  O38  1  0.22910950  0.88152650  0.38477200  1
  O  O39  1  0.22910950  0.11847350  0.61522800  1
  O  O40  1  0.22910950  0.88152650  0.11522800  1
  O  O41  1  0.22910950  0.11847350  0.88477200  1
  O  O42  1  0.77089050  0.11847350  0.61522800  1
  O  O43  1  0.77089050  0.88152650  0.38477200  1
  O  O44  1  0.77089050  0.11847350  0.88477200  1
  O  O45  1  0.77089050  0.88152650  0.11522800  1
  O  O46  1  0.50000000  0.63948600  0.43476000  1
  O  O47  1  0.50000000  0.36051400  0.56524000  1
  O  O48  1  0.50000000  0.63948600  0.06524000  1
  O  O49  1  0.50000000  0.36051400  0.93476000  1
  O  O50  1  0.50000000  0.14342400  0.44793100  1
  O  O51  1  0.50000000  0.85657600  0.55206900  1
  O  O52  1  0.50000000  0.14342400  0.05206900  1
  O  O53  1  0.50000000  0.85657600  0.94793100  1
  O  O54  1  0.50000000  0.10197900  0.25000000  1
  O  O55  1  0.50000000  0.89802100  0.75000000  1
  O  O56  1  0.00000000  0.04891300  0.25000000  1
  O  O57  1  0.00000000  0.95108700  0.75000000  1
  O  O58  1  0.72910950  0.38152650  0.38477200  1
  O  O59  1  0.72910950  0.61847350  0.61522800  1
  O  O60  1  0.72910950  0.38152650  0.11522800  1
  O  O61  1  0.72910950  0.61847350  0.88477200  1
  O  O62  1  0.27089050  0.61847350  0.61522800  1
  O  O63  1  0.27089050  0.38152650  0.38477200  1
  O  O64  1  0.27089050  0.61847350  0.88477200  1
  O  O65  1  0.27089050  0.38152650  0.11522800  1
  O  O66  1  0.00000000  0.13948600  0.43476000  1
  O  O67  1  0.00000000  0.86051400  0.56524000  1
  O  O68  1  0.00000000  0.13948600  0.06524000  1
  O  O69  1  0.00000000  0.86051400  0.93476000  1
  O  O70  1  0.00000000  0.64342400  0.44793100  1
  O  O71  1  0.00000000  0.35657600  0.55206900  1
  O  O72  1  0.00000000  0.64342400  0.05206900  1
  O  O73  1  0.00000000  0.35657600  0.94793100  1
  O  O74  1  0.00000000  0.60197900  0.25000000  1
  O  O75  1  0.00000000  0.39802100  0.75000000  1
