# generated using pymatgen
data_Li4Ti2Cr3Ni3O16
_symmetry_space_group_name_H-M   'P 1'
_cell_length_a   10.23241400
_cell_length_b   5.80181000
_cell_length_c   9.45267878
_cell_angle_alpha   90.00000000
_cell_angle_beta   92.20872490
_cell_angle_gamma   90.00000000
_symmetry_Int_Tables_number   1
_chemical_formula_structural   Li4Ti2Cr3Ni3O16
_chemical_formula_sum   'Li8 Ti4 Cr6 Ni6 O32'
_cell_volume   560.75574349
_cell_formula_units_Z   2
loop_
 _symmetry_equiv_pos_site_id
 _symmetry_equiv_pos_as_xyz
  1  'x, y, z'
loop_
 _atom_site_type_symbol
 _atom_site_label
 _atom_site_symmetry_multiplicity
 _atom_site_fract_x
 _atom_site_fract_y
 _atom_site_fract_z
 _atom_site_occupancy
  Li  Li0  1  0.66059700  0.00000000  0.89179700  1
  Li  Li1  1  0.99774100  0.00000000  0.99279800  1
  Li  Li2  1  0.99710100  0.00000000  0.49520000  1
  Li  Li3  1  0.83664600  0.50000000  0.39603300  1
  Li  Li4  1  0.16059700  0.50000000  0.89179700  1
  Li  Li5  1  0.49774100  0.50000000  0.99279800  1
  Li  Li6  1  0.49710100  0.50000000  0.49520000  1
  Li  Li7  1  0.33664600  0.00000000  0.39603300  1
  Ti  Ti8  1  0.66305600  0.00000000  0.50017400  1
  Ti  Ti9  1  0.83203000  0.50000000  0.99812300  1
  Ti  Ti10  1  0.16305600  0.50000000  0.50017400  1
  Ti  Ti11  1  0.33203000  0.00000000  0.99812300  1
  Cr  Cr12  1  0.59130250  0.24477050  0.21958100  1
  Cr  Cr13  1  0.59130250  0.75522950  0.21958100  1
  Cr  Cr14  1  0.67081600  0.50000000  0.72146300  1
  Cr  Cr15  1  0.09130250  0.74477050  0.21958100  1
  Cr  Cr16  1  0.09130250  0.25522950  0.21958100  1
  Cr  Cr17  1  0.17081600  0.00000000  0.72146300  1
  Ni  Ni18  1  0.82960300  0.00000000  0.20893700  1
  Ni  Ni19  1  0.91214200  0.74497400  0.71194100  1
  Ni  Ni20  1  0.91214200  0.25502600  0.71194100  1
  Ni  Ni21  1  0.32960300  0.50000000  0.20893700  1
  Ni  Ni22  1  0.41214200  0.24497400  0.71194100  1
  Ni  Ni23  1  0.41214200  0.75502600  0.71194100  1
  O  O24  1  0.59114000  0.25388200  0.59554400  1
  O  O25  1  0.52053500  0.00000000  0.34207600  1
  O  O26  1  0.64877900  0.00000000  0.10338500  1
  O  O27  1  0.50757000  0.50000000  0.30393600  1
  O  O28  1  0.50024700  0.50000000  0.80390400  1
  O  O29  1  0.59114000  0.74611800  0.59554400  1
  O  O30  1  0.73568800  0.22592600  0.34178500  1
  O  O31  1  0.73568800  0.77407400  0.34178500  1
  O  O32  1  0.66871100  0.50000000  0.10000100  1
  O  O33  1  0.83634800  0.00000000  0.59566500  1
  O  O34  1  0.75013150  0.71781550  0.84349800  1
  O  O35  1  0.75013150  0.28218450  0.84349800  1
  O  O36  1  0.82774400  0.50000000  0.61080800  1
  O  O37  1  0.92064100  0.74347900  0.09179300  1
  O  O38  1  0.97396700  0.50000000  0.83303700  1
  O  O39  1  0.92064100  0.25652100  0.09179300  1
  O  O40  1  0.09114000  0.75388200  0.59554400  1
  O  O41  1  0.02053500  0.50000000  0.34207600  1
  O  O42  1  0.14877900  0.50000000  0.10338500  1
  O  O43  1  0.00757000  0.00000000  0.30393600  1
  O  O44  1  0.00024700  0.00000000  0.80390400  1
  O  O45  1  0.09114000  0.24611800  0.59554400  1
  O  O46  1  0.23568800  0.72592600  0.34178500  1
  O  O47  1  0.23568800  0.27407400  0.34178500  1
  O  O48  1  0.16871100  0.00000000  0.10000100  1
  O  O49  1  0.33634800  0.50000000  0.59566500  1
  O  O50  1  0.25013150  0.21781550  0.84349800  1
  O  O51  1  0.25013150  0.78218450  0.84349800  1
  O  O52  1  0.32774400  0.00000000  0.61080800  1
  O  O53  1  0.42064100  0.24347900  0.09179300  1
  O  O54  1  0.47396700  0.00000000  0.83303700  1
  O  O55  1  0.42064100  0.75652100  0.09179300  1
