# generated using pymatgen
data_Ba2Y7Cl25
_symmetry_space_group_name_H-M   'P 1'
_cell_length_a   7.46252100
_cell_length_b   9.37255300
_cell_length_c   39.97285537
_cell_angle_alpha   90.00000000
_cell_angle_beta   99.88000981
_cell_angle_gamma   90.00000000
_symmetry_Int_Tables_number   1
_chemical_formula_structural   Ba2Y7Cl25
_chemical_formula_sum   'Ba4 Y14 Cl50'
_cell_volume   2754.35232022
_cell_formula_units_Z   2
loop_
 _symmetry_equiv_pos_site_id
 _symmetry_equiv_pos_as_xyz
  1  'x, y, z'
loop_
 _atom_site_type_symbol
 _atom_site_label
 _atom_site_symmetry_multiplicity
 _atom_site_fract_x
 _atom_site_fract_y
 _atom_site_fract_z
 _atom_site_occupancy
  Ba  Ba0  1  0.81075300  0.18301000  0.78465800  1
  Ba  Ba1  1  0.18924700  0.68301000  0.71534200  1
  Ba  Ba2  1  0.81075300  0.31699000  0.28465800  1
  Ba  Ba3  1  0.18924700  0.81699000  0.21534200  1
  Y  Y4  1  0.35686400  0.97776700  0.34001100  1
  Y  Y5  1  0.55136100  0.66924700  0.55425500  1
  Y  Y6  1  0.00000000  0.50000000  0.00000000  1
  Y  Y7  1  0.89666000  0.83317000  0.89267000  1
  Y  Y8  1  0.64313600  0.47776700  0.15998900  1
  Y  Y9  1  0.55136100  0.83075300  0.05425500  1
  Y  Y10  1  0.10334000  0.33317000  0.60733000  1
  Y  Y11  1  0.00000000  0.00000000  0.50000000  1
  Y  Y12  1  0.89666000  0.66683000  0.39267000  1
  Y  Y13  1  0.44863900  0.16924700  0.94574500  1
  Y  Y14  1  0.35686400  0.52223300  0.84001100  1
  Y  Y15  1  0.10334000  0.16683000  0.10733000  1
  Y  Y16  1  0.44863900  0.33075300  0.44574500  1
  Y  Y17  1  0.64313600  0.02223300  0.65998900  1
  Cl  Cl18  1  0.04346200  0.33382400  0.05344600  1
  Cl  Cl19  1  0.50000000  0.50000000  0.50000000  1
  Cl  Cl20  1  0.62022200  0.83087200  0.60929600  1
  Cl  Cl21  1  0.83795500  0.93831300  0.83116300  1
  Cl  Cl22  1  0.32171900  0.78786200  0.28998300  1
  Cl  Cl23  1  0.35917500  0.59700000  0.17920700  1
  Cl  Cl24  1  0.29640500  0.96973800  0.08051200  1
  Cl  Cl25  1  0.70397200  0.15190600  0.47525500  1
  Cl  Cl26  1  0.80926300  0.48890000  0.58455400  1
  Cl  Cl27  1  0.20146000  0.31615100  0.97186800  1
  Cl  Cl28  1  0.57937600  0.80191000  0.37833500  1
  Cl  Cl29  1  0.84362700  0.84705100  0.70439500  1
  Cl  Cl30  1  0.07825500  0.63194800  0.86463400  1
  Cl  Cl31  1  0.42062400  0.30191000  0.12166500  1
  Cl  Cl32  1  0.92174500  0.13194800  0.63536600  1
  Cl  Cl33  1  0.15637300  0.34705100  0.79560500  1
  Cl  Cl34  1  0.29602800  0.65190600  0.02474500  1
  Cl  Cl35  1  0.70359500  0.46973800  0.41948800  1
  Cl  Cl36  1  0.79854000  0.81615100  0.52813200  1
  Cl  Cl37  1  0.19073700  0.98890000  0.91544600  1
  Cl  Cl38  1  0.64082500  0.09700000  0.32079300  1
  Cl  Cl39  1  0.67828100  0.28786200  0.21001700  1
  Cl  Cl40  1  0.16204500  0.43831300  0.66883700  1
  Cl  Cl41  1  0.37977800  0.33087200  0.89070400  1
  Cl  Cl42  1  0.95653800  0.83382400  0.44655400  1
  Cl  Cl43  1  0.04346200  0.16617600  0.55344600  1
  Cl  Cl44  1  0.50000000  0.00000000  0.00000000  1
  Cl  Cl45  1  0.62022200  0.66912800  0.10929600  1
  Cl  Cl46  1  0.83795500  0.56168700  0.33116300  1
  Cl  Cl47  1  0.32171900  0.71213800  0.78998300  1
  Cl  Cl48  1  0.35917500  0.90300000  0.67920700  1
  Cl  Cl49  1  0.80926300  0.01110000  0.08455400  1
  Cl  Cl50  1  0.20146000  0.18384900  0.47186800  1
  Cl  Cl51  1  0.29640500  0.53026200  0.58051200  1
  Cl  Cl52  1  0.70397200  0.34809400  0.97525500  1
  Cl  Cl53  1  0.84362700  0.65294900  0.20439500  1
  Cl  Cl54  1  0.07825500  0.86805200  0.36463400  1
  Cl  Cl55  1  0.57937600  0.69809000  0.87833500  1
  Cl  Cl56  1  0.92174500  0.36805200  0.13536600  1
  Cl  Cl57  1  0.15637300  0.15294900  0.29560500  1
  Cl  Cl58  1  0.42062400  0.19809000  0.62166500  1
  Cl  Cl59  1  0.79854000  0.68384900  0.02813200  1
  Cl  Cl60  1  0.19073700  0.51110000  0.41544600  1
  Cl  Cl61  1  0.29602800  0.84809400  0.52474500  1
  Cl  Cl62  1  0.70359500  0.03026200  0.91948800  1
  Cl  Cl63  1  0.64082500  0.40300000  0.82079300  1
  Cl  Cl64  1  0.67828100  0.21213800  0.71001700  1
  Cl  Cl65  1  0.16204500  0.06168700  0.16883700  1
  Cl  Cl66  1  0.37977800  0.16912800  0.39070400  1
  Cl  Cl67  1  0.95653800  0.66617600  0.94655400  1
