# generated using pymatgen
data_NaYH8(CO3)4
_symmetry_space_group_name_H-M   'P 1'
_cell_length_a   8.78721200
_cell_length_b   8.65442500
_cell_length_c   15.03030096
_cell_angle_alpha   90.00000000
_cell_angle_beta   103.27459600
_cell_angle_gamma   90.00000000
_symmetry_Int_Tables_number   1
_chemical_formula_structural   NaYH8(CO3)4
_chemical_formula_sum   'Na4 Y4 H32 C16 O48'
_cell_volume   1112.48751473
_cell_formula_units_Z   4
loop_
 _symmetry_equiv_pos_site_id
 _symmetry_equiv_pos_as_xyz
  1  'x, y, z'
loop_
 _atom_site_type_symbol
 _atom_site_label
 _atom_site_symmetry_multiplicity
 _atom_site_fract_x
 _atom_site_fract_y
 _atom_site_fract_z
 _atom_site_occupancy
  Na  Na0  1  0.99254900  0.32165800  0.52204000  1
  Na  Na1  1  0.99254900  0.67834200  0.02204000  1
  Na  Na2  1  0.31480200  0.62010700  0.51737700  1
  Na  Na3  1  0.31480200  0.37989300  0.01737700  1
  Y  Y4  1  0.66250800  0.59427300  0.73417100  1
  Y  Y5  1  0.66250800  0.40572700  0.23417100  1
  Y  Y6  1  0.19465600  0.09472800  0.80442000  1
  Y  Y7  1  0.19465600  0.90527200  0.30442000  1
  H  H8  1  0.35507500  0.96092500  0.51016300  1
  H  H9  1  0.35507500  0.03907500  0.01016300  1
  H  H10  1  0.17136200  0.94759200  0.50163400  1
  H  H11  1  0.17136200  0.05240800  0.00163400  1
  H  H12  1  0.64266500  0.67842500  0.53136300  1
  H  H13  1  0.64266500  0.32157500  0.03136300  1
  H  H14  1  0.63455700  0.49398000  0.53702000  1
  H  H15  1  0.63455700  0.50602000  0.03702000  1
  H  H16  1  0.23601000  0.28342200  0.44163200  1
  H  H17  1  0.23601000  0.71657800  0.94163200  1
  H  H18  1  0.34701900  0.29070300  0.53955200  1
  H  H19  1  0.34701900  0.70929700  0.03955200  1
  H  H20  1  0.89384900  0.97357800  0.49169900  1
  H  H21  1  0.89384900  0.02642200  0.99169900  1
  H  H22  1  0.97062400  0.02069500  0.59137500  1
  H  H23  1  0.97062400  0.97930500  0.09137500  1
  H  H24  1  0.66351800  0.22534100  0.54524700  1
  H  H25  1  0.66351800  0.77465900  0.04524700  1
  H  H26  1  0.67105300  0.27277500  0.44715900  1
  H  H27  1  0.67105300  0.72722500  0.94715900  1
  H  H28  1  0.99146800  0.68266800  0.49725900  1
  H  H29  1  0.99146800  0.31733200  0.99725900  1
  H  H30  1  0.02761400  0.62177800  0.59798600  1
  H  H31  1  0.02761400  0.37822200  0.09798600  1
  H  H32  1  0.50997500  0.09623400  0.63160700  1
  H  H33  1  0.50997500  0.90376600  0.13160700  1
  H  H34  1  0.62516600  0.97293900  0.60672900  1
  H  H35  1  0.62516600  0.02706100  0.10672900  1
  H  H36  1  0.72400500  0.76719900  0.40788600  1
  H  H37  1  0.72400500  0.23280100  0.90788600  1
  H  H38  1  0.61722600  0.90460600  0.42714500  1
  H  H39  1  0.61722600  0.09539400  0.92714500  1
  C  C40  1  0.36782200  0.82061700  0.72295400  1
  C  C41  1  0.36782200  0.17938300  0.22295400  1
  C  C42  1  0.48477700  0.86938800  0.81254100  1
  C  C43  1  0.48477700  0.13061200  0.31254100  1
  C  C44  1  0.95606400  0.37438900  0.72496400  1
  C  C45  1  0.95606400  0.62561100  0.22496400  1
  C  C46  1  0.90885700  0.31952800  0.81290500  1
  C  C47  1  0.90885700  0.68047200  0.31290500  1
  C  C48  1  0.88566800  0.88624700  0.72763100  1
  C  C49  1  0.88566800  0.11375300  0.22763100  1
  C  C50  1  0.97147200  0.80074300  0.81565500  1
  C  C51  1  0.97147200  0.19925700  0.31565500  1
  C  C52  1  0.43328600  0.30772100  0.72584500  1
  C  C53  1  0.43328600  0.69227900  0.22584500  1
  C  C54  1  0.41890500  0.39110400  0.81475200  1
  C  C55  1  0.41890500  0.60889600  0.31475200  1
  O  O56  1  0.25965500  0.90604200  0.47772800  1
  O  O57  1  0.25965500  0.09395800  0.97772800  1
  O  O58  1  0.60026800  0.59210800  0.56169700  1
  O  O59  1  0.60026800  0.40789200  0.06169700  1
  O  O60  1  0.26267900  0.34548600  0.49799700  1
  O  O61  1  0.26267900  0.65451400  0.99799700  1
  O  O62  1  0.98417700  0.03067600  0.52806500  1
  O  O63  1  0.98417700  0.96932400  0.02806500  1
  O  O64  1  0.70629400  0.30659000  0.51147900  1
  O  O65  1  0.70629400  0.69341000  0.01147900  1
  O  O66  1  0.05104100  0.60504600  0.53830200  1
  O  O67  1  0.05104100  0.39495400  0.03830200  1
  O  O68  1  0.55137200  0.05636000  0.58054600  1
  O  O69  1  0.55137200  0.94364000  0.08054600  1
  O  O70  1  0.70478400  0.83655300  0.45653300  1
  O  O71  1  0.70478400  0.16344700  0.95653300  1
  O  O72  1  0.41511500  0.71726400  0.67532800  1
  O  O73  1  0.41511500  0.28273600  0.17532800  1
  O  O74  1  0.23742900  0.88740700  0.70454800  1
  O  O75  1  0.23742900  0.11259300  0.20454800  1
  O  O76  1  0.61543700  0.80087000  0.83207400  1
  O  O77  1  0.61543700  0.19913000  0.33207400  1
  O  O78  1  0.44316500  0.02440700  0.36008800  1
  O  O79  1  0.44316500  0.97559300  0.86008800  1
  O  O80  1  0.06539000  0.30200300  0.70119900  1
  O  O81  1  0.06539000  0.69799700  0.20119900  1
  O  O82  1  0.88070300  0.48770900  0.68285500  1
  O  O83  1  0.88070300  0.51229100  0.18285500  1
  O  O84  1  0.99706000  0.22313100  0.86335600  1
  O  O85  1  0.99706000  0.77686900  0.36335600  1
  O  O86  1  0.78386500  0.37478700  0.82889100  1
  O  O87  1  0.78386500  0.62521300  0.32889100  1
  O  O88  1  0.76046800  0.82685700  0.68092600  1
  O  O89  1  0.76046800  0.17314300  0.18092600  1
  O  O90  1  0.94704300  0.01005000  0.70818600  1
  O  O91  1  0.94704300  0.98995000  0.20818600  1
  O  O92  1  0.90645100  0.68270300  0.83995000  1
  O  O93  1  0.90645100  0.31729700  0.33995000  1
  O  O94  1  0.10200500  0.85685600  0.85696600  1
  O  O95  1  0.10200500  0.14314400  0.35696600  1
  O  O96  1  0.36601900  0.17846800  0.70776900  1
  O  O97  1  0.36601900  0.82153200  0.20776900  1
  O  O98  1  0.51411900  0.37272700  0.67660300  1
  O  O99  1  0.51411900  0.62727300  0.17660300  1
  O  O100  1  0.33290000  0.32691300  0.86138600  1
  O  O101  1  0.33290000  0.67308700  0.36138600  1
  O  O102  1  0.49571200  0.51422500  0.83399700  1
  O  O103  1  0.49571200  0.48577500  0.33399700  1
