# generated using pymatgen
data_Li3FeBO4
_symmetry_space_group_name_H-M   'P 1'
_cell_length_a   10.16381800
_cell_length_b   10.16381800
_cell_length_c   12.90331600
_cell_angle_alpha   90.00000000
_cell_angle_beta   90.00000000
_cell_angle_gamma   90.00000000
_symmetry_Int_Tables_number   1
_chemical_formula_structural   Li3FeBO4
_chemical_formula_sum   'Li48 Fe16 B16 O64'
_cell_volume   1332.95378615
_cell_formula_units_Z   16
loop_
 _symmetry_equiv_pos_site_id
 _symmetry_equiv_pos_as_xyz
  1  'x, y, z'
loop_
 _atom_site_type_symbol
 _atom_site_label
 _atom_site_symmetry_multiplicity
 _atom_site_fract_x
 _atom_site_fract_y
 _atom_site_fract_z
 _atom_site_occupancy
  Li  Li0  1  0.65566200  0.48429700  0.43827000  1
  Li  Li1  1  0.84433800  0.51570300  0.31173000  1
  Li  Li2  1  0.98429700  0.84433800  0.06173000  1
  Li  Li3  1  0.98429700  0.34433800  0.18827000  1
  Li  Li4  1  0.97794200  0.12429500  0.28920500  1
  Li  Li5  1  0.98936500  0.14325900  0.57150000  1
  Li  Li6  1  0.01570300  0.15566200  0.06173000  1
  Li  Li7  1  0.01570300  0.65566200  0.18827000  1
  Li  Li8  1  0.12429500  0.02205800  0.71079500  1
  Li  Li9  1  0.14325900  0.01063500  0.42850000  1
  Li  Li10  1  0.15566200  0.48429700  0.31173000  1
  Li  Li11  1  0.34433800  0.51570300  0.43827000  1
  Li  Li12  1  0.35674100  0.98936500  0.32150000  1
  Li  Li13  1  0.35674100  0.48936500  0.92850000  1
  Li  Li14  1  0.37570500  0.97794200  0.03920500  1
  Li  Li15  1  0.37570500  0.47794200  0.21079500  1
  Li  Li16  1  0.51063500  0.85674100  0.17850000  1
  Li  Li17  1  0.51063500  0.35674100  0.07150000  1
  Li  Li18  1  0.47794200  0.12429500  0.46079500  1
  Li  Li19  1  0.52205800  0.87570500  0.46079500  1
  Li  Li20  1  0.52205800  0.37570500  0.78920500  1
  Li  Li21  1  0.48936500  0.14325900  0.17850000  1
  Li  Li22  1  0.62429500  0.02205800  0.03920500  1
  Li  Li23  1  0.64325900  0.01063500  0.32150000  1
  Li  Li24  1  0.15566200  0.98429700  0.93827000  1
  Li  Li25  1  0.34433800  0.01570300  0.81173000  1
  Li  Li26  1  0.48429700  0.34433800  0.56173000  1
  Li  Li27  1  0.48429700  0.84433800  0.68827000  1
  Li  Li28  1  0.47794200  0.62429500  0.78920500  1
  Li  Li29  1  0.48936500  0.64325900  0.07150000  1
  Li  Li30  1  0.51570300  0.65566200  0.56173000  1
  Li  Li31  1  0.51570300  0.15566200  0.68827000  1
  Li  Li32  1  0.62429500  0.52205800  0.21079500  1
  Li  Li33  1  0.64325900  0.51063500  0.92850000  1
  Li  Li34  1  0.65566200  0.98429700  0.81173000  1
  Li  Li35  1  0.84433800  0.01570300  0.93827000  1
  Li  Li36  1  0.85674100  0.48936500  0.82150000  1
  Li  Li37  1  0.85674100  0.98936500  0.42850000  1
  Li  Li38  1  0.87570500  0.47794200  0.53920500  1
  Li  Li39  1  0.87570500  0.97794200  0.71079500  1
  Li  Li40  1  0.01063500  0.35674100  0.67850000  1
  Li  Li41  1  0.01063500  0.85674100  0.57150000  1
  Li  Li42  1  0.97794200  0.62429500  0.96079500  1
  Li  Li43  1  0.02205800  0.37570500  0.96079500  1
  Li  Li44  1  0.02205800  0.87570500  0.28920500  1
  Li  Li45  1  0.98936500  0.64325900  0.67850000  1
  Li  Li46  1  0.12429500  0.52205800  0.53920500  1
  Li  Li47  1  0.14325900  0.51063500  0.82150000  1
  Fe  Fe48  1  0.72597400  0.26814100  0.19323900  1
  Fe  Fe49  1  0.23185900  0.22597400  0.30676100  1
  Fe  Fe50  1  0.23185900  0.72597400  0.94323900  1
  Fe  Fe51  1  0.22597400  0.26814100  0.55676100  1
  Fe  Fe52  1  0.27402600  0.23185900  0.05676100  1
  Fe  Fe53  1  0.26814100  0.27402600  0.80676100  1
  Fe  Fe54  1  0.26814100  0.77402600  0.44323900  1
  Fe  Fe55  1  0.77402600  0.23185900  0.69323900  1
  Fe  Fe56  1  0.22597400  0.76814100  0.69323900  1
  Fe  Fe57  1  0.73185900  0.72597400  0.80676100  1
  Fe  Fe58  1  0.73185900  0.22597400  0.44323900  1
  Fe  Fe59  1  0.72597400  0.76814100  0.05676100  1
  Fe  Fe60  1  0.77402600  0.73185900  0.55676100  1
  Fe  Fe61  1  0.76814100  0.77402600  0.30676100  1
  Fe  Fe62  1  0.76814100  0.27402600  0.94323900  1
  Fe  Fe63  1  0.27402600  0.73185900  0.19323900  1
  B  B64  1  0.97347400  0.30322100  0.42330200  1
  B  B65  1  0.19677900  0.47347400  0.07669800  1
  B  B66  1  0.19677900  0.97347400  0.17330200  1
  B  B67  1  0.30322100  0.02652600  0.57669800  1
  B  B68  1  0.47347400  0.30322100  0.32669800  1
  B  B69  1  0.52652600  0.69677900  0.32669800  1
  B  B70  1  0.52652600  0.19677900  0.92330200  1
  B  B71  1  0.80322100  0.02652600  0.17330200  1
  B  B72  1  0.47347400  0.80322100  0.92330200  1
  B  B73  1  0.69677900  0.97347400  0.57669800  1
  B  B74  1  0.69677900  0.47347400  0.67330200  1
  B  B75  1  0.80322100  0.52652600  0.07669800  1
  B  B76  1  0.97347400  0.80322100  0.82669800  1
  B  B77  1  0.02652600  0.19677900  0.82669800  1
  B  B78  1  0.02652600  0.69677900  0.42330200  1
  B  B79  1  0.30322100  0.52652600  0.67330200  1
  O  O80  1  0.84739550  0.38266750  0.41587250  1
  O  O81  1  0.88266750  0.15260450  0.16587250  1
  O  O82  1  0.92783550  0.16202950  0.43224050  1
  O  O83  1  0.95416250  0.15885550  0.72656650  1
  O  O84  1  0.04583750  0.34114450  0.52343350  1
  O  O85  1  0.05627800  0.31931400  0.32910000  1
  O  O86  1  0.11733250  0.34739550  0.08412750  1
  O  O87  1  0.15885550  0.04583750  0.27343350  1
  O  O88  1  0.15885550  0.54583750  0.97656650  1
  O  O89  1  0.15260450  0.11733250  0.83412750  1
  O  O90  1  0.18068600  0.05627800  0.07910000  1
  O  O91  1  0.18068600  0.55627800  0.17090000  1
  O  O92  1  0.16202950  0.07216450  0.56775950  1
  O  O93  1  0.33797050  0.92783550  0.18224050  1
  O  O94  1  0.33797050  0.42783550  0.06775950  1
  O  O95  1  0.31931400  0.94372200  0.67090000  1
  O  O96  1  0.34739550  0.38266750  0.33412750  1
  O  O97  1  0.34114450  0.45416250  0.77343350  1
  O  O98  1  0.34114450  0.95416250  0.47656650  1
  O  O99  1  0.38266750  0.15260450  0.58412750  1
  O  O100  1  0.42783550  0.16202950  0.31775950  1
  O  O101  1  0.44372200  0.68068600  0.42090000  1
  O  O102  1  0.44372200  0.18068600  0.82910000  1
  O  O103  1  0.45416250  0.15885550  0.02343350  1
  O  O104  1  0.54583750  0.34114450  0.22656650  1
  O  O105  1  0.55627800  0.31931400  0.42090000  1
  O  O106  1  0.57216450  0.33797050  0.93224050  1
  O  O107  1  0.57216450  0.83797050  0.31775950  1
  O  O108  1  0.61733250  0.34739550  0.66587250  1
  O  O109  1  0.65260450  0.11733250  0.91587250  1
  O  O110  1  0.66202950  0.07216450  0.18224050  1
  O  O111  1  0.81931400  0.94372200  0.07910000  1
  O  O112  1  0.34739550  0.88266750  0.91587250  1
  O  O113  1  0.38266750  0.65260450  0.66587250  1
  O  O114  1  0.42783550  0.66202950  0.93224050  1
  O  O115  1  0.45416250  0.65885550  0.22656650  1
  O  O116  1  0.54583750  0.84114450  0.02343350  1
  O  O117  1  0.55627800  0.81931400  0.82910000  1
  O  O118  1  0.61733250  0.84739550  0.58412750  1
  O  O119  1  0.65885550  0.54583750  0.77343350  1
  O  O120  1  0.65885550  0.04583750  0.47656650  1
  O  O121  1  0.65260450  0.61733250  0.33412750  1
  O  O122  1  0.68068600  0.55627800  0.57910000  1
  O  O123  1  0.68068600  0.05627800  0.67090000  1
  O  O124  1  0.66202950  0.57216450  0.06775950  1
  O  O125  1  0.83797050  0.42783550  0.68224050  1
  O  O126  1  0.83797050  0.92783550  0.56775950  1
  O  O127  1  0.81931400  0.44372200  0.17090000  1
  O  O128  1  0.84739550  0.88266750  0.83412750  1
  O  O129  1  0.84114450  0.95416250  0.27343350  1
  O  O130  1  0.84114450  0.45416250  0.97656650  1
  O  O131  1  0.88266750  0.65260450  0.08412750  1
  O  O132  1  0.92783550  0.66202950  0.81775950  1
  O  O133  1  0.94372200  0.18068600  0.92090000  1
  O  O134  1  0.94372200  0.68068600  0.32910000  1
  O  O135  1  0.95416250  0.65885550  0.52343350  1
  O  O136  1  0.04583750  0.84114450  0.72656650  1
  O  O137  1  0.05627800  0.81931400  0.92090000  1
  O  O138  1  0.07216450  0.83797050  0.43224050  1
  O  O139  1  0.07216450  0.33797050  0.81775950  1
  O  O140  1  0.11733250  0.84739550  0.16587250  1
  O  O141  1  0.15260450  0.61733250  0.41587250  1
  O  O142  1  0.16202950  0.57216450  0.68224050  1
  O  O143  1  0.31931400  0.44372200  0.57910000  1
