# generated using pymatgen
data_Gd2HfO5
_symmetry_space_group_name_H-M   'P 1'
_cell_length_a   3.79120700
_cell_length_b   10.87142400
_cell_length_c   11.70687700
_cell_angle_alpha   90.00000000
_cell_angle_beta   90.00000000
_cell_angle_gamma   90.00000000
_symmetry_Int_Tables_number   1
_chemical_formula_structural   Gd2HfO5
_chemical_formula_sum   'Gd8 Hf4 O20'
_cell_volume   482.50852078
_cell_formula_units_Z   4
loop_
 _symmetry_equiv_pos_site_id
 _symmetry_equiv_pos_as_xyz
  1  'x, y, z'
loop_
 _atom_site_type_symbol
 _atom_site_label
 _atom_site_symmetry_multiplicity
 _atom_site_fract_x
 _atom_site_fract_y
 _atom_site_fract_z
 _atom_site_occupancy
  Gd  Gd0  1  0.75000000  0.61764300  0.77801100  1
  Gd  Gd1  1  0.75000000  0.63023400  0.43925800  1
  Gd  Gd2  1  0.25000000  0.86976600  0.93925800  1
  Gd  Gd3  1  0.25000000  0.88235700  0.27801100  1
  Gd  Gd4  1  0.75000000  0.11764300  0.72198900  1
  Gd  Gd5  1  0.75000000  0.13023400  0.06074200  1
  Gd  Gd6  1  0.25000000  0.36976600  0.56074200  1
  Gd  Gd7  1  0.25000000  0.38235700  0.22198900  1
  Hf  Hf8  1  0.75000000  0.67456600  0.11654400  1
  Hf  Hf9  1  0.25000000  0.82543400  0.61654400  1
  Hf  Hf10  1  0.75000000  0.17456600  0.38345600  1
  Hf  Hf11  1  0.25000000  0.32543400  0.88345600  1
  O  O12  1  0.25000000  0.50506800  0.39589200  1
  O  O13  1  0.75000000  0.50133300  0.15723400  1
  O  O14  1  0.75000000  0.72936300  0.95072500  1
  O  O15  1  0.25000000  0.74576800  0.11356900  1
  O  O16  1  0.25000000  0.74460900  0.77157300  1
  O  O17  1  0.75000000  0.75539100  0.27157300  1
  O  O18  1  0.75000000  0.75423200  0.61356900  1
  O  O19  1  0.25000000  0.77063700  0.45072500  1
  O  O20  1  0.25000000  0.99866700  0.65723400  1
  O  O21  1  0.75000000  0.99493200  0.89589200  1
  O  O22  1  0.25000000  0.00506800  0.10410800  1
  O  O23  1  0.75000000  0.00133300  0.34276600  1
  O  O24  1  0.75000000  0.22936300  0.54927500  1
  O  O25  1  0.25000000  0.24576800  0.38643100  1
  O  O26  1  0.25000000  0.24460900  0.72842700  1
  O  O27  1  0.75000000  0.25539100  0.22842700  1
  O  O28  1  0.75000000  0.25423200  0.88643100  1
  O  O29  1  0.25000000  0.27063700  0.04927500  1
  O  O30  1  0.25000000  0.49866700  0.84276600  1
  O  O31  1  0.75000000  0.49493200  0.60410800  1
