# generated using pymatgen
data_Mg2Cu2P2(H4O5)3
_symmetry_space_group_name_H-M   'P 1'
_cell_length_a   22.70395817
_cell_length_b   5.04300726
_cell_length_c   10.59216804
_cell_angle_alpha   90.00000000
_cell_angle_beta   100.25269494
_cell_angle_gamma   90.00000000
_symmetry_Int_Tables_number   1
_chemical_formula_structural   Mg2Cu2P2(H4O5)3
_chemical_formula_sum   'Mg8 Cu8 P8 H48 O60'
_cell_volume   1193.39825578
_cell_formula_units_Z   4
loop_
 _symmetry_equiv_pos_site_id
 _symmetry_equiv_pos_as_xyz
  1  'x, y, z'
loop_
 _atom_site_type_symbol
 _atom_site_label
 _atom_site_symmetry_multiplicity
 _atom_site_fract_x
 _atom_site_fract_y
 _atom_site_fract_z
 _atom_site_occupancy
  Mg  Mg0  1  0.62087250  0.66545850  0.96578500  1
  Mg  Mg1  1  0.62087250  0.33454150  0.46578500  1
  Mg  Mg2  1  0.88192250  0.15846250  0.53516700  1
  Mg  Mg3  1  0.88192250  0.84153750  0.03516700  1
  Mg  Mg4  1  0.12087250  0.16545850  0.96578500  1
  Mg  Mg5  1  0.12087250  0.83454150  0.46578500  1
  Mg  Mg6  1  0.38192250  0.65846250  0.53516700  1
  Mg  Mg7  1  0.38192250  0.34153750  0.03516700  1
  Cu  Cu8  1  0.74732650  0.64619450  0.86797600  1
  Cu  Cu9  1  0.75458750  0.14358250  0.63288700  1
  Cu  Cu10  1  0.74732650  0.35380550  0.36797600  1
  Cu  Cu11  1  0.75458750  0.85641750  0.13288700  1
  Cu  Cu12  1  0.24732650  0.14619450  0.86797600  1
  Cu  Cu13  1  0.25458750  0.64358250  0.63288700  1
  Cu  Cu14  1  0.24732650  0.85380550  0.36797600  1
  Cu  Cu15  1  0.25458750  0.35641750  0.13288700  1
  P  P16  1  0.65455650  0.17553550  0.77172800  1
  P  P17  1  0.65455650  0.82446450  0.27172800  1
  P  P18  1  0.84741400  0.67195900  0.72848500  1
  P  P19  1  0.84741400  0.32804100  0.22848500  1
  P  P20  1  0.15455650  0.67553550  0.77172800  1
  P  P21  1  0.15455650  0.32446450  0.27172800  1
  P  P22  1  0.34741400  0.17195900  0.72848500  1
  P  P23  1  0.34741400  0.82804100  0.22848500  1
  H  H24  1  0.52029000  0.95913000  0.85664400  1
  H  H25  1  0.53979350  0.30998550  0.76771700  1
  H  H26  1  0.52029000  0.04087000  0.35664400  1
  H  H27  1  0.59158500  0.55365300  0.66755700  1
  H  H28  1  0.53979350  0.69001450  0.26771700  1
  H  H29  1  0.59158500  0.44634700  0.16755700  1
  H  H30  1  0.60167400  0.80495700  0.58765500  1
  H  H31  1  0.60167400  0.19504300  0.08765500  1
  H  H32  1  0.77323900  0.10199100  0.93013500  1
  H  H33  1  0.73204600  0.59597400  0.57004000  1
  H  H34  1  0.77323900  0.89800900  0.43013500  1
  H  H35  1  0.73204600  0.40402600  0.07004000  1
  H  H36  1  0.90097350  0.30541450  0.91612400  1
  H  H37  1  0.90097350  0.69458550  0.41612400  1
  H  H38  1  0.91021850  0.05261250  0.83519300  1
  H  H39  1  0.96603250  0.81448250  0.73014100  1
  H  H40  1  0.91021850  0.94738750  0.33519300  1
  H  H41  1  0.98197650  0.46030750  0.64114600  1
  H  H42  1  0.99828300  0.21997700  0.93015100  1
  H  H43  1  0.96603250  0.18551750  0.23014100  1
  H  H44  1  0.50381800  0.72150900  0.56703600  1
  H  H45  1  0.98197650  0.53969250  0.14114600  1
  H  H46  1  0.99828300  0.78002300  0.43015100  1
  H  H47  1  0.50381800  0.27849100  0.06703600  1
  H  H48  1  0.02029000  0.45913000  0.85664400  1
  H  H49  1  0.03979350  0.80998550  0.76771700  1
  H  H50  1  0.02029000  0.54087000  0.35664400  1
  H  H51  1  0.09158500  0.05365300  0.66755700  1
  H  H52  1  0.03979350  0.19001450  0.26771700  1
  H  H53  1  0.09158500  0.94634700  0.16755700  1
  H  H54  1  0.10167400  0.30495700  0.58765500  1
  H  H55  1  0.10167400  0.69504300  0.08765500  1
  H  H56  1  0.27323900  0.60199100  0.93013500  1
  H  H57  1  0.23204600  0.09597400  0.57004000  1
  H  H58  1  0.27323900  0.39800900  0.43013500  1
  H  H59  1  0.23204600  0.90402600  0.07004000  1
  H  H60  1  0.40097350  0.80541450  0.91612400  1
  H  H61  1  0.40097350  0.19458550  0.41612400  1
  H  H62  1  0.41021850  0.55261250  0.83519300  1
  H  H63  1  0.46603250  0.31448250  0.73014100  1
  H  H64  1  0.41021850  0.44738750  0.33519300  1
  H  H65  1  0.48197650  0.96030750  0.64114600  1
  H  H66  1  0.49828300  0.71997700  0.93015100  1
  H  H67  1  0.46603250  0.68551750  0.23014100  1
  H  H68  1  0.00381800  0.22150900  0.56703600  1
  H  H69  1  0.48197650  0.03969250  0.14114600  1
  H  H70  1  0.49828300  0.28002300  0.43015100  1
  H  H71  1  0.00381800  0.77849100  0.06703600  1
  O  O72  1  0.53504200  0.80358400  0.91100500  1
  O  O73  1  0.53504200  0.19641600  0.41100500  1
  O  O74  1  0.58298150  0.62247950  0.57750800  1
  O  O75  1  0.61359700  0.39641500  0.81025500  1
  O  O76  1  0.58298150  0.37752050  0.07750800  1
  O  O77  1  0.63432250  0.09531450  0.62999000  1
  O  O78  1  0.61359700  0.60358500  0.31025500  1
  O  O79  1  0.65914900  0.93607500  0.86115300  1
  O  O80  1  0.63432250  0.90468550  0.12999000  1
  O  O81  1  0.65914900  0.06392500  0.36115300  1
  O  O82  1  0.72115300  0.29861900  0.78040400  1
  O  O83  1  0.71409550  0.44075450  0.52175800  1
  O  O84  1  0.72115300  0.70138100  0.28040400  1
  O  O85  1  0.78880800  0.94213500  0.97780300  1
  O  O86  1  0.71409550  0.55924550  0.02175800  1
  O  O87  1  0.78036950  0.79524750  0.71758000  1
  O  O88  1  0.78880800  0.05786500  0.47780300  1
  O  O89  1  0.78036950  0.20475250  0.21758000  1
  O  O90  1  0.84334300  0.42970900  0.64149700  1
  O  O91  1  0.86613150  0.59541050  0.87078800  1
  O  O92  1  0.84334300  0.57029100  0.14149700  1
  O  O93  1  0.88914200  0.89111100  0.69016600  1
  O  O94  1  0.86613150  0.40458950  0.37078800  1
  O  O95  1  0.91928500  0.12286800  0.92470500  1
  O  O96  1  0.88914200  0.10888900  0.19016600  1
  O  O97  1  0.91928500  0.87713200  0.42470500  1
  O  O98  1  0.96708750  0.30587150  0.58559000  1
  O  O99  1  0.50251250  0.20222150  0.74668900  1
  O  O100  1  0.96708750  0.69412850  0.08559000  1
  O  O101  1  0.50251250  0.79777850  0.24668900  1
  O  O102  1  0.03504200  0.30358400  0.91100500  1
  O  O103  1  0.03504200  0.69641600  0.41100500  1
  O  O104  1  0.08298150  0.12247950  0.57750800  1
  O  O105  1  0.11359700  0.89641500  0.81025500  1
  O  O106  1  0.08298150  0.87752050  0.07750800  1
  O  O107  1  0.13432250  0.59531450  0.62999000  1
  O  O108  1  0.11359700  0.10358500  0.31025500  1
  O  O109  1  0.15914900  0.43607500  0.86115300  1
  O  O110  1  0.13432250  0.40468550  0.12999000  1
  O  O111  1  0.15914900  0.56392500  0.36115300  1
  O  O112  1  0.22115300  0.79861900  0.78040400  1
  O  O113  1  0.21409550  0.94075450  0.52175800  1
  O  O114  1  0.22115300  0.20138100  0.28040400  1
  O  O115  1  0.28880800  0.44213500  0.97780300  1
  O  O116  1  0.21409550  0.05924550  0.02175800  1
  O  O117  1  0.28036950  0.29524750  0.71758000  1
  O  O118  1  0.28880800  0.55786500  0.47780300  1
  O  O119  1  0.28036950  0.70475250  0.21758000  1
  O  O120  1  0.34334300  0.92970900  0.64149700  1
  O  O121  1  0.36613150  0.09541050  0.87078800  1
  O  O122  1  0.34334300  0.07029100  0.14149700  1
  O  O123  1  0.38914200  0.39111100  0.69016600  1
  O  O124  1  0.36613150  0.90458950  0.37078800  1
  O  O125  1  0.41928500  0.62286800  0.92470500  1
  O  O126  1  0.38914200  0.60888900  0.19016600  1
  O  O127  1  0.41928500  0.37713200  0.42470500  1
  O  O128  1  0.46708750  0.80587150  0.58559000  1
  O  O129  1  0.00251250  0.70222150  0.74668900  1
  O  O130  1  0.46708750  0.19412850  0.08559000  1
  O  O131  1  0.00251250  0.29777850  0.24668900  1
