# generated using pymatgen
data_YBr3
_symmetry_space_group_name_H-M   'P 1'
_cell_length_a   7.28199000
_cell_length_b   12.55225400
_cell_length_c   7.29921559
_cell_angle_alpha   90.00000000
_cell_angle_beta   110.00479687
_cell_angle_gamma   90.00000000
_symmetry_Int_Tables_number   1
_chemical_formula_structural   YBr3
_chemical_formula_sum   'Y4 Br12'
_cell_volume   626.93218999
_cell_formula_units_Z   4
loop_
 _symmetry_equiv_pos_site_id
 _symmetry_equiv_pos_as_xyz
  1  'x, y, z'
loop_
 _atom_site_type_symbol
 _atom_site_label
 _atom_site_symmetry_multiplicity
 _atom_site_fract_x
 _atom_site_fract_y
 _atom_site_fract_z
 _atom_site_occupancy
  Y  Y0  1  0.50000000  0.66678200  0.00000000  1
  Y  Y1  1  0.50000000  0.33321800  0.00000000  1
  Y  Y2  1  0.00000000  0.16678200  0.00000000  1
  Y  Y3  1  0.00000000  0.83321800  0.00000000  1
  Br  Br4  1  0.23931300  0.81929700  0.76764100  1
  Br  Br5  1  0.23931300  0.18070300  0.76764100  1
  Br  Br6  1  0.21071900  0.00000000  0.23924500  1
  Br  Br7  1  0.78928100  0.00000000  0.76075500  1
  Br  Br8  1  0.76068700  0.81929700  0.23235900  1
  Br  Br9  1  0.76068700  0.18070300  0.23235900  1
  Br  Br10  1  0.73931300  0.31929700  0.76764100  1
  Br  Br11  1  0.73931300  0.68070300  0.76764100  1
  Br  Br12  1  0.71071900  0.50000000  0.23924500  1
  Br  Br13  1  0.28928100  0.50000000  0.76075500  1
  Br  Br14  1  0.26068700  0.31929700  0.23235900  1
  Br  Br15  1  0.26068700  0.68070300  0.23235900  1
