# generated using pymatgen
data_Al2H10S3O17
_symmetry_space_group_name_H-M   'P 1'
_cell_length_a   5.53787100
_cell_length_b   10.90979600
_cell_length_c   21.06960850
_cell_angle_alpha   90.00000000
_cell_angle_beta   98.62933523
_cell_angle_gamma   90.00000000
_symmetry_Int_Tables_number   1
_chemical_formula_structural   Al2H10S3O17
_chemical_formula_sum   'Al8 H40 S12 O68'
_cell_volume   1258.55309953
_cell_formula_units_Z   4
loop_
 _symmetry_equiv_pos_site_id
 _symmetry_equiv_pos_as_xyz
  1  'x, y, z'
loop_
 _atom_site_type_symbol
 _atom_site_label
 _atom_site_symmetry_multiplicity
 _atom_site_fract_x
 _atom_site_fract_y
 _atom_site_fract_z
 _atom_site_occupancy
  Al  Al0  1  0.50000000  0.50000000  0.00000000  1
  Al  Al1  1  0.50000000  0.00000000  0.00000000  1
  Al  Al2  1  0.10126200  0.26087100  0.68722600  1
  Al  Al3  1  0.89873800  0.76087100  0.81277400  1
  Al  Al4  1  0.10126200  0.23912900  0.18722600  1
  Al  Al5  1  0.50000000  0.50000000  0.50000000  1
  Al  Al6  1  0.50000000  0.00000000  0.50000000  1
  Al  Al7  1  0.89873800  0.73912900  0.31277400  1
  H  H8  1  0.63740900  0.82551800  0.20789700  1
  H  H9  1  0.60360600  0.67530100  0.21155400  1
  H  H10  1  0.13692700  0.62702400  0.73761700  1
  H  H11  1  0.20174300  0.57883600  0.81010600  1
  H  H12  1  0.18997900  0.93867900  0.79715600  1
  H  H13  1  0.18422400  0.06418600  0.90510700  1
  H  H14  1  0.17472900  0.40829700  0.91557200  1
  H  H15  1  0.39639400  0.17530100  0.28844600  1
  H  H16  1  0.07169900  0.89242700  0.72590600  1
  H  H17  1  0.36259100  0.32551800  0.29210300  1
  H  H18  1  0.17905200  0.33537700  0.98096200  1
  H  H19  1  0.10244100  0.11341300  0.97147200  1
  H  H20  1  0.89755900  0.61341300  0.52852800  1
  H  H21  1  0.82094800  0.83537700  0.51903800  1
  H  H22  1  0.92830100  0.39242700  0.77409400  1
  H  H23  1  0.82527100  0.90829700  0.58442800  1
  H  H24  1  0.81577600  0.56418600  0.59489300  1
  H  H25  1  0.13692700  0.87297600  0.23761700  1
  H  H26  1  0.20174300  0.92116400  0.31010600  1
  H  H27  1  0.18997900  0.56132100  0.29715600  1
  H  H28  1  0.81002100  0.43867900  0.70284400  1
  H  H29  1  0.79825700  0.07883600  0.68989400  1
  H  H30  1  0.86307300  0.12702400  0.76238300  1
  H  H31  1  0.18422400  0.43581400  0.40510700  1
  H  H32  1  0.17472900  0.09170300  0.41557200  1
  H  H33  1  0.07169900  0.60757300  0.22590600  1
  H  H34  1  0.17905200  0.16462300  0.48096200  1
  H  H35  1  0.10244100  0.38658700  0.47147200  1
  H  H36  1  0.89755900  0.88658700  0.02852800  1
  H  H37  1  0.82094800  0.66462300  0.01903800  1
  H  H38  1  0.63740900  0.67448200  0.70789700  1
  H  H39  1  0.92830100  0.10757300  0.27409400  1
  H  H40  1  0.60360600  0.82469900  0.71155400  1
  H  H41  1  0.82527100  0.59170300  0.08442800  1
  H  H42  1  0.81577600  0.93581400  0.09489300  1
  H  H43  1  0.81002100  0.06132100  0.20284400  1
  H  H44  1  0.79825700  0.42116400  0.18989400  1
  H  H45  1  0.86307300  0.37297600  0.26238300  1
  H  H46  1  0.39639400  0.32469900  0.78844600  1
  H  H47  1  0.36259100  0.17448200  0.79210300  1
  S  S48  1  0.70781300  0.99475100  0.36629800  1
  S  S49  1  0.65056400  0.49272700  0.35944200  1
  S  S50  1  0.34943600  0.99272700  0.14055800  1
  S  S51  1  0.22067700  0.75304800  0.95324600  1
  S  S52  1  0.29218700  0.49475100  0.13370200  1
  S  S53  1  0.77932300  0.25304800  0.54675400  1
  S  S54  1  0.22067700  0.74695200  0.45324600  1
  S  S55  1  0.70781300  0.50524900  0.86629800  1
  S  S56  1  0.77932300  0.24695200  0.04675400  1
  S  S57  1  0.65056400  0.00727300  0.85944200  1
  S  S58  1  0.34943600  0.50727300  0.64055800  1
  S  S59  1  0.29218700  0.00524900  0.63370200  1
  O  O60  1  0.83307700  0.41099000  0.33823600  1
  O  O61  1  0.67708700  0.74954600  0.23424100  1
  O  O62  1  0.74013100  0.86084900  0.35442700  1
  O  O63  1  0.60405900  0.95435900  0.16781200  1
  O  O64  1  0.68095600  0.62242600  0.34052500  1
  O  O65  1  0.70679000  0.00895000  0.43684200  1
  O  O66  1  0.43168300  0.83196500  0.97840100  1
  O  O67  1  0.67656300  0.48629100  0.43090300  1
  O  O68  1  0.52532400  0.53579800  0.17102900  1
  O  O69  1  0.30990300  0.62459900  0.95190900  1
  O  O70  1  0.28407200  0.38209000  0.95499000  1
  O  O71  1  0.47467600  0.03579800  0.32897100  1
  O  O72  1  0.32343700  0.98629100  0.06909700  1
  O  O73  1  0.08193900  0.93337700  0.64941200  1
  O  O74  1  0.29321000  0.50895000  0.06315800  1
  O  O75  1  0.97698400  0.26388700  0.50762200  1
  O  O76  1  0.20404300  0.05292600  0.95180500  1
  O  O77  1  0.10219900  0.63849700  0.78244700  1
  O  O78  1  0.31904400  0.12242600  0.15947500  1
  O  O79  1  0.39594100  0.45435900  0.33218800  1
  O  O80  1  0.13722400  0.79019900  0.88550700  1
  O  O81  1  0.06549100  0.88386700  0.77283300  1
  O  O82  1  0.25986900  0.36084900  0.14557300  1
  O  O83  1  0.32291300  0.24954600  0.26575900  1
  O  O84  1  0.43168300  0.66803500  0.47840100  1
  O  O85  1  0.93450900  0.38386700  0.72716700  1
  O  O86  1  0.86277600  0.29019900  0.61449300  1
  O  O87  1  0.16692300  0.91099000  0.16176400  1
  O  O88  1  0.89780100  0.13849700  0.71755300  1
  O  O89  1  0.79595700  0.55292600  0.54819500  1
  O  O90  1  0.30990300  0.87540100  0.45190900  1
  O  O91  1  0.02301600  0.76388700  0.99237800  1
  O  O92  1  0.28407200  0.11791000  0.45499000  1
  O  O93  1  0.91806100  0.43337700  0.85058800  1
  O  O94  1  0.08193900  0.56662300  0.14941200  1
  O  O95  1  0.71592800  0.88209000  0.54501000  1
  O  O96  1  0.97698400  0.23611300  0.00762200  1
  O  O97  1  0.69009700  0.12459900  0.54809100  1
  O  O98  1  0.20404300  0.44707400  0.45180500  1
  O  O99  1  0.10219900  0.86150300  0.28244700  1
  O  O100  1  0.83307700  0.08901000  0.83823600  1
  O  O101  1  0.13722400  0.70980100  0.38550700  1
  O  O102  1  0.06549100  0.61613300  0.27283300  1
  O  O103  1  0.56831700  0.33196500  0.52159900  1
  O  O104  1  0.67708700  0.75045400  0.73424100  1
  O  O105  1  0.74013100  0.63915100  0.85442700  1
  O  O106  1  0.93450900  0.11613300  0.22716700  1
  O  O107  1  0.86277600  0.20980100  0.11449300  1
  O  O108  1  0.60405900  0.54564100  0.66781200  1
  O  O109  1  0.68095600  0.87757400  0.84052500  1
  O  O110  1  0.89780100  0.36150300  0.21755300  1
  O  O111  1  0.79595700  0.94707400  0.04819500  1
  O  O112  1  0.02301600  0.73611300  0.49237800  1
  O  O113  1  0.70679000  0.49105000  0.93684200  1
  O  O114  1  0.91806100  0.06662300  0.35058800  1
  O  O115  1  0.67656300  0.01370900  0.93090300  1
  O  O116  1  0.52532400  0.96420200  0.67102900  1
  O  O117  1  0.71592800  0.61791000  0.04501000  1
  O  O118  1  0.69009700  0.37540100  0.04809100  1
  O  O119  1  0.47467600  0.46420200  0.82897100  1
  O  O120  1  0.32343700  0.51370900  0.56909700  1
  O  O121  1  0.56831700  0.16803500  0.02159900  1
  O  O122  1  0.29321000  0.99105000  0.56315800  1
  O  O123  1  0.31904400  0.37757400  0.65947500  1
  O  O124  1  0.39594100  0.04564100  0.83218800  1
  O  O125  1  0.25986900  0.13915100  0.64557300  1
  O  O126  1  0.32291300  0.25045400  0.76575900  1
  O  O127  1  0.16692300  0.58901000  0.66176400  1
