# generated using pymatgen
data_BaLaBr5
_symmetry_space_group_name_H-M   'P 1'
_cell_length_a   8.20850200
_cell_length_b   4.49657400
_cell_length_c   14.27523748
_cell_angle_alpha   90.00000000
_cell_angle_beta   93.30755760
_cell_angle_gamma   90.00000000
_symmetry_Int_Tables_number   1
_chemical_formula_structural   BaLaBr5
_chemical_formula_sum   'Ba2 La2 Br10'
_cell_volume   526.02326256
_cell_formula_units_Z   2
loop_
 _symmetry_equiv_pos_site_id
 _symmetry_equiv_pos_as_xyz
  1  'x, y, z'
loop_
 _atom_site_type_symbol
 _atom_site_label
 _atom_site_symmetry_multiplicity
 _atom_site_fract_x
 _atom_site_fract_y
 _atom_site_fract_z
 _atom_site_occupancy
  Ba  Ba0  1  0.54534300  0.75000000  0.34611400  1
  Ba  Ba1  1  0.45465700  0.25000000  0.65388600  1
  La  La2  1  0.95539700  0.25000000  0.15592700  1
  La  La3  1  0.04460300  0.75000000  0.84407300  1
  Br  Br4  1  0.95691300  0.75000000  0.30725400  1
  Br  Br5  1  0.85619500  0.25000000  0.93781500  1
  Br  Br6  1  0.70007700  0.25000000  0.48074800  1
  Br  Br7  1  0.68652000  0.75000000  0.11727200  1
  Br  Br8  1  0.69907400  0.75000000  0.74754500  1
  Br  Br9  1  0.30092600  0.25000000  0.25245500  1
  Br  Br10  1  0.31348000  0.25000000  0.88272800  1
  Br  Br11  1  0.29992300  0.75000000  0.51925200  1
  Br  Br12  1  0.14380500  0.75000000  0.06218500  1
  Br  Br13  1  0.04308700  0.25000000  0.69274600  1
