# generated using pymatgen
data_Li7BiO6
_symmetry_space_group_name_H-M   'P 1'
_cell_length_a   5.71228617
_cell_length_b   5.71228617
_cell_length_c   15.33409062
_cell_angle_alpha   90.00000000
_cell_angle_beta   90.00000000
_cell_angle_gamma   120.00000000
_symmetry_Int_Tables_number   1
_chemical_formula_structural   Li7BiO6
_chemical_formula_sum   'Li21 Bi3 O18'
_cell_volume   433.31983497
_cell_formula_units_Z   3
loop_
 _symmetry_equiv_pos_site_id
 _symmetry_equiv_pos_as_xyz
  1  'x, y, z'
loop_
 _atom_site_type_symbol
 _atom_site_label
 _atom_site_symmetry_multiplicity
 _atom_site_fract_x
 _atom_site_fract_y
 _atom_site_fract_z
 _atom_site_occupancy
  Li  Li0  1  0.38111567  0.99535933  0.11685533  1
  Li  Li1  1  0.01036767  0.72646533  0.21755533  1
  Li  Li2  1  0.71609767  0.98963233  0.21755533  1
  Li  Li3  1  0.33333333  0.66666667  0.31707367  1
  Li  Li4  1  0.61424367  0.61888433  0.11685533  1
  Li  Li5  1  0.00464067  0.38575633  0.11685533  1
  Li  Li6  1  0.27353467  0.28390233  0.21755533  1
  Li  Li7  1  0.04778233  0.32869267  0.45018867  1
  Li  Li8  1  0.67703433  0.05979867  0.55088867  1
  Li  Li9  1  0.38276433  0.32296567  0.55088867  1
  Li  Li10  1  0.00000000  0.00000000  0.65040700  1
  Li  Li11  1  0.28091033  0.95221767  0.45018867  1
  Li  Li12  1  0.67130733  0.71908967  0.45018867  1
  Li  Li13  1  0.94020133  0.61723567  0.55088867  1
  Li  Li14  1  0.71444900  0.66202600  0.78352200  1
  Li  Li15  1  0.34370100  0.39313200  0.88422200  1
  Li  Li16  1  0.04943100  0.65629900  0.88422200  1
  Li  Li17  1  0.66666667  0.33333333  0.98374033  1
  Li  Li18  1  0.94757700  0.28555100  0.78352200  1
  Li  Li19  1  0.33797400  0.05242300  0.78352200  1
  Li  Li20  1  0.60686800  0.95056900  0.88422200  1
  Bi  Bi21  1  0.00000000  0.00000000  0.00218100  1
  Bi  Bi22  1  0.66666667  0.33333333  0.33551433  1
  Bi  Bi23  1  0.33333333  0.66666667  0.66884767  1
  O  O24  1  0.38253233  0.00882267  0.25048467  1
  O  O25  1  0.98897000  0.69889400  0.08751400  1
  O  O26  1  0.70992400  0.01103000  0.08751400  1
  O  O27  1  0.99117733  0.37370967  0.25048467  1
  O  O28  1  0.62629033  0.61746767  0.25048467  1
  O  O29  1  0.30110600  0.29007600  0.08751400  1
  O  O30  1  0.04919900  0.34215600  0.58381800  1
  O  O31  1  0.65563667  0.03222733  0.42084733  1
  O  O32  1  0.37659067  0.34436333  0.42084733  1
  O  O33  1  0.65784400  0.70704300  0.58381800  1
  O  O34  1  0.29295700  0.95080100  0.58381800  1
  O  O35  1  0.96777267  0.62340933  0.42084733  1
  O  O36  1  0.71586567  0.67548933  0.91715133  1
  O  O37  1  0.32230333  0.36556067  0.75418067  1
  O  O38  1  0.04325733  0.67769667  0.75418067  1
  O  O39  1  0.32451067  0.04037633  0.91715133  1
  O  O40  1  0.95962367  0.28413433  0.91715133  1
  O  O41  1  0.63443933  0.95674267  0.75418067  1
