# generated using pymatgen
data_BiOF
_symmetry_space_group_name_H-M   'P 1'
_cell_length_a   5.82826000
_cell_length_b   11.90167400
_cell_length_c   12.08676500
_cell_angle_alpha   90.00000000
_cell_angle_beta   90.00000000
_cell_angle_gamma   90.00000000
_symmetry_Int_Tables_number   1
_chemical_formula_structural   BiOF
_chemical_formula_sum   'Bi16 O16 F16'
_cell_volume   838.41115146
_cell_formula_units_Z   16
loop_
 _symmetry_equiv_pos_site_id
 _symmetry_equiv_pos_as_xyz
  1  'x, y, z'
loop_
 _atom_site_type_symbol
 _atom_site_label
 _atom_site_symmetry_multiplicity
 _atom_site_fract_x
 _atom_site_fract_y
 _atom_site_fract_z
 _atom_site_occupancy
  Bi  Bi0  1  0.21020900  0.01327900  0.11477000  1
  Bi  Bi1  1  0.28979100  0.51327900  0.11477000  1
  Bi  Bi2  1  0.71728100  0.72770600  0.14137500  1
  Bi  Bi3  1  0.78271900  0.22770600  0.14137500  1
  Bi  Bi4  1  0.28271900  0.22770600  0.35862500  1
  Bi  Bi5  1  0.21728100  0.72770600  0.35862500  1
  Bi  Bi6  1  0.78979100  0.51327900  0.38523000  1
  Bi  Bi7  1  0.71020900  0.01327900  0.38523000  1
  Bi  Bi8  1  0.21020900  0.48672100  0.61477000  1
  Bi  Bi9  1  0.28979100  0.98672100  0.61477000  1
  Bi  Bi10  1  0.78271900  0.27229400  0.64137500  1
  Bi  Bi11  1  0.71728100  0.77229400  0.64137500  1
  Bi  Bi12  1  0.21728100  0.77229400  0.85862500  1
  Bi  Bi13  1  0.28271900  0.27229400  0.85862500  1
  Bi  Bi14  1  0.78979100  0.98672100  0.88523000  1
  Bi  Bi15  1  0.71020900  0.48672100  0.88523000  1
  O  O16  1  0.90695500  0.08716600  0.04165700  1
  O  O17  1  0.59304500  0.58716600  0.04165700  1
  O  O18  1  0.07136100  0.14470200  0.23464100  1
  O  O19  1  0.42863900  0.64470200  0.23464100  1
  O  O20  1  0.57136100  0.14470200  0.26535900  1
  O  O21  1  0.92863900  0.64470200  0.26535900  1
  O  O22  1  0.09304500  0.58716600  0.45834300  1
  O  O23  1  0.40695500  0.08716600  0.45834300  1
  O  O24  1  0.90695500  0.41283400  0.54165700  1
  O  O25  1  0.59304500  0.91283400  0.54165700  1
  O  O26  1  0.07136100  0.35529800  0.73464100  1
  O  O27  1  0.42863900  0.85529800  0.73464100  1
  O  O28  1  0.92863900  0.85529800  0.76535900  1
  O  O29  1  0.57136100  0.35529800  0.76535900  1
  O  O30  1  0.09304500  0.91283400  0.95834300  1
  O  O31  1  0.40695500  0.41283400  0.95834300  1
  F  F32  1  0.44950300  0.15745400  0.02967300  1
  F  F33  1  0.05049700  0.65745400  0.02967300  1
  F  F34  1  0.48860500  0.38892400  0.22147100  1
  F  F35  1  0.01139500  0.88892400  0.22147100  1
  F  F36  1  0.51139500  0.88892400  0.27852900  1
  F  F37  1  0.98860500  0.38892400  0.27852900  1
  F  F38  1  0.94950300  0.15745400  0.47032700  1
  F  F39  1  0.55049700  0.65745400  0.47032700  1
  F  F40  1  0.44950300  0.34254600  0.52967300  1
  F  F41  1  0.05049700  0.84254600  0.52967300  1
  F  F42  1  0.01139500  0.61107600  0.72147100  1
  F  F43  1  0.48860500  0.11107600  0.72147100  1
  F  F44  1  0.51139500  0.61107600  0.77852900  1
  F  F45  1  0.98860500  0.11107600  0.77852900  1
  F  F46  1  0.94950300  0.34254600  0.97032700  1
  F  F47  1  0.55049700  0.84254600  0.97032700  1
