# generated using pymatgen
data_InH12S2NO12
_symmetry_space_group_name_H-M   'P 1'
_cell_length_a   9.26740300
_cell_length_b   10.95729500
_cell_length_c   10.71385027
_cell_angle_alpha   90.00000000
_cell_angle_beta   102.12543966
_cell_angle_gamma   90.00000000
_symmetry_Int_Tables_number   1
_chemical_formula_structural   InH12S2NO12
_chemical_formula_sum   'In4 H48 S8 N4 O48'
_cell_volume   1063.67310762
_cell_formula_units_Z   4
loop_
 _symmetry_equiv_pos_site_id
 _symmetry_equiv_pos_as_xyz
  1  'x, y, z'
loop_
 _atom_site_type_symbol
 _atom_site_label
 _atom_site_symmetry_multiplicity
 _atom_site_fract_x
 _atom_site_fract_y
 _atom_site_fract_z
 _atom_site_occupancy
  In  In0  1  0.15344200  0.13171800  0.28911500  1
  In  In1  1  0.34814300  0.86431300  0.70913200  1
  In  In2  1  0.65185700  0.36431300  0.29086800  1
  In  In3  1  0.84655800  0.63171800  0.71088500  1
  H  H4  1  0.07193900  0.47550900  0.83177200  1
  H  H5  1  0.07589800  0.18771400  0.91211800  1
  H  H6  1  0.07199300  0.07280000  0.82934900  1
  H  H7  1  0.14279800  0.68224900  0.58962800  1
  H  H8  1  0.20192400  0.31038300  0.63382300  1
  H  H9  1  0.05913200  0.96194600  0.09304400  1
  H  H10  1  0.22893700  0.20807900  0.75053900  1
  H  H11  1  0.12879700  0.70057300  0.26794900  1
  H  H12  1  0.18062200  0.81487000  0.36911100  1
  H  H13  1  0.28833500  0.40550800  0.91277400  1
  H  H14  1  0.18849000  0.37075200  0.39818400  1
  H  H15  1  0.30811900  0.53974000  0.87127300  1
  H  H16  1  0.30752600  0.62725900  0.60663600  1
  H  H17  1  0.30878200  0.18794700  0.62321000  1
  H  H18  1  0.18604900  0.46266800  0.15847300  1
  H  H19  1  0.20549800  0.58064500  0.08201600  1
  H  H20  1  0.37449800  0.29705900  0.72809900  1
  H  H21  1  0.27565200  0.78948600  0.25121100  1
  H  H22  1  0.29363300  0.69342000  0.37361400  1
  H  H23  1  0.44119800  0.03046800  0.90869100  1
  H  H24  1  0.35400200  0.31698400  0.41778200  1
  H  H25  1  0.56119700  0.30055800  0.90417500  1
  H  H26  1  0.57015700  0.01973000  0.82974500  1
  H  H27  1  0.56304800  0.42030000  0.82937200  1
  H  H28  1  0.43695200  0.92030000  0.17062800  1
  H  H29  1  0.42984300  0.51973000  0.17025500  1
  H  H30  1  0.43880300  0.80055800  0.09582500  1
  H  H31  1  0.64599800  0.81698400  0.58221800  1
  H  H32  1  0.55880200  0.53046800  0.09130900  1
  H  H33  1  0.70636700  0.19342000  0.62638600  1
  H  H34  1  0.72434800  0.28948600  0.74878900  1
  H  H35  1  0.62550200  0.79705900  0.27190100  1
  H  H36  1  0.79450200  0.08064500  0.91798400  1
  H  H37  1  0.81395100  0.96266800  0.84152700  1
  H  H38  1  0.69121800  0.68794700  0.37679000  1
  H  H39  1  0.69247400  0.12725900  0.39336400  1
  H  H40  1  0.69188100  0.03974000  0.12872700  1
  H  H41  1  0.81151000  0.87075200  0.60181600  1
  H  H42  1  0.71166500  0.90550800  0.08722600  1
  H  H43  1  0.81937800  0.31487000  0.63088900  1
  H  H44  1  0.87120300  0.20057300  0.73205100  1
  H  H45  1  0.77106300  0.70807900  0.24946100  1
  H  H46  1  0.94086800  0.46194600  0.90695600  1
  H  H47  1  0.79807600  0.81038300  0.36617700  1
  H  H48  1  0.85720200  0.18224900  0.41037200  1
  H  H49  1  0.92800700  0.57280000  0.17065100  1
  H  H50  1  0.92410200  0.68771400  0.08788200  1
  H  H51  1  0.92806100  0.97550900  0.16822800  1
  S  S52  1  0.11280600  0.79943200  0.89704100  1
  S  S53  1  0.03186900  0.98276800  0.52720900  1
  S  S54  1  0.47016000  0.01466600  0.47259700  1
  S  S55  1  0.38962100  0.19249000  0.10073200  1
  S  S56  1  0.61037900  0.69249000  0.89926800  1
  S  S57  1  0.52984000  0.51466600  0.52740300  1
  S  S58  1  0.96813100  0.48276800  0.47279100  1
  S  S59  1  0.88719400  0.29943200  0.10295900  1
  N  N60  1  0.27860100  0.25133400  0.68407400  1
  N  N61  1  0.21962200  0.74941800  0.31525500  1
  N  N62  1  0.78037800  0.24941800  0.68474500  1
  N  N63  1  0.72139900  0.75133400  0.31592600  1
  O  O64  1  0.04712500  0.91596800  0.92849900  1
  O  O65  1  0.03124100  0.75641000  0.76706600  1
  O  O66  1  0.11228100  0.70627000  0.99438300  1
  O  O67  1  0.07226600  0.16204600  0.82375200  1
  O  O68  1  0.02584900  0.87031900  0.45224100  1
  O  O69  1  0.03062900  0.09454900  0.44160200  1
  O  O70  1  0.09266700  0.49584300  0.40857800  1
  O  O71  1  0.04095100  0.97427200  0.18043000  1
  O  O72  1  0.17550700  0.99081800  0.62617000  1
  O  O73  1  0.24198600  0.46950500  0.85259100  1
  O  O74  1  0.27009200  0.82196000  0.88306900  1
  O  O75  1  0.24840500  0.70476400  0.60014900  1
  O  O76  1  0.24825500  0.29351800  0.40059700  1
  O  O77  1  0.25612900  0.52786300  0.15236900  1
  O  O78  1  0.23156400  0.17003000  0.11320500  1
  O  O79  1  0.32651500  0.00612700  0.37331600  1
  O  O80  1  0.45840100  0.01935500  0.82074200  1
  O  O81  1  0.40465300  0.50074900  0.59077300  1
  O  O82  1  0.54179800  0.57588300  0.92663800  1
  O  O83  1  0.47135200  0.90254300  0.55831500  1
  O  O84  1  0.53258300  0.73988300  0.77051500  1
  O  O85  1  0.47537400  0.12725600  0.54670600  1
  O  O86  1  0.61005700  0.78215400  0.00072200  1
  O  O87  1  0.43414200  0.83137300  0.18087400  1
  O  O88  1  0.56585800  0.33137300  0.81912600  1
  O  O89  1  0.38994300  0.28215400  0.99927800  1
  O  O90  1  0.52462600  0.62725600  0.45329400  1
  O  O91  1  0.46741700  0.23988300  0.22948500  1
  O  O92  1  0.52864800  0.40254300  0.44168500  1
  O  O93  1  0.45820200  0.07588300  0.07336200  1
  O  O94  1  0.59534700  0.00074900  0.40922700  1
  O  O95  1  0.54159900  0.51935500  0.17925800  1
  O  O96  1  0.67348500  0.50612700  0.62668400  1
  O  O97  1  0.76843600  0.67003000  0.88679500  1
  O  O98  1  0.74387100  0.02786300  0.84763100  1
  O  O99  1  0.75174500  0.79351800  0.59940300  1
  O  O100  1  0.75159500  0.20476400  0.39985100  1
  O  O101  1  0.72990800  0.32196000  0.11693100  1
  O  O102  1  0.75801400  0.96950500  0.14740900  1
  O  O103  1  0.82449300  0.49081800  0.37383000  1
  O  O104  1  0.95904900  0.47427200  0.81957000  1
  O  O105  1  0.90733300  0.99584300  0.59142200  1
  O  O106  1  0.96937100  0.59454900  0.55839800  1
  O  O107  1  0.97415100  0.37031900  0.54775900  1
  O  O108  1  0.92773400  0.66204600  0.17624800  1
  O  O109  1  0.88771900  0.20627000  0.00561700  1
  O  O110  1  0.96875900  0.25641000  0.23293400  1
  O  O111  1  0.95287500  0.41596800  0.07150100  1
