# generated using pymatgen
data_PH9C2N4O5
_symmetry_space_group_name_H-M   'P 1'
_cell_length_a   6.74465900
_cell_length_b   8.35282608
_cell_length_c   8.53843202
_cell_angle_alpha   66.37590106
_cell_angle_beta   75.58174881
_cell_angle_gamma   81.34266259
_symmetry_Int_Tables_number   1
_chemical_formula_structural   PH9C2N4O5
_chemical_formula_sum   'P2 H18 C4 N8 O10'
_cell_volume   426.13698956
_cell_formula_units_Z   2
loop_
 _symmetry_equiv_pos_site_id
 _symmetry_equiv_pos_as_xyz
  1  'x, y, z'
loop_
 _atom_site_type_symbol
 _atom_site_label
 _atom_site_symmetry_multiplicity
 _atom_site_fract_x
 _atom_site_fract_y
 _atom_site_fract_z
 _atom_site_occupancy
  P  P0  1  0.04999400  0.97315600  0.25044400  1
  P  P1  1  0.95000600  0.02684400  0.74955600  1
  H  H2  1  0.99414900  0.16243500  0.98755800  1
  H  H3  1  0.00585100  0.83756500  0.01244200  1
  H  H4  1  0.82059400  0.97848000  0.49066300  1
  H  H5  1  0.17940600  0.02152000  0.50933700  1
  H  H6  1  0.62255200  0.30515300  0.23557300  1
  H  H7  1  0.37744800  0.69484700  0.76442700  1
  H  H8  1  0.43371800  0.18002900  0.22977800  1
  H  H9  1  0.56628200  0.81997100  0.77022200  1
  H  H10  1  0.11301200  0.33190400  0.16807000  1
  H  H11  1  0.88698800  0.66809600  0.83193000  1
  H  H12  1  0.03898600  0.51516100  0.22012600  1
  H  H13  1  0.96101400  0.48483900  0.77987400  1
  H  H14  1  0.27426500  0.67101600  0.22783000  1
  H  H15  1  0.72573500  0.32898400  0.77217000  1
  H  H16  1  0.70392600  0.75710900  0.33485300  1
  H  H17  1  0.29607400  0.24289100  0.66514700  1
  H  H18  1  0.44613600  0.81355700  0.32264400  1
  H  H19  1  0.55386400  0.18644300  0.67735600  1
  C  C20  1  0.34233400  0.42694400  0.22065100  1
  C  C21  1  0.65766600  0.57305600  0.77934900  1
  C  C22  1  0.57525600  0.58968100  0.27509700  1
  C  C23  1  0.42474400  0.41031900  0.72490300  1
  N  N24  1  0.48105700  0.29627500  0.21666400  1
  N  N25  1  0.51894300  0.70372500  0.78333600  1
  N  N26  1  0.15317800  0.42594000  0.20054000  1
  N  N27  1  0.84682200  0.57406000  0.79946000  1
  N  N28  1  0.38795400  0.56876600  0.24344000  1
  N  N29  1  0.61204600  0.43123400  0.75656000  1
  N  N30  1  0.57383000  0.73167300  0.31135600  1
  N  N31  1  0.42617000  0.26832700  0.68864400  1
  O  O32  1  0.07988300  0.82986300  0.17709500  1
  O  O33  1  0.92011700  0.17013700  0.82290500  1
  O  O34  1  0.03938800  0.15970600  0.09472200  1
  O  O35  1  0.96061200  0.84029400  0.90527800  1
  O  O36  1  0.83245600  0.95103300  0.38186100  1
  O  O37  1  0.16754400  0.04896700  0.61813900  1
  O  O38  1  0.21714700  0.97774600  0.34023900  1
  O  O39  1  0.78285300  0.02225400  0.65976100  1
  O  O40  1  0.72707700  0.48458600  0.26875100  1
  O  O41  1  0.27292300  0.51541400  0.73124900  1
