# generated using pymatgen
data_LaNb3O9
_symmetry_space_group_name_H-M   'P 1'
_cell_length_a   16.87178879
_cell_length_b   5.62126700
_cell_length_c   9.80408455
_cell_angle_alpha   90.00000000
_cell_angle_beta   124.97024660
_cell_angle_gamma   90.00000000
_symmetry_Int_Tables_number   1
_chemical_formula_structural   LaNb3O9
_chemical_formula_sum   'La4 Nb12 O36'
_cell_volume   761.94695817
_cell_formula_units_Z   4
loop_
 _symmetry_equiv_pos_site_id
 _symmetry_equiv_pos_as_xyz
  1  'x, y, z'
loop_
 _atom_site_type_symbol
 _atom_site_label
 _atom_site_symmetry_multiplicity
 _atom_site_fract_x
 _atom_site_fract_y
 _atom_site_fract_z
 _atom_site_occupancy
  La  La0  1  0.33360900  0.00000000  0.00140400  1
  La  La1  1  0.17225750  0.50000000  0.00156800  1
  La  La2  1  0.83360900  0.50000000  0.00140400  1
  La  La3  1  0.67225750  0.00000000  0.00156800  1
  Nb  Nb4  1  0.58833150  0.00000000  0.25280000  1
  Nb  Nb5  1  0.75009100  0.00000000  0.73577400  1
  Nb  Nb6  1  0.57886000  0.50000000  0.74352100  1
  Nb  Nb7  1  0.42822200  0.50000000  0.26015700  1
  Nb  Nb8  1  0.25702100  0.00000000  0.26766400  1
  Nb  Nb9  1  0.41792400  0.00000000  0.75120600  1
  Nb  Nb10  1  0.08833150  0.50000000  0.25280000  1
  Nb  Nb11  1  0.25009100  0.50000000  0.73577400  1
  Nb  Nb12  1  0.07886000  0.00000000  0.74352100  1
  Nb  Nb13  1  0.92822200  0.00000000  0.26015700  1
  Nb  Nb14  1  0.75702100  0.50000000  0.26766400  1
  Nb  Nb15  1  0.91792400  0.50000000  0.75120600  1
  O  O16  1  0.50298250  0.00000000  0.00007200  1
  O  O17  1  0.84100600  0.73852300  0.77099400  1
  O  O18  1  0.84100600  0.26147700  0.77099400  1
  O  O19  1  0.67824950  0.50000000  0.99835500  1
  O  O20  1  0.33032350  0.50000000  0.00183200  1
  O  O21  1  0.50495650  0.50000000  0.50080900  1
  O  O22  1  0.66876650  0.00000000  0.49778400  1
  O  O23  1  0.68036250  0.24465850  0.77691700  1
  O  O24  1  0.49438100  0.23647600  0.23364400  1
  O  O25  1  0.51364600  0.23693500  0.76727900  1
  O  O26  1  0.49438100  0.76352400  0.23364400  1
  O  O27  1  0.68036250  0.75534150  0.77691700  1
  O  O28  1  0.32825050  0.24654650  0.22508000  1
  O  O29  1  0.33855350  0.00000000  0.50305800  1
  O  O30  1  0.32825050  0.75345350  0.22508000  1
  O  O31  1  0.51364600  0.76306500  0.76727900  1
  O  O32  1  0.16724450  0.74032950  0.23080100  1
  O  O33  1  0.16724450  0.25967050  0.23080100  1
  O  O34  1  0.00298250  0.50000000  0.00007200  1
  O  O35  1  0.34100600  0.23852300  0.77099400  1
  O  O36  1  0.34100600  0.76147700  0.77099400  1
  O  O37  1  0.17824950  0.00000000  0.99835500  1
  O  O38  1  0.83032350  0.00000000  0.00183200  1
  O  O39  1  0.00495650  0.00000000  0.50080900  1
  O  O40  1  0.16876650  0.50000000  0.49778400  1
  O  O41  1  0.18036250  0.74465850  0.77691700  1
  O  O42  1  0.99438100  0.73647600  0.23364400  1
  O  O43  1  0.01364600  0.73693500  0.76727900  1
  O  O44  1  0.99438100  0.26352400  0.23364400  1
  O  O45  1  0.18036250  0.25534150  0.77691700  1
  O  O46  1  0.82825050  0.74654650  0.22508000  1
  O  O47  1  0.83855350  0.50000000  0.50305800  1
  O  O48  1  0.82825050  0.25345350  0.22508000  1
  O  O49  1  0.01364600  0.26306500  0.76727900  1
  O  O50  1  0.66724450  0.24032950  0.23080100  1
  O  O51  1  0.66724450  0.75967050  0.23080100  1
