# generated using pymatgen
data_LiLa7(CuO7)2
_symmetry_space_group_name_H-M   'P 1'
_cell_length_a   19.15636800
_cell_length_b   13.14238000
_cell_length_c   11.87668611
_cell_angle_alpha   90.00000000
_cell_angle_beta   119.78680438
_cell_angle_gamma   90.00000000
_symmetry_Int_Tables_number   1
_chemical_formula_structural   LiLa7(CuO7)2
_chemical_formula_sum   'Li8 La56 Cu16 O112'
_cell_volume   2595.02827420
_cell_formula_units_Z   8
loop_
 _symmetry_equiv_pos_site_id
 _symmetry_equiv_pos_as_xyz
  1  'x, y, z'
loop_
 _atom_site_type_symbol
 _atom_site_label
 _atom_site_symmetry_multiplicity
 _atom_site_fract_x
 _atom_site_fract_y
 _atom_site_fract_z
 _atom_site_occupancy
  Li  Li0  1  0.78573100  0.50000000  0.92918400  1
  Li  Li1  1  0.21426900  0.50000000  0.07081600  1
  Li  Li2  1  0.07143800  0.50000000  0.35754800  1
  Li  Li3  1  0.92856200  0.50000000  0.64245200  1
  Li  Li4  1  0.28573100  0.00000000  0.92918400  1
  Li  Li5  1  0.71426900  0.00000000  0.07081600  1
  Li  Li6  1  0.57143800  0.00000000  0.35754800  1
  Li  Li7  1  0.42856200  0.00000000  0.64245200  1
  La  La8  1  0.71268550  0.36264450  0.07420700  1
  La  La9  1  0.71268550  0.63735550  0.07420700  1
  La  La10  1  0.64533300  0.64022600  0.71804800  1
  La  La11  1  0.92835100  0.63803700  0.14246200  1
  La  La12  1  0.64533300  0.35977400  0.71804800  1
  La  La13  1  0.00000000  0.86595500  0.00000000  1
  La  La14  1  0.00000000  0.13404500  0.00000000  1
  La  La15  1  0.92835100  0.36196300  0.14246200  1
  La  La16  1  0.07426400  0.85957700  0.35174700  1
  La  La17  1  0.92573600  0.85957700  0.64825300  1
  La  La18  1  0.85763300  0.36168900  0.78599500  1
  La  La19  1  0.28731450  0.36264450  0.92579300  1
  La  La20  1  0.14236700  0.36168900  0.21400500  1
  La  La21  1  0.07426400  0.14042300  0.35174700  1
  La  La22  1  0.85763300  0.63831100  0.78599500  1
  La  La23  1  0.92573600  0.14042300  0.64825300  1
  La  La24  1  0.28731450  0.63735550  0.92579300  1
  La  La25  1  0.14236700  0.63831100  0.21400500  1
  La  La26  1  0.78338450  0.36411150  0.42479200  1
  La  La27  1  0.21661550  0.36411150  0.57520800  1
  La  La28  1  0.07164900  0.63803700  0.85753800  1
  La  La29  1  0.21661550  0.63588850  0.57520800  1
  La  La30  1  0.78338450  0.63588850  0.42479200  1
  La  La31  1  0.07164900  0.36196300  0.85753800  1
  La  La32  1  0.35466700  0.35977400  0.28195200  1
  La  La33  1  0.35466700  0.64022600  0.28195200  1
  La  La34  1  0.00000000  0.36025400  0.50000000  1
  La  La35  1  0.00000000  0.63974600  0.50000000  1
  La  La36  1  0.21268550  0.86264450  0.07420700  1
  La  La37  1  0.21268550  0.13735550  0.07420700  1
  La  La38  1  0.14533300  0.14022600  0.71804800  1
  La  La39  1  0.42835100  0.13803700  0.14246200  1
  La  La40  1  0.14533300  0.85977400  0.71804800  1
  La  La41  1  0.50000000  0.36595500  0.00000000  1
  La  La42  1  0.50000000  0.63404500  0.00000000  1
  La  La43  1  0.42835100  0.86196300  0.14246200  1
  La  La44  1  0.57426400  0.35957700  0.35174700  1
  La  La45  1  0.42573600  0.35957700  0.64825300  1
  La  La46  1  0.35763300  0.86168900  0.78599500  1
  La  La47  1  0.78731450  0.86264450  0.92579300  1
  La  La48  1  0.64236700  0.86168900  0.21400500  1
  La  La49  1  0.57426400  0.64042300  0.35174700  1
  La  La50  1  0.35763300  0.13831100  0.78599500  1
  La  La51  1  0.42573600  0.64042300  0.64825300  1
  La  La52  1  0.78731450  0.13735550  0.92579300  1
  La  La53  1  0.64236700  0.13831100  0.21400500  1
  La  La54  1  0.28338450  0.86411150  0.42479200  1
  La  La55  1  0.71661550  0.86411150  0.57520800  1
  La  La56  1  0.57164900  0.13803700  0.85753800  1
  La  La57  1  0.71661550  0.13588850  0.57520800  1
  La  La58  1  0.28338450  0.13588850  0.42479200  1
  La  La59  1  0.57164900  0.86196300  0.85753800  1
  La  La60  1  0.85466700  0.85977400  0.28195200  1
  La  La61  1  0.85466700  0.14022600  0.28195200  1
  La  La62  1  0.50000000  0.86025400  0.50000000  1
  La  La63  1  0.50000000  0.13974600  0.50000000  1
  Cu  Cu64  1  0.71448300  0.50000000  0.57197800  1
  Cu  Cu65  1  0.57167500  0.50000000  0.85678000  1
  Cu  Cu66  1  0.42832500  0.50000000  0.14322000  1
  Cu  Cu67  1  0.00000000  0.00000000  0.50000000  1
  Cu  Cu68  1  0.85751650  0.50000000  0.28574000  1
  Cu  Cu69  1  0.28551700  0.50000000  0.42802200  1
  Cu  Cu70  1  0.14248350  0.50000000  0.71426000  1
  Cu  Cu71  1  0.00000000  0.50000000  0.00000000  1
  Cu  Cu72  1  0.21448300  0.00000000  0.57197800  1
  Cu  Cu73  1  0.07167500  0.00000000  0.85678000  1
  Cu  Cu74  1  0.92832500  0.00000000  0.14322000  1
  Cu  Cu75  1  0.50000000  0.50000000  0.50000000  1
  Cu  Cu76  1  0.35751650  0.00000000  0.28574000  1
  Cu  Cu77  1  0.78551700  0.00000000  0.42802200  1
  Cu  Cu78  1  0.64248350  0.00000000  0.71426000  1
  Cu  Cu79  1  0.50000000  0.00000000  0.00000000  1
  O  O80  1  0.82199000  0.50000000  0.11103500  1
  O  O81  1  0.75310400  0.50000000  0.25043700  1
  O  O82  1  0.14330600  0.81456000  0.21619500  1
  O  O83  1  0.14330600  0.18544000  0.21619500  1
  O  O84  1  0.81965500  0.50000000  0.60584900  1
  O  O85  1  0.53254900  0.50000000  0.17759400  1
  O  O86  1  0.74925300  0.50000000  0.74715800  1
  O  O87  1  0.67684800  0.50000000  0.89279600  1
  O  O88  1  0.60641300  0.50000000  0.03161400  1
  O  O89  1  0.07138000  0.18413700  0.85591700  1
  O  O90  1  0.07138000  0.81586300  0.85591700  1
  O  O91  1  0.00000000  0.68604700  0.00000000  1
  O  O92  1  0.00000000  0.31395300  0.00000000  1
  O  O93  1  0.92862000  0.81586300  0.14408300  1
  O  O94  1  0.92862000  0.18413700  0.14408300  1
  O  O95  1  0.39358700  0.50000000  0.96838600  1
  O  O96  1  0.25074700  0.50000000  0.25284200  1
  O  O97  1  0.32315200  0.50000000  0.10720400  1
  O  O98  1  0.67938100  0.50000000  0.39784000  1
  O  O99  1  0.53544800  0.50000000  0.67895000  1
  O  O100  1  0.60796600  0.50000000  0.53534800  1
  O  O101  1  0.46745100  0.50000000  0.82240600  1
  O  O102  1  0.78555950  0.68010150  0.92754600  1
  O  O103  1  0.00000000  0.17912300  0.50000000  1
  O  O104  1  0.85669400  0.81456000  0.78380500  1
  O  O105  1  0.92916100  0.32039200  0.64371400  1
  O  O106  1  0.00000000  0.82087700  0.50000000  1
  O  O107  1  0.78555950  0.31989850  0.92754600  1
  O  O108  1  0.85669400  0.18544000  0.78380500  1
  O  O109  1  0.21444050  0.68010150  0.07245400  1
  O  O110  1  0.92916100  0.67960800  0.64371400  1
  O  O111  1  0.21444050  0.31989850  0.07245400  1
  O  O112  1  0.17801000  0.50000000  0.88896500  1
  O  O113  1  0.03480000  0.50000000  0.17437600  1
  O  O114  1  0.39203400  0.50000000  0.46465200  1
  O  O115  1  0.24689600  0.50000000  0.74956300  1
  O  O116  1  0.10451900  0.50000000  0.03433100  1
  O  O117  1  0.46455200  0.50000000  0.32105000  1
  O  O118  1  0.32061900  0.50000000  0.60216000  1
  O  O119  1  0.85715250  0.31494950  0.28572500  1
  O  O120  1  0.14284750  0.31494950  0.71427500  1
  O  O121  1  0.28660750  0.31562750  0.42932300  1
  O  O122  1  0.71339250  0.31562750  0.57067700  1
  O  O123  1  0.85715250  0.68505050  0.28572500  1
  O  O124  1  0.28660750  0.68437250  0.42932300  1
  O  O125  1  0.14284750  0.68505050  0.71427500  1
  O  O126  1  0.71339250  0.68437250  0.57067700  1
  O  O127  1  0.10786200  0.50000000  0.53987900  1
  O  O128  1  0.03732700  0.50000000  0.67843600  1
  O  O129  1  0.89548100  0.50000000  0.96566900  1
  O  O130  1  0.18034500  0.50000000  0.39415100  1
  O  O131  1  0.96520000  0.50000000  0.82562400  1
  O  O132  1  0.07083900  0.67960800  0.35628600  1
  O  O133  1  0.07083900  0.32039200  0.35628600  1
  O  O134  1  0.89213800  0.50000000  0.46012100  1
  O  O135  1  0.96267300  0.50000000  0.32156400  1
  O  O136  1  0.32199000  0.00000000  0.11103500  1
  O  O137  1  0.25310400  0.00000000  0.25043700  1
  O  O138  1  0.64330600  0.31456000  0.21619500  1
  O  O139  1  0.64330600  0.68544000  0.21619500  1
  O  O140  1  0.31965500  0.00000000  0.60584900  1
  O  O141  1  0.03254900  0.00000000  0.17759400  1
  O  O142  1  0.24925300  0.00000000  0.74715800  1
  O  O143  1  0.17684800  0.00000000  0.89279600  1
  O  O144  1  0.10641300  0.00000000  0.03161400  1
  O  O145  1  0.57138000  0.68413700  0.85591700  1
  O  O146  1  0.57138000  0.31586300  0.85591700  1
  O  O147  1  0.50000000  0.18604700  0.00000000  1
  O  O148  1  0.50000000  0.81395300  0.00000000  1
  O  O149  1  0.42862000  0.31586300  0.14408300  1
  O  O150  1  0.42862000  0.68413700  0.14408300  1
  O  O151  1  0.89358700  0.00000000  0.96838600  1
  O  O152  1  0.75074700  0.00000000  0.25284200  1
  O  O153  1  0.82315200  0.00000000  0.10720400  1
  O  O154  1  0.17938100  0.00000000  0.39784000  1
  O  O155  1  0.03544800  0.00000000  0.67895000  1
  O  O156  1  0.10796600  0.00000000  0.53534800  1
  O  O157  1  0.96745100  0.00000000  0.82240600  1
  O  O158  1  0.28555950  0.18010150  0.92754600  1
  O  O159  1  0.50000000  0.67912300  0.50000000  1
  O  O160  1  0.35669400  0.31456000  0.78380500  1
  O  O161  1  0.42916100  0.82039200  0.64371400  1
  O  O162  1  0.50000000  0.32087700  0.50000000  1
  O  O163  1  0.28555950  0.81989850  0.92754600  1
  O  O164  1  0.35669400  0.68544000  0.78380500  1
  O  O165  1  0.71444050  0.18010150  0.07245400  1
  O  O166  1  0.42916100  0.17960800  0.64371400  1
  O  O167  1  0.71444050  0.81989850  0.07245400  1
  O  O168  1  0.67801000  0.00000000  0.88896500  1
  O  O169  1  0.53480000  0.00000000  0.17437600  1
  O  O170  1  0.89203400  0.00000000  0.46465200  1
  O  O171  1  0.74689600  0.00000000  0.74956300  1
  O  O172  1  0.60451900  0.00000000  0.03433100  1
  O  O173  1  0.96455200  0.00000000  0.32105000  1
  O  O174  1  0.82061900  0.00000000  0.60216000  1
  O  O175  1  0.35715250  0.81494950  0.28572500  1
  O  O176  1  0.64284750  0.81494950  0.71427500  1
  O  O177  1  0.78660750  0.81562750  0.42932300  1
  O  O178  1  0.21339250  0.81562750  0.57067700  1
  O  O179  1  0.35715250  0.18505050  0.28572500  1
  O  O180  1  0.78660750  0.18437250  0.42932300  1
  O  O181  1  0.64284750  0.18505050  0.71427500  1
  O  O182  1  0.21339250  0.18437250  0.57067700  1
  O  O183  1  0.60786200  0.00000000  0.53987900  1
  O  O184  1  0.53732700  0.00000000  0.67843600  1
  O  O185  1  0.39548100  0.00000000  0.96566900  1
  O  O186  1  0.68034500  0.00000000  0.39415100  1
  O  O187  1  0.46520000  0.00000000  0.82562400  1
  O  O188  1  0.57083900  0.17960800  0.35628600  1
  O  O189  1  0.57083900  0.82039200  0.35628600  1
  O  O190  1  0.39213800  0.00000000  0.46012100  1
  O  O191  1  0.46267300  0.00000000  0.32156400  1
