# generated using pymatgen
data_Co(IO3)2
_symmetry_space_group_name_H-M   'P 1'
_cell_length_a   5.23792000
_cell_length_b   7.07798100
_cell_length_c   14.77395400
_cell_angle_alpha   90.00000000
_cell_angle_beta   90.00000000
_cell_angle_gamma   90.00000000
_symmetry_Int_Tables_number   1
_chemical_formula_structural   Co(IO3)2
_chemical_formula_sum   'Co4 I8 O24'
_cell_volume   547.72806719
_cell_formula_units_Z   4
loop_
 _symmetry_equiv_pos_site_id
 _symmetry_equiv_pos_as_xyz
  1  'x, y, z'
loop_
 _atom_site_type_symbol
 _atom_site_label
 _atom_site_symmetry_multiplicity
 _atom_site_fract_x
 _atom_site_fract_y
 _atom_site_fract_z
 _atom_site_occupancy
  Co  Co0  1  0.75000000  0.62358500  0.50000000  1
  Co  Co1  1  0.25000000  0.37641500  0.50000000  1
  Co  Co2  1  0.25000000  0.87641500  0.00000000  1
  Co  Co3  1  0.75000000  0.12358500  0.00000000  1
  I  I4  1  0.23025600  0.78096700  0.35240400  1
  I  I5  1  0.73025600  0.21903300  0.35240400  1
  I  I6  1  0.73025600  0.71903300  0.14759600  1
  I  I7  1  0.23025600  0.28096700  0.14759600  1
  I  I8  1  0.76974400  0.71903300  0.85240400  1
  I  I9  1  0.26974400  0.28096700  0.85240400  1
  I  I10  1  0.26974400  0.78096700  0.64759600  1
  I  I11  1  0.76974400  0.21903300  0.64759600  1
  O  O12  1  0.90851300  0.39966200  0.42099400  1
  O  O13  1  0.40851300  0.60033800  0.42099400  1
  O  O14  1  0.93743200  0.82099400  0.42033200  1
  O  O15  1  0.43743200  0.17900600  0.42033200  1
  O  O16  1  0.10771200  0.13252000  0.23787300  1
  O  O17  1  0.60771200  0.86748000  0.23787300  1
  O  O18  1  0.10771200  0.63252000  0.26212700  1
  O  O19  1  0.60771200  0.36748000  0.26212700  1
  O  O20  1  0.43743200  0.67900600  0.07966800  1
  O  O21  1  0.93743200  0.32099400  0.07966800  1
  O  O22  1  0.90851300  0.89966200  0.07900600  1
  O  O23  1  0.40851300  0.10033800  0.07900600  1
  O  O24  1  0.59148700  0.89966200  0.92099400  1
  O  O25  1  0.09148700  0.10033800  0.92099400  1
  O  O26  1  0.06256800  0.67900600  0.92033200  1
  O  O27  1  0.56256800  0.32099400  0.92033200  1
  O  O28  1  0.39228800  0.63252000  0.73787300  1
  O  O29  1  0.89228800  0.36748000  0.73787300  1
  O  O30  1  0.89228800  0.86748000  0.76212700  1
  O  O31  1  0.39228800  0.13252000  0.76212700  1
  O  O32  1  0.56256800  0.82099400  0.57966800  1
  O  O33  1  0.06256800  0.17900600  0.57966800  1
  O  O34  1  0.09148700  0.60033800  0.57900600  1
  O  O35  1  0.59148700  0.39966200  0.57900600  1
