# generated using pymatgen
data_V3O5F
_symmetry_space_group_name_H-M   'P 1'
_cell_length_a   8.94228000
_cell_length_b   6.47750400
_cell_length_c   7.32959265
_cell_angle_alpha   90.00000000
_cell_angle_beta   114.82455380
_cell_angle_gamma   90.00000000
_symmetry_Int_Tables_number   1
_chemical_formula_structural   V3O5F
_chemical_formula_sum   'V12 O20 F4'
_cell_volume   385.32674302
_cell_formula_units_Z   4
loop_
 _symmetry_equiv_pos_site_id
 _symmetry_equiv_pos_as_xyz
  1  'x, y, z'
loop_
 _atom_site_type_symbol
 _atom_site_label
 _atom_site_symmetry_multiplicity
 _atom_site_fract_x
 _atom_site_fract_y
 _atom_site_fract_z
 _atom_site_occupancy
  V  V0  1  0.17390600  0.50000000  0.15348400  1
  V  V1  1  0.81943000  0.50000000  0.32867400  1
  V  V2  1  0.15600600  0.50000000  0.68198300  1
  V  V3  1  0.83822000  0.50000000  0.84035900  1
  V  V4  1  0.49964500  0.50000000  0.48491600  1
  V  V5  1  0.51198800  0.50000000  0.01259100  1
  V  V6  1  0.67390600  0.00000000  0.15348400  1
  V  V7  1  0.31943000  0.00000000  0.32867400  1
  V  V8  1  0.65600600  0.00000000  0.68198300  1
  V  V9  1  0.33822000  0.00000000  0.84035900  1
  V  V10  1  0.99964500  0.00000000  0.48491600  1
  V  V11  1  0.01198800  0.00000000  0.01259100  1
  O  O12  1  0.83891950  0.20103250  0.34070400  1
  O  O13  1  0.16480200  0.20376100  0.66580900  1
  O  O14  1  0.73780200  0.50000000  0.03468800  1
  O  O15  1  0.59690800  0.50000000  0.30339200  1
  O  O16  1  0.27206600  0.50000000  0.96203000  1
  O  O17  1  0.93266500  0.50000000  0.63114000  1
  O  O18  1  0.99533900  0.29875700  0.99336400  1
  O  O19  1  0.83891950  0.79896750  0.34070400  1
  O  O20  1  0.16480200  0.79623900  0.66580900  1
  O  O21  1  0.99533900  0.70124300  0.99336400  1
  O  O22  1  0.33891950  0.70103250  0.34070400  1
  O  O23  1  0.66480200  0.70376100  0.66580900  1
  O  O24  1  0.23780200  0.00000000  0.03468800  1
  O  O25  1  0.09690800  0.00000000  0.30339200  1
  O  O26  1  0.77206600  0.00000000  0.96203000  1
  O  O27  1  0.43266500  0.00000000  0.63114000  1
  O  O28  1  0.49533900  0.79875700  0.99336400  1
  O  O29  1  0.33891950  0.29896750  0.34070400  1
  O  O30  1  0.66480200  0.29623900  0.66580900  1
  O  O31  1  0.49533900  0.20124300  0.99336400  1
  F  F32  1  0.06425700  0.50000000  0.36700700  1
  F  F33  1  0.39898800  0.50000000  0.69998200  1
  F  F34  1  0.56425700  0.00000000  0.36700700  1
  F  F35  1  0.89898800  0.00000000  0.69998200  1
