# generated using pymatgen
data_Ba2La2O5
_symmetry_space_group_name_H-M   'P 1'
_cell_length_a   6.60855000
_cell_length_b   6.67676500
_cell_length_c   17.44935600
_cell_angle_alpha   90.00000000
_cell_angle_beta   90.00000000
_cell_angle_gamma   90.00000000
_symmetry_Int_Tables_number   1
_chemical_formula_structural   Ba2La2O5
_chemical_formula_sum   'Ba8 La8 O20'
_cell_volume   769.93076601
_cell_formula_units_Z   4
loop_
 _symmetry_equiv_pos_site_id
 _symmetry_equiv_pos_as_xyz
  1  'x, y, z'
loop_
 _atom_site_type_symbol
 _atom_site_label
 _atom_site_symmetry_multiplicity
 _atom_site_fract_x
 _atom_site_fract_y
 _atom_site_fract_z
 _atom_site_occupancy
  Ba  Ba0  1  0.03444900  0.51969900  0.88979600  1
  Ba  Ba1  1  0.03444900  0.51969900  0.61020400  1
  Ba  Ba2  1  0.53444900  0.98030100  0.88979600  1
  Ba  Ba3  1  0.53444900  0.98030100  0.61020400  1
  Ba  Ba4  1  0.46555100  0.01969900  0.38979600  1
  Ba  Ba5  1  0.46555100  0.01969900  0.11020400  1
  Ba  Ba6  1  0.96555100  0.48030100  0.38979600  1
  Ba  Ba7  1  0.96555100  0.48030100  0.11020400  1
  La  La8  1  0.50000000  0.50000000  0.00000000  1
  La  La9  1  0.50000000  0.50000000  0.50000000  1
  La  La10  1  0.44916000  0.55176900  0.25000000  1
  La  La11  1  0.94916000  0.94823100  0.25000000  1
  La  La12  1  0.00000000  0.00000000  0.50000000  1
  La  La13  1  0.00000000  0.00000000  0.00000000  1
  La  La14  1  0.05084000  0.05176900  0.75000000  1
  La  La15  1  0.55084000  0.44823100  0.75000000  1
  O  O16  1  0.44802900  0.59300500  0.86033800  1
  O  O17  1  0.44802900  0.59300500  0.63966200  1
  O  O18  1  0.09535200  0.62865400  0.25000000  1
  O  O19  1  0.21193700  0.71278100  0.47674500  1
  O  O20  1  0.21193700  0.71278100  0.02325500  1
  O  O21  1  0.71193700  0.78721900  0.47674500  1
  O  O22  1  0.71193700  0.78721900  0.02325500  1
  O  O23  1  0.59535200  0.87134600  0.25000000  1
  O  O24  1  0.94802900  0.90699500  0.86033800  1
  O  O25  1  0.94802900  0.90699500  0.63966200  1
  O  O26  1  0.05197100  0.09300500  0.36033800  1
  O  O27  1  0.05197100  0.09300500  0.13966200  1
  O  O28  1  0.40464800  0.12865400  0.75000000  1
  O  O29  1  0.28806300  0.21278100  0.97674500  1
  O  O30  1  0.28806300  0.21278100  0.52325500  1
  O  O31  1  0.78806300  0.28721900  0.97674500  1
  O  O32  1  0.78806300  0.28721900  0.52325500  1
  O  O33  1  0.90464800  0.37134600  0.75000000  1
  O  O34  1  0.55197100  0.40699500  0.36033800  1
  O  O35  1  0.55197100  0.40699500  0.13966200  1
