# generated using pymatgen
data_AgAsO3
_symmetry_space_group_name_H-M   'P 1'
_cell_length_a   11.16943600
_cell_length_b   10.83017200
_cell_length_c   5.15800273
_cell_angle_alpha   90.00000000
_cell_angle_beta   102.37495228
_cell_angle_gamma   90.00000000
_symmetry_Int_Tables_number   1
_chemical_formula_structural   AgAsO3
_chemical_formula_sum   'Ag8 As8 O24'
_cell_volume   609.45090445
_cell_formula_units_Z   8
loop_
 _symmetry_equiv_pos_site_id
 _symmetry_equiv_pos_as_xyz
  1  'x, y, z'
loop_
 _atom_site_type_symbol
 _atom_site_label
 _atom_site_symmetry_multiplicity
 _atom_site_fract_x
 _atom_site_fract_y
 _atom_site_fract_z
 _atom_site_occupancy
  Ag  Ag0  1  0.00000000  0.77366100  0.75000000  1
  Ag  Ag1  1  0.00000000  0.40384100  0.75000000  1
  Ag  Ag2  1  0.00000000  0.59615900  0.25000000  1
  Ag  Ag3  1  0.00000000  0.22633900  0.25000000  1
  Ag  Ag4  1  0.50000000  0.27366100  0.75000000  1
  Ag  Ag5  1  0.50000000  0.90384100  0.75000000  1
  Ag  Ag6  1  0.50000000  0.09615900  0.25000000  1
  Ag  Ag7  1  0.50000000  0.72633900  0.25000000  1
  As  As8  1  0.71065350  0.58866050  0.77057900  1
  As  As9  1  0.71065350  0.41133950  0.27057900  1
  As  As10  1  0.28934650  0.58866050  0.72942100  1
  As  As11  1  0.28934650  0.41133950  0.22942100  1
  As  As12  1  0.21065350  0.08866050  0.77057900  1
  As  As13  1  0.21065350  0.91133950  0.27057900  1
  As  As14  1  0.78934650  0.08866050  0.72942100  1
  As  As15  1  0.78934650  0.91133950  0.22942100  1
  O  O16  1  0.65339000  0.45748600  0.55857400  1
  O  O17  1  0.65339000  0.54251400  0.05857400  1
  O  O18  1  0.86514100  0.58924100  0.82689900  1
  O  O19  1  0.86811000  0.21667200  0.84243600  1
  O  O20  1  0.86514100  0.41075900  0.32689900  1
  O  O21  1  0.86811000  0.78332800  0.34243600  1
  O  O22  1  0.13189000  0.21667200  0.65756400  1
  O  O23  1  0.13485900  0.58924100  0.67310100  1
  O  O24  1  0.13189000  0.78332800  0.15756400  1
  O  O25  1  0.13485900  0.41075900  0.17310100  1
  O  O26  1  0.34661000  0.45748600  0.94142600  1
  O  O27  1  0.34661000  0.54251400  0.44142600  1
  O  O28  1  0.15339000  0.95748600  0.55857400  1
  O  O29  1  0.15339000  0.04251400  0.05857400  1
  O  O30  1  0.36514100  0.08924100  0.82689900  1
  O  O31  1  0.36811000  0.71667200  0.84243600  1
  O  O32  1  0.36514100  0.91075900  0.32689900  1
  O  O33  1  0.36811000  0.28332800  0.34243600  1
  O  O34  1  0.63189000  0.71667200  0.65756400  1
  O  O35  1  0.63485900  0.08924100  0.67310100  1
  O  O36  1  0.63189000  0.28332800  0.15756400  1
  O  O37  1  0.63485900  0.91075900  0.17310100  1
  O  O38  1  0.84661000  0.95748600  0.94142600  1
  O  O39  1  0.84661000  0.04251400  0.44142600  1
