# generated using pymatgen
data_Sr3TeO6
_symmetry_space_group_name_H-M   'P 1'
_cell_length_a   6.02325431
_cell_length_b   6.02325431
_cell_length_c   14.89010380
_cell_angle_alpha   90.00000000
_cell_angle_beta   90.00000000
_cell_angle_gamma   120.00000000
_symmetry_Int_Tables_number   1
_chemical_formula_structural   Sr3TeO6
_chemical_formula_sum   'Sr9 Te3 O18'
_cell_volume   467.83289736
_cell_formula_units_Z   3
loop_
 _symmetry_equiv_pos_site_id
 _symmetry_equiv_pos_as_xyz
  1  'x, y, z'
loop_
 _atom_site_type_symbol
 _atom_site_label
 _atom_site_symmetry_multiplicity
 _atom_site_fract_x
 _atom_site_fract_y
 _atom_site_fract_z
 _atom_site_occupancy
  Sr  Sr0  1  0.33333333  0.66666667  0.31326867  1
  Sr  Sr1  1  0.33333333  0.66666667  0.04811167  1
  Sr  Sr2  1  0.66666667  0.33333333  0.21502533  1
  Sr  Sr3  1  0.00000000  0.00000000  0.64660200  1
  Sr  Sr4  1  0.00000000  0.00000000  0.38144500  1
  Sr  Sr5  1  0.33333333  0.66666667  0.54835867  1
  Sr  Sr6  1  0.66666667  0.33333333  0.97993533  1
  Sr  Sr7  1  0.66666667  0.33333333  0.71477833  1
  Sr  Sr8  1  0.00000000  0.00000000  0.88169200  1
  Te  Te9  1  0.00000000  0.00000000  0.15251500  1
  Te  Te10  1  0.66666667  0.33333333  0.48584833  1
  Te  Te11  1  0.33333333  0.66666667  0.81918167  1
  O  O12  1  0.29959400  0.06597700  0.08098000  1
  O  O13  1  0.05279367  0.76980933  0.23160233  1
  O  O14  1  0.71701567  0.94720633  0.23160233  1
  O  O15  1  0.93402300  0.23361700  0.08098000  1
  O  O16  1  0.76638300  0.70040600  0.08098000  1
  O  O17  1  0.23019067  0.28298433  0.23160233  1
  O  O18  1  0.96626067  0.39931033  0.41431333  1
  O  O19  1  0.71946033  0.10314267  0.56493567  1
  O  O20  1  0.38368233  0.28053967  0.56493567  1
  O  O21  1  0.60068967  0.56695033  0.41431333  1
  O  O22  1  0.43304967  0.03373933  0.41431333  1
  O  O23  1  0.89685733  0.61631767  0.56493567  1
  O  O24  1  0.63292733  0.73264367  0.74764667  1
  O  O25  1  0.38612700  0.43647600  0.89826900  1
  O  O26  1  0.05034900  0.61387300  0.89826900  1
  O  O27  1  0.26735633  0.90028367  0.74764667  1
  O  O28  1  0.09971633  0.36707267  0.74764667  1
  O  O29  1  0.56352400  0.94965100  0.89826900  1
