# generated using pymatgen
data_K2Cr2O7
_symmetry_space_group_name_H-M   'P 1'
_cell_length_a   16.04409600
_cell_length_b   6.71776800
_cell_length_c   8.14085835
_cell_angle_alpha   90.00000000
_cell_angle_beta   93.96845966
_cell_angle_gamma   90.00000000
_symmetry_Int_Tables_number   1
_chemical_formula_structural   K2Cr2O7
_chemical_formula_sum   'K8 Cr8 O28'
_cell_volume   875.32209745
_cell_formula_units_Z   4
loop_
 _symmetry_equiv_pos_site_id
 _symmetry_equiv_pos_as_xyz
  1  'x, y, z'
loop_
 _atom_site_type_symbol
 _atom_site_label
 _atom_site_symmetry_multiplicity
 _atom_site_fract_x
 _atom_site_fract_y
 _atom_site_fract_z
 _atom_site_occupancy
  K  K0  1  0.64604200  0.00000000  0.76030800  1
  K  K1  1  0.86842300  0.50000000  0.71393000  1
  K  K2  1  0.63157700  0.00000000  0.28607000  1
  K  K3  1  0.85395800  0.50000000  0.23969200  1
  K  K4  1  0.14604200  0.50000000  0.76030800  1
  K  K5  1  0.36842300  0.00000000  0.71393000  1
  K  K6  1  0.13157700  0.50000000  0.28607000  1
  K  K7  1  0.35395800  0.00000000  0.23969200  1
  Cr  Cr8  1  0.63597200  0.50000000  0.43433300  1
  Cr  Cr9  1  0.86402800  0.00000000  0.56566700  1
  Cr  Cr10  1  0.62933800  0.50000000  0.00215700  1
  Cr  Cr11  1  0.87066200  0.00000000  0.99784300  1
  Cr  Cr12  1  0.13597200  0.00000000  0.43433300  1
  Cr  Cr13  1  0.36402800  0.50000000  0.56566700  1
  Cr  Cr14  1  0.12933800  0.00000000  0.00215700  1
  Cr  Cr15  1  0.37066200  0.50000000  0.99784300  1
  O  O16  1  0.90209150  0.79733750  0.48824000  1
  O  O17  1  0.59790850  0.70266250  0.51176000  1
  O  O18  1  0.90209150  0.20266250  0.48824000  1
  O  O19  1  0.91444750  0.79995250  0.07755200  1
  O  O20  1  0.88683600  0.00000000  0.78185900  1
  O  O21  1  0.76171300  0.00000000  0.53334100  1
  O  O22  1  0.58555250  0.70004750  0.92244800  1
  O  O23  1  0.61316400  0.50000000  0.21814100  1
  O  O24  1  0.91444750  0.20004750  0.07755200  1
  O  O25  1  0.73828700  0.50000000  0.46665900  1
  O  O26  1  0.72994800  0.50000000  0.97400500  1
  O  O27  1  0.59790850  0.29733750  0.51176000  1
  O  O28  1  0.58555250  0.29995250  0.92244800  1
  O  O29  1  0.77005200  0.00000000  0.02599500  1
  O  O30  1  0.40209150  0.29733750  0.48824000  1
  O  O31  1  0.09790850  0.20266250  0.51176000  1
  O  O32  1  0.40209150  0.70266250  0.48824000  1
  O  O33  1  0.41444750  0.29995250  0.07755200  1
  O  O34  1  0.38683600  0.50000000  0.78185900  1
  O  O35  1  0.26171300  0.50000000  0.53334100  1
  O  O36  1  0.08555250  0.20004750  0.92244800  1
  O  O37  1  0.11316400  0.00000000  0.21814100  1
  O  O38  1  0.41444750  0.70004750  0.07755200  1
  O  O39  1  0.23828700  0.00000000  0.46665900  1
  O  O40  1  0.22994800  0.00000000  0.97400500  1
  O  O41  1  0.09790850  0.79733750  0.51176000  1
  O  O42  1  0.08555250  0.79995250  0.92244800  1
  O  O43  1  0.27005200  0.50000000  0.02599500  1
