# generated using pymatgen
data_Y2Ge2O7
_symmetry_space_group_name_H-M   'P 1'
_cell_length_a   7.05810000
_cell_length_b   9.24205400
_cell_length_c   5.01658841
_cell_angle_alpha   90.00000000
_cell_angle_beta   102.24538293
_cell_angle_gamma   90.00000000
_symmetry_Int_Tables_number   1
_chemical_formula_structural   Y2Ge2O7
_chemical_formula_sum   'Y4 Ge4 O14'
_cell_volume   319.79351980
_cell_formula_units_Z   2
loop_
 _symmetry_equiv_pos_site_id
 _symmetry_equiv_pos_as_xyz
  1  'x, y, z'
loop_
 _atom_site_type_symbol
 _atom_site_label
 _atom_site_symmetry_multiplicity
 _atom_site_fract_x
 _atom_site_fract_y
 _atom_site_fract_z
 _atom_site_occupancy
  Y  Y0  1  0.50000000  0.19373300  0.00000000  1
  Y  Y1  1  0.50000000  0.80626700  0.00000000  1
  Y  Y2  1  0.00000000  0.69373300  0.00000000  1
  Y  Y3  1  0.00000000  0.30626700  0.00000000  1
  Ge  Ge4  1  0.22877300  0.00000000  0.40921000  1
  Ge  Ge5  1  0.77122700  0.00000000  0.59079000  1
  Ge  Ge6  1  0.72877300  0.50000000  0.40921000  1
  Ge  Ge7  1  0.27122700  0.50000000  0.59079000  1
  O  O8  1  0.23997200  0.84202700  0.21280900  1
  O  O9  1  0.23997200  0.15797300  0.21280900  1
  O  O10  1  0.39780400  0.00000000  0.72367100  1
  O  O11  1  0.00000000  0.00000000  0.50000000  1
  O  O12  1  0.60219600  0.00000000  0.27632900  1
  O  O13  1  0.76002800  0.15797300  0.78719100  1
  O  O14  1  0.76002800  0.84202700  0.78719100  1
  O  O15  1  0.73997200  0.34202700  0.21280900  1
  O  O16  1  0.73997200  0.65797300  0.21280900  1
  O  O17  1  0.89780400  0.50000000  0.72367100  1
  O  O18  1  0.50000000  0.50000000  0.50000000  1
  O  O19  1  0.10219600  0.50000000  0.27632900  1
  O  O20  1  0.26002800  0.65797300  0.78719100  1
  O  O21  1  0.26002800  0.34202700  0.78719100  1
