# generated using pymatgen
data_LiMnAlO4
_symmetry_space_group_name_H-M   'P 1'
_cell_length_a   2.87132800
_cell_length_b   9.35444400
_cell_length_c   10.08687700
_cell_angle_alpha   90.00000000
_cell_angle_beta   90.00000000
_cell_angle_gamma   90.00000000
_symmetry_Int_Tables_number   1
_chemical_formula_structural   LiMnAlO4
_chemical_formula_sum   'Li4 Mn4 Al4 O16'
_cell_volume   270.93025804
_cell_formula_units_Z   4
loop_
 _symmetry_equiv_pos_site_id
 _symmetry_equiv_pos_as_xyz
  1  'x, y, z'
loop_
 _atom_site_type_symbol
 _atom_site_label
 _atom_site_symmetry_multiplicity
 _atom_site_fract_x
 _atom_site_fract_y
 _atom_site_fract_z
 _atom_site_occupancy
  Li  Li0  1  0.25000000  0.07443750  0.12307650  1
  Li  Li1  1  0.75000000  0.42556250  0.62307650  1
  Li  Li2  1  0.25000000  0.57443750  0.37692350  1
  Li  Li3  1  0.75000000  0.92556250  0.87692350  1
  Mn  Mn4  1  0.25000000  0.27288250  0.34766950  1
  Mn  Mn5  1  0.25000000  0.77288250  0.15233050  1
  Mn  Mn6  1  0.75000000  0.22711750  0.84766950  1
  Mn  Mn7  1  0.75000000  0.72711750  0.65233050  1
  Al  Al8  1  0.25000000  0.00328150  0.62639450  1
  Al  Al9  1  0.75000000  0.49671850  0.12639450  1
  Al  Al10  1  0.25000000  0.50328150  0.87360550  1
  Al  Al11  1  0.75000000  0.99671850  0.37360550  1
  O  O12  1  0.25000000  0.10353350  0.46272150  1
  O  O13  1  0.75000000  0.39646650  0.96272150  1
  O  O14  1  0.25000000  0.60353350  0.03727850  1
  O  O15  1  0.75000000  0.89646650  0.53727850  1
  O  O16  1  0.25000000  0.13137750  0.93573550  1
  O  O17  1  0.75000000  0.36862250  0.43573550  1
  O  O18  1  0.25000000  0.63137750  0.56426450  1
  O  O19  1  0.75000000  0.86862250  0.06426450  1
  O  O20  1  0.75000000  0.08497350  0.71440250  1
  O  O21  1  0.25000000  0.41502650  0.21440250  1
  O  O22  1  0.75000000  0.58497350  0.78559750  1
  O  O23  1  0.25000000  0.91502650  0.28559750  1
  O  O24  1  0.75000000  0.16332850  0.25789250  1
  O  O25  1  0.25000000  0.33667150  0.75789250  1
  O  O26  1  0.75000000  0.66332850  0.24210750  1
  O  O27  1  0.25000000  0.83667150  0.74210750  1
