# generated using pymatgen
data_Sr2Ti6N2O11
_symmetry_space_group_name_H-M   'P 1'
_cell_length_a   15.21321800
_cell_length_b   3.85095400
_cell_length_c   9.30616291
_cell_angle_alpha   90.00000000
_cell_angle_beta   98.88185312
_cell_angle_gamma   90.00000000
_symmetry_Int_Tables_number   1
_chemical_formula_structural   Sr2Ti6N2O11
_chemical_formula_sum   'Sr4 Ti12 N4 O22'
_cell_volume   538.66764478
_cell_formula_units_Z   2
loop_
 _symmetry_equiv_pos_site_id
 _symmetry_equiv_pos_as_xyz
  1  'x, y, z'
loop_
 _atom_site_type_symbol
 _atom_site_label
 _atom_site_symmetry_multiplicity
 _atom_site_fract_x
 _atom_site_fract_y
 _atom_site_fract_z
 _atom_site_occupancy
  Sr  Sr0  1  0.55521400  0.00000000  0.76169300  1
  Sr  Sr1  1  0.95538500  0.50000000  0.22710400  1
  Sr  Sr2  1  0.05521400  0.50000000  0.76169300  1
  Sr  Sr3  1  0.45538500  0.00000000  0.22710400  1
  Ti  Ti4  1  0.62129400  0.50000000  0.08675000  1
  Ti  Ti5  1  0.66596900  0.50000000  0.44206100  1
  Ti  Ti6  1  0.74169200  0.50000000  0.75723000  1
  Ti  Ti7  1  0.76844600  0.00000000  0.23140900  1
  Ti  Ti8  1  0.83251700  0.00000000  0.56488700  1
  Ti  Ti9  1  0.88806700  0.00000000  0.88957500  1
  Ti  Ti10  1  0.12129400  0.00000000  0.08675000  1
  Ti  Ti11  1  0.16596900  0.00000000  0.44206100  1
  Ti  Ti12  1  0.24169200  0.00000000  0.75723000  1
  Ti  Ti13  1  0.26844600  0.50000000  0.23140900  1
  Ti  Ti14  1  0.33251700  0.50000000  0.56488700  1
  Ti  Ti15  1  0.38806700  0.50000000  0.88957500  1
  N  N16  1  0.79278900  0.50000000  0.57920600  1
  N  N17  1  0.93197500  0.00000000  0.71314200  1
  N  N18  1  0.29278900  0.00000000  0.57920600  1
  N  N19  1  0.43197500  0.50000000  0.71314200  1
  O  O20  1  0.56851700  0.50000000  0.29443200  1
  O  O21  1  0.62278900  0.50000000  0.61667100  1
  O  O22  1  0.65456800  0.50000000  0.90431700  1
  O  O23  1  0.63965200  0.00000000  0.11327500  1
  O  O24  1  0.69717700  0.00000000  0.42587900  1
  O  O25  1  0.75512300  0.00000000  0.76809300  1
  O  O26  1  0.74014200  0.50000000  0.23873800  1
  O  O27  1  0.85858800  0.50000000  0.89157100  1
  O  O28  1  0.83857200  0.00000000  0.09825000  1
  O  O29  1  0.87218900  0.00000000  0.38259800  1
  O  O30  1  0.99933400  0.00000000  0.01311900  1
  O  O31  1  0.06851700  0.00000000  0.29443200  1
  O  O32  1  0.12278900  0.00000000  0.61667100  1
  O  O33  1  0.15456800  0.00000000  0.90431700  1
  O  O34  1  0.13965200  0.50000000  0.11327500  1
  O  O35  1  0.19717700  0.50000000  0.42587900  1
  O  O36  1  0.25512300  0.50000000  0.76809300  1
  O  O37  1  0.24014200  0.00000000  0.23873800  1
  O  O38  1  0.35858800  0.00000000  0.89157100  1
  O  O39  1  0.33857200  0.50000000  0.09825000  1
  O  O40  1  0.37218900  0.50000000  0.38259800  1
  O  O41  1  0.49933400  0.50000000  0.01311900  1
