# generated using pymatgen
data_KPrPCO7
_symmetry_space_group_name_H-M   'P 1'
_cell_length_a   5.77213400
_cell_length_b   7.23414600
_cell_length_c   10.49537389
_cell_angle_alpha   90.00000000
_cell_angle_beta   90.60592738
_cell_angle_gamma   90.00000000
_symmetry_Int_Tables_number   1
_chemical_formula_structural   KPrPCO7
_chemical_formula_sum   'K2 Pr2 P2 C2 O14'
_cell_volume   438.22515449
_cell_formula_units_Z   2
loop_
 _symmetry_equiv_pos_site_id
 _symmetry_equiv_pos_as_xyz
  1  'x, y, z'
loop_
 _atom_site_type_symbol
 _atom_site_label
 _atom_site_symmetry_multiplicity
 _atom_site_fract_x
 _atom_site_fract_y
 _atom_site_fract_z
 _atom_site_occupancy
  K  K0  1  0.24145600  0.55220000  0.23253700  1
  K  K1  1  0.75854400  0.05220000  0.76746300  1
  Pr  Pr2  1  0.78065800  0.21903400  0.36958500  1
  Pr  Pr3  1  0.21934200  0.71903400  0.63041500  1
  P  P4  1  0.71542700  0.72807600  0.42896200  1
  P  P5  1  0.28457300  0.22807600  0.57103800  1
  C  C6  1  0.72588300  0.27328000  0.08580500  1
  C  C7  1  0.27411700  0.77328000  0.91419500  1
  O  O8  1  0.30549500  0.77158200  0.03442800  1
  O  O9  1  0.93213100  0.27423600  0.13335100  1
  O  O10  1  0.55288900  0.27205500  0.16258600  1
  O  O11  1  0.77262500  0.90060200  0.34886100  1
  O  O12  1  0.79178900  0.55072300  0.35848000  1
  O  O13  1  0.16102000  0.24257400  0.43762600  1
  O  O14  1  0.44931500  0.71778900  0.45321500  1
  O  O15  1  0.55068500  0.21778900  0.54678500  1
  O  O16  1  0.83898000  0.74257400  0.56237400  1
  O  O17  1  0.20821100  0.05072300  0.64152000  1
  O  O18  1  0.22737500  0.40060200  0.65113900  1
  O  O19  1  0.44711100  0.77205500  0.83741400  1
  O  O20  1  0.06786900  0.77423600  0.86664900  1
  O  O21  1  0.69450500  0.27158200  0.96557200  1
