# generated using pymatgen
data_Ti9SnO20
_symmetry_space_group_name_H-M   'P 1'
_cell_length_a   13.68432600
_cell_length_b   6.61005600
_cell_length_c   7.25883794
_cell_angle_alpha   90.00000000
_cell_angle_beta   94.47926507
_cell_angle_gamma   90.00000000
_symmetry_Int_Tables_number   1
_chemical_formula_structural   Ti9SnO20
_chemical_formula_sum   'Ti18 Sn2 O40'
_cell_volume   654.58664324
_cell_formula_units_Z   2
loop_
 _symmetry_equiv_pos_site_id
 _symmetry_equiv_pos_as_xyz
  1  'x, y, z'
loop_
 _atom_site_type_symbol
 _atom_site_label
 _atom_site_symmetry_multiplicity
 _atom_site_fract_x
 _atom_site_fract_y
 _atom_site_fract_z
 _atom_site_occupancy
  Ti  Ti0  1  0.70235000  0.00000000  0.69815900  1
  Ti  Ti1  1  0.70439100  0.00000000  0.20416000  1
  Ti  Ti2  1  0.79765000  0.50000000  0.30184100  1
  Ti  Ti3  1  0.00000000  0.50000000  0.50000000  1
  Ti  Ti4  1  0.79560900  0.50000000  0.79584000  1
  Ti  Ti5  1  0.90101200  0.00000000  0.40237400  1
  Ti  Ti6  1  0.59898800  0.50000000  0.59762600  1
  Ti  Ti7  1  0.89975600  0.00000000  0.90208300  1
  Ti  Ti8  1  0.60024400  0.50000000  0.09791700  1
  Ti  Ti9  1  0.20235000  0.50000000  0.69815900  1
  Ti  Ti10  1  0.20439100  0.50000000  0.20416000  1
  Ti  Ti11  1  0.29765000  0.00000000  0.30184100  1
  Ti  Ti12  1  0.50000000  0.00000000  0.50000000  1
  Ti  Ti13  1  0.29560900  0.00000000  0.79584000  1
  Ti  Ti14  1  0.40101200  0.50000000  0.40237400  1
  Ti  Ti15  1  0.09898800  0.00000000  0.59762600  1
  Ti  Ti16  1  0.39975600  0.50000000  0.90208300  1
  Ti  Ti17  1  0.10024400  0.00000000  0.09791700  1
  Sn  Sn18  1  0.00000000  0.50000000  0.00000000  1
  Sn  Sn19  1  0.50000000  0.00000000  0.00000000  1
  O  O20  1  0.69888050  0.69442550  0.69902000  1
  O  O21  1  0.69888050  0.30557450  0.69902000  1
  O  O22  1  0.80111950  0.80557450  0.30098000  1
  O  O23  1  0.86106900  0.50000000  0.55631900  1
  O  O24  1  0.73997700  0.50000000  0.04690600  1
  O  O25  1  0.93728100  0.50000000  0.25022400  1
  O  O26  1  0.83833600  0.00000000  0.64059000  1
  O  O27  1  0.63893100  0.00000000  0.44368100  1
  O  O28  1  0.80111950  0.19442550  0.30098000  1
  O  O29  1  0.00000000  0.19400900  0.50000000  1
  O  O30  1  0.89414950  0.70124550  0.89366500  1
  O  O31  1  0.89414950  0.29875450  0.89366500  1
  O  O32  1  0.00000000  0.80599100  0.50000000  1
  O  O33  1  0.60585050  0.79875450  0.10633500  1
  O  O34  1  0.76002300  0.00000000  0.95309400  1
  O  O35  1  0.66166400  0.50000000  0.35941000  1
  O  O36  1  0.56271900  0.00000000  0.74977600  1
  O  O37  1  0.96105700  0.00000000  0.15474500  1
  O  O38  1  0.53894300  0.50000000  0.84525500  1
  O  O39  1  0.60585050  0.20124550  0.10633500  1
  O  O40  1  0.19888050  0.19442550  0.69902000  1
  O  O41  1  0.19888050  0.80557450  0.69902000  1
  O  O42  1  0.30111950  0.30557450  0.30098000  1
  O  O43  1  0.36106900  0.00000000  0.55631900  1
  O  O44  1  0.23997700  0.00000000  0.04690600  1
  O  O45  1  0.43728100  0.00000000  0.25022400  1
  O  O46  1  0.33833600  0.50000000  0.64059000  1
  O  O47  1  0.13893100  0.50000000  0.44368100  1
  O  O48  1  0.30111950  0.69442550  0.30098000  1
  O  O49  1  0.50000000  0.69400900  0.50000000  1
  O  O50  1  0.39414950  0.20124550  0.89366500  1
  O  O51  1  0.39414950  0.79875450  0.89366500  1
  O  O52  1  0.50000000  0.30599100  0.50000000  1
  O  O53  1  0.10585050  0.29875450  0.10633500  1
  O  O54  1  0.26002300  0.50000000  0.95309400  1
  O  O55  1  0.16166400  0.00000000  0.35941000  1
  O  O56  1  0.06271900  0.50000000  0.74977600  1
  O  O57  1  0.46105700  0.50000000  0.15474500  1
  O  O58  1  0.03894300  0.00000000  0.84525500  1
  O  O59  1  0.10585050  0.70124550  0.10633500  1
