# generated using pymatgen
data_K2AgSb
_symmetry_space_group_name_H-M   'P 1'
_cell_length_a   8.37646800
_cell_length_b   10.61012200
_cell_length_c   6.36017300
_cell_angle_alpha   90.00000000
_cell_angle_beta   90.00000000
_cell_angle_gamma   90.00000000
_symmetry_Int_Tables_number   1
_chemical_formula_structural   K2AgSb
_chemical_formula_sum   'K8 Ag4 Sb4'
_cell_volume   565.26258496
_cell_formula_units_Z   4
loop_
 _symmetry_equiv_pos_site_id
 _symmetry_equiv_pos_as_xyz
  1  'x, y, z'
loop_
 _atom_site_type_symbol
 _atom_site_label
 _atom_site_symmetry_multiplicity
 _atom_site_fract_x
 _atom_site_fract_y
 _atom_site_fract_z
 _atom_site_occupancy
  K  K0  1  0.64920850  0.67247750  0.75000000  1
  K  K1  1  0.35079150  0.32752250  0.25000000  1
  K  K2  1  0.64920850  0.32752250  0.75000000  1
  K  K3  1  0.35079150  0.67247750  0.25000000  1
  K  K4  1  0.14920850  0.17247750  0.75000000  1
  K  K5  1  0.85079150  0.82752250  0.25000000  1
  K  K6  1  0.14920850  0.82752250  0.75000000  1
  K  K7  1  0.85079150  0.17247750  0.25000000  1
  Ag  Ag8  1  0.50000000  0.00000000  0.00000000  1
  Ag  Ag9  1  0.50000000  0.00000000  0.50000000  1
  Ag  Ag10  1  0.00000000  0.50000000  0.00000000  1
  Ag  Ag11  1  0.00000000  0.50000000  0.50000000  1
  Sb  Sb12  1  0.76500400  0.00000000  0.75000000  1
  Sb  Sb13  1  0.23499600  0.00000000  0.25000000  1
  Sb  Sb14  1  0.26500400  0.50000000  0.75000000  1
  Sb  Sb15  1  0.73499600  0.50000000  0.25000000  1
