# generated using pymatgen
data_Mn2P4O13
_symmetry_space_group_name_H-M   'P 1'
_cell_length_a   7.15245000
_cell_length_b   16.06894800
_cell_length_c   8.25885200
_cell_angle_alpha   90.00000000
_cell_angle_beta   90.00000000
_cell_angle_gamma   90.00000000
_symmetry_Int_Tables_number   1
_chemical_formula_structural   Mn2P4O13
_chemical_formula_sum   'Mn8 P16 O52'
_cell_volume   949.20924490
_cell_formula_units_Z   4
loop_
 _symmetry_equiv_pos_site_id
 _symmetry_equiv_pos_as_xyz
  1  'x, y, z'
loop_
 _atom_site_type_symbol
 _atom_site_label
 _atom_site_symmetry_multiplicity
 _atom_site_fract_x
 _atom_site_fract_y
 _atom_site_fract_z
 _atom_site_occupancy
  Mn  Mn0  1  0.23031150  0.64539650  0.13714500  1
  Mn  Mn1  1  0.76968850  0.64539650  0.36285500  1
  Mn  Mn2  1  0.73031150  0.85460350  0.86285500  1
  Mn  Mn3  1  0.26968850  0.85460350  0.63714500  1
  Mn  Mn4  1  0.73031150  0.14539650  0.13714500  1
  Mn  Mn5  1  0.26968850  0.14539650  0.36285500  1
  Mn  Mn6  1  0.23031150  0.35460350  0.86285500  1
  Mn  Mn7  1  0.76968850  0.35460350  0.63714500  1
  P  P8  1  0.28113750  0.55945750  0.77900400  1
  P  P9  1  0.71886250  0.55945750  0.72099600  1
  P  P10  1  0.72213550  0.66397250  0.00773200  1
  P  P11  1  0.27786450  0.66397250  0.49226800  1
  P  P12  1  0.22213550  0.83602750  0.99226800  1
  P  P13  1  0.77786450  0.83602750  0.50773200  1
  P  P14  1  0.21886250  0.94054250  0.27900400  1
  P  P15  1  0.78113750  0.94054250  0.22099600  1
  P  P16  1  0.78113750  0.05945750  0.77900400  1
  P  P17  1  0.21886250  0.05945750  0.72099600  1
  P  P18  1  0.22213550  0.16397250  0.00773200  1
  P  P19  1  0.77786450  0.16397250  0.49226800  1
  P  P20  1  0.72213550  0.33602750  0.99226800  1
  P  P21  1  0.27786450  0.33602750  0.50773200  1
  P  P22  1  0.71886250  0.44054250  0.27900400  1
  P  P23  1  0.28113750  0.44054250  0.22099600  1
  O  O24  1  0.78156650  0.52773350  0.31345700  1
  O  O25  1  0.21843350  0.52773350  0.18654300  1
  O  O26  1  0.50000000  0.56107900  0.75000000  1
  O  O27  1  0.79469550  0.58574750  0.89380500  1
  O  O28  1  0.20530450  0.58574750  0.60619500  1
  O  O29  1  0.77887750  0.62358750  0.59853400  1
  O  O30  1  0.22112250  0.62358750  0.90146600  1
  O  O31  1  0.53582900  0.64394500  0.08072400  1
  O  O32  1  0.46417100  0.64394500  0.41927600  1
  O  O33  1  0.12706100  0.66574900  0.35807500  1
  O  O34  1  0.87293900  0.66574900  0.14192500  1
  O  O35  1  0.26440800  0.73685200  0.60968600  1
  O  O36  1  0.73559200  0.73685200  0.89031400  1
  O  O37  1  0.23559200  0.76314800  0.10968600  1
  O  O38  1  0.76440800  0.76314800  0.39031400  1
  O  O39  1  0.37293900  0.83425100  0.85807500  1
  O  O40  1  0.62706100  0.83425100  0.64192500  1
  O  O41  1  0.96417100  0.85605500  0.58072400  1
  O  O42  1  0.03582900  0.85605500  0.91927600  1
  O  O43  1  0.72112250  0.87641250  0.09853400  1
  O  O44  1  0.27887750  0.87641250  0.40146600  1
  O  O45  1  0.29469550  0.91425250  0.10619500  1
  O  O46  1  0.70530450  0.91425250  0.39380500  1
  O  O47  1  0.00000000  0.93892100  0.25000000  1
  O  O48  1  0.28156650  0.97226650  0.68654300  1
  O  O49  1  0.71843350  0.97226650  0.81345700  1
  O  O50  1  0.28156650  0.02773350  0.31345700  1
  O  O51  1  0.71843350  0.02773350  0.18654300  1
  O  O52  1  0.00000000  0.06107900  0.75000000  1
  O  O53  1  0.29469550  0.08574750  0.89380500  1
  O  O54  1  0.70530450  0.08574750  0.60619500  1
  O  O55  1  0.27887750  0.12358750  0.59853400  1
  O  O56  1  0.72112250  0.12358750  0.90146600  1
  O  O57  1  0.03582900  0.14394500  0.08072400  1
  O  O58  1  0.96417100  0.14394500  0.41927600  1
  O  O59  1  0.62706100  0.16574900  0.35807500  1
  O  O60  1  0.37293900  0.16574900  0.14192500  1
  O  O61  1  0.76440800  0.23685200  0.60968600  1
  O  O62  1  0.23559200  0.23685200  0.89031400  1
  O  O63  1  0.73559200  0.26314800  0.10968600  1
  O  O64  1  0.26440800  0.26314800  0.39031400  1
  O  O65  1  0.87293900  0.33425100  0.85807500  1
  O  O66  1  0.12706100  0.33425100  0.64192500  1
  O  O67  1  0.46417100  0.35605500  0.58072400  1
  O  O68  1  0.53582900  0.35605500  0.91927600  1
  O  O69  1  0.22112250  0.37641250  0.09853400  1
  O  O70  1  0.77887750  0.37641250  0.40146600  1
  O  O71  1  0.79469550  0.41425250  0.10619500  1
  O  O72  1  0.20530450  0.41425250  0.39380500  1
  O  O73  1  0.50000000  0.43892100  0.25000000  1
  O  O74  1  0.78156650  0.47226650  0.68654300  1
  O  O75  1  0.21843350  0.47226650  0.81345700  1
