# generated using pymatgen
data_Hf2N2O
_symmetry_space_group_name_H-M   'P 1'
_cell_length_a   8.12129600
_cell_length_b   3.27643200
_cell_length_c   13.75681956
_cell_angle_alpha   90.00000000
_cell_angle_beta   99.50711495
_cell_angle_gamma   90.00000000
_symmetry_Int_Tables_number   1
_chemical_formula_structural   Hf2N2O
_chemical_formula_sum   'Hf12 N12 O6'
_cell_volume   361.02577119
_cell_formula_units_Z   6
loop_
 _symmetry_equiv_pos_site_id
 _symmetry_equiv_pos_as_xyz
  1  'x, y, z'
loop_
 _atom_site_type_symbol
 _atom_site_label
 _atom_site_symmetry_multiplicity
 _atom_site_fract_x
 _atom_site_fract_y
 _atom_site_fract_z
 _atom_site_occupancy
  Hf  Hf0  1  0.17751600  0.50000000  0.00772900  1
  Hf  Hf1  1  0.54703400  0.50000000  0.12008000  1
  Hf  Hf2  1  0.18955900  0.00000000  0.22321800  1
  Hf  Hf3  1  0.82998600  0.00000000  0.28339200  1
  Hf  Hf4  1  0.49923700  0.50000000  0.39066300  1
  Hf  Hf5  1  0.14506400  0.50000000  0.43790000  1
  Hf  Hf6  1  0.88003200  0.00000000  0.56970900  1
  Hf  Hf7  1  0.49518200  0.00000000  0.61601800  1
  Hf  Hf8  1  0.17322900  0.50000000  0.71916100  1
  Hf  Hf9  1  0.81521900  0.50000000  0.78239400  1
  Hf  Hf10  1  0.44466500  0.00000000  0.87944700  1
  Hf  Hf11  1  0.80531300  0.00000000  0.98285900  1
  N  N12  1  0.32434100  0.50000000  0.18057200  1
  N  N13  1  0.66324500  0.50000000  0.28462800  1
  N  N14  1  0.01771100  0.50000000  0.26622600  1
  N  N15  1  0.30888100  0.00000000  0.37135600  1
  N  N16  1  0.38226700  0.50000000  0.53505800  1
  N  N17  1  0.03355800  0.50000000  0.56811200  1
  N  N18  1  0.97495400  0.00000000  0.72740400  1
  N  N19  1  0.33626800  0.00000000  0.71634100  1
  N  N20  1  0.66576400  0.00000000  0.80986100  1
  N  N21  1  0.93495400  0.50000000  0.92872400  1
  N  N22  1  0.26992500  0.50000000  0.87402400  1
  N  N23  1  0.61308900  0.50000000  0.97355500  1
  O  O24  1  0.37761400  0.00000000  0.03360800  1
  O  O25  1  0.71936000  0.00000000  0.13038100  1
  O  O26  1  0.05995200  0.00000000  0.07091200  1
  O  O27  1  0.97407500  0.00000000  0.42371400  1
  O  O28  1  0.64071800  0.00000000  0.46561600  1
  O  O29  1  0.70128600  0.50000000  0.62733900  1
