# generated using pymatgen
data_Li4Mn3Co3(SnO8)2
_symmetry_space_group_name_H-M   'P 1'
_cell_length_a   5.87245363
_cell_length_b   9.68961969
_cell_length_c   10.17847603
_cell_angle_alpha   89.53790753
_cell_angle_beta   89.33879021
_cell_angle_gamma   89.38560800
_symmetry_Int_Tables_number   1
_chemical_formula_structural   Li4Mn3Co3(SnO8)2
_chemical_formula_sum   'Li8 Mn6 Co6 Sn4 O32'
_cell_volume   579.08391166
_cell_formula_units_Z   2
loop_
 _symmetry_equiv_pos_site_id
 _symmetry_equiv_pos_as_xyz
  1  'x, y, z'
loop_
 _atom_site_type_symbol
 _atom_site_label
 _atom_site_symmetry_multiplicity
 _atom_site_fract_x
 _atom_site_fract_y
 _atom_site_fract_z
 _atom_site_occupancy
  Li  Li0  1  0.49349500  0.10086500  0.82910800  1
  Li  Li1  1  0.99224600  0.10224700  0.32936400  1
  Li  Li2  1  0.99821500  0.00587200  0.00107000  1
  Li  Li3  1  0.49796300  0.00511500  0.50345200  1
  Li  Li4  1  0.99958500  0.50745600  0.00348000  1
  Li  Li5  1  0.50085500  0.50698100  0.50420600  1
  Li  Li6  1  0.50085700  0.60573200  0.16655700  1
  Li  Li7  1  0.00021100  0.60778500  0.66788000  1
  Mn  Mn8  1  0.75369000  0.78432000  0.41749300  1
  Mn  Mn9  1  0.25535400  0.28475000  0.08437200  1
  Mn  Mn10  1  0.75398100  0.28328500  0.58517300  1
  Mn  Mn11  1  0.25685100  0.78604300  0.91232100  1
  Mn  Mn12  1  0.49677400  0.28529300  0.33171900  1
  Mn  Mn13  1  0.99866900  0.28591300  0.83169100  1
  Co  Co14  1  0.50389000  0.78506100  0.67137700  1
  Co  Co15  1  0.99993300  0.78543800  0.16789900  1
  Co  Co16  1  0.74612600  0.78559800  0.91248200  1
  Co  Co17  1  0.24703700  0.78599100  0.41735700  1
  Co  Co18  1  0.74554900  0.28583000  0.08521000  1
  Co  Co19  1  0.24471900  0.28464100  0.58592100  1
  Sn  Sn20  1  0.50821200  0.51081400  0.83527600  1
  Sn  Sn21  1  0.00180900  0.50778200  0.33761400  1
  Sn  Sn22  1  0.50353700  0.00802500  0.16300600  1
  Sn  Sn23  1  0.99959200  0.00676400  0.66470800  1
  O  O24  1  0.49989400  0.39428300  0.66142900  1
  O  O25  1  0.99931900  0.39502300  0.16122000  1
  O  O26  1  0.72593100  0.66975900  0.75897800  1
  O  O27  1  0.22144200  0.66211900  0.25845400  1
  O  O28  1  0.50028300  0.88775000  0.83211900  1
  O  O29  1  0.98566600  0.89246300  0.33701900  1
  O  O30  1  0.00275900  0.69290900  0.99184600  1
  O  O31  1  0.50867300  0.69284600  0.50555900  1
  O  O32  1  0.00358400  0.19362300  0.00086400  1
  O  O33  1  0.50213300  0.19254200  0.50104900  1
  O  O34  1  0.76665500  0.40192300  0.92425100  1
  O  O35  1  0.26471200  0.40144200  0.42555700  1
  O  O36  1  0.27920000  0.66800100  0.75784500  1
  O  O37  1  0.76600200  0.66118300  0.26723300  1
  O  O38  1  0.50244900  0.67143400  0.98240700  1
  O  O39  1  0.98966200  0.66493900  0.48561700  1
  O  O40  1  0.76269600  0.89504800  0.07560800  1
  O  O41  1  0.26344200  0.89572600  0.58041500  1
  O  O42  1  0.25368000  0.40674300  0.93115300  1
  O  O43  1  0.75080000  0.40175400  0.43182000  1
  O  O44  1  0.50494400  0.17246600  0.01335500  1
  O  O45  1  0.00415200  0.17029900  0.51473500  1
  O  O46  1  0.72344600  0.16362900  0.23606500  1
  O  O47  1  0.22225000  0.16234900  0.73776700  1
  O  O48  1  0.49534000  0.38776400  0.16652000  1
  O  O49  1  0.99487200  0.38728100  0.66644400  1
  O  O50  1  0.24777900  0.89820600  0.07165700  1
  O  O51  1  0.73838400  0.89584600  0.57789800  1
  O  O52  1  0.25656900  0.15464400  0.22700400  1
  O  O53  1  0.75577600  0.15440200  0.72828200  1
  O  O54  1  0.50717900  0.89978200  0.33955800  1
  O  O55  1  0.00087800  0.89854500  0.84123600  1
