# generated using pymatgen
data_Bi7(O2F3)3
_symmetry_space_group_name_H-M   'P 1'
_cell_length_a   5.85303000
_cell_length_b   41.64825800
_cell_length_c   5.83657000
_cell_angle_alpha   90.00000000
_cell_angle_beta   90.00000000
_cell_angle_gamma   90.00000000
_symmetry_Int_Tables_number   1
_chemical_formula_structural   Bi7(O2F3)3
_chemical_formula_sum   'Bi28 O24 F36'
_cell_volume   1422.77193460
_cell_formula_units_Z   4
loop_
 _symmetry_equiv_pos_site_id
 _symmetry_equiv_pos_as_xyz
  1  'x, y, z'
loop_
 _atom_site_type_symbol
 _atom_site_label
 _atom_site_symmetry_multiplicity
 _atom_site_fract_x
 _atom_site_fract_y
 _atom_site_fract_z
 _atom_site_occupancy
  Bi  Bi0  1  0.71343850  0.32695050  0.70655400  1
  Bi  Bi1  1  0.71343850  0.17304950  0.70655400  1
  Bi  Bi2  1  0.74572350  0.02900550  0.74754100  1
  Bi  Bi3  1  0.74572350  0.47099450  0.74754100  1
  Bi  Bi4  1  0.30782900  0.25000000  0.74157400  1
  Bi  Bi5  1  0.28718900  0.10179100  0.69284700  1
  Bi  Bi6  1  0.28718900  0.39820900  0.69284700  1
  Bi  Bi7  1  0.78718900  0.39820900  0.30715300  1
  Bi  Bi8  1  0.78718900  0.10179100  0.30715300  1
  Bi  Bi9  1  0.80782900  0.25000000  0.25842600  1
  Bi  Bi10  1  0.24572350  0.02900550  0.25245900  1
  Bi  Bi11  1  0.24572350  0.47099450  0.25245900  1
  Bi  Bi12  1  0.21343850  0.17304950  0.29344600  1
  Bi  Bi13  1  0.21343850  0.32695050  0.29344600  1
  Bi  Bi14  1  0.21343850  0.82695050  0.70655400  1
  Bi  Bi15  1  0.21343850  0.67304950  0.70655400  1
  Bi  Bi16  1  0.24572350  0.52900550  0.74754100  1
  Bi  Bi17  1  0.24572350  0.97099450  0.74754100  1
  Bi  Bi18  1  0.80782900  0.75000000  0.74157400  1
  Bi  Bi19  1  0.78718900  0.60179100  0.69284700  1
  Bi  Bi20  1  0.78718900  0.89820900  0.69284700  1
  Bi  Bi21  1  0.28718900  0.89820900  0.30715300  1
  Bi  Bi22  1  0.28718900  0.60179100  0.30715300  1
  Bi  Bi23  1  0.30782900  0.75000000  0.25842600  1
  Bi  Bi24  1  0.74572350  0.52900550  0.25245900  1
  Bi  Bi25  1  0.74572350  0.97099450  0.25245900  1
  Bi  Bi26  1  0.71343850  0.67304950  0.29344600  1
  Bi  Bi27  1  0.71343850  0.82695050  0.29344600  1
  O  O28  1  0.01697500  0.00000000  0.00000000  1
  O  O29  1  0.51697500  0.00000000  0.00000000  1
  O  O30  1  0.98598750  0.14615750  0.52222900  1
  O  O31  1  0.98598750  0.35384250  0.52222900  1
  O  O32  1  0.03101450  0.07353750  0.50735500  1
  O  O33  1  0.03101450  0.42646250  0.50735500  1
  O  O34  1  0.49467500  0.00000000  0.50000000  1
  O  O35  1  0.99467500  0.00000000  0.50000000  1
  O  O36  1  0.53101450  0.42646250  0.49264500  1
  O  O37  1  0.53101450  0.07353750  0.49264500  1
  O  O38  1  0.48598750  0.14615750  0.47777100  1
  O  O39  1  0.48598750  0.35384250  0.47777100  1
  O  O40  1  0.51697500  0.50000000  0.00000000  1
  O  O41  1  0.01697500  0.50000000  0.00000000  1
  O  O42  1  0.48598750  0.64615750  0.52222900  1
  O  O43  1  0.48598750  0.85384250  0.52222900  1
  O  O44  1  0.53101450  0.57353750  0.50735500  1
  O  O45  1  0.53101450  0.92646250  0.50735500  1
  O  O46  1  0.99467500  0.50000000  0.50000000  1
  O  O47  1  0.49467500  0.50000000  0.50000000  1
  O  O48  1  0.03101450  0.92646250  0.49264500  1
  O  O49  1  0.03101450  0.57353750  0.49264500  1
  O  O50  1  0.98598750  0.64615750  0.47777100  1
  O  O51  1  0.98598750  0.85384250  0.47777100  1
  F  F52  1  0.40345100  0.06435800  0.95172300  1
  F  F53  1  0.40345100  0.43564200  0.95172300  1
  F  F54  1  0.64291600  0.13126800  0.91801500  1
  F  F55  1  0.64291600  0.36873200  0.91801500  1
  F  F56  1  0.66349200  0.25000000  0.89206200  1
  F  F57  1  0.35321500  0.30332900  0.87348400  1
  F  F58  1  0.35321500  0.19667100  0.87348400  1
  F  F59  1  0.01834450  0.21779850  0.53904500  1
  F  F60  1  0.01834450  0.28220150  0.53904500  1
  F  F61  1  0.51834450  0.21779850  0.46095500  1
  F  F62  1  0.51834450  0.28220150  0.46095500  1
  F  F63  1  0.85321500  0.19667100  0.12651600  1
  F  F64  1  0.85321500  0.30332900  0.12651600  1
  F  F65  1  0.16349200  0.25000000  0.10793800  1
  F  F66  1  0.14291600  0.13126800  0.08198500  1
  F  F67  1  0.14291600  0.36873200  0.08198500  1
  F  F68  1  0.90345100  0.06435800  0.04827700  1
  F  F69  1  0.90345100  0.43564200  0.04827700  1
  F  F70  1  0.90345100  0.56435800  0.95172300  1
  F  F71  1  0.90345100  0.93564200  0.95172300  1
  F  F72  1  0.14291600  0.63126800  0.91801500  1
  F  F73  1  0.14291600  0.86873200  0.91801500  1
  F  F74  1  0.16349200  0.75000000  0.89206200  1
  F  F75  1  0.85321500  0.80332900  0.87348400  1
  F  F76  1  0.85321500  0.69667100  0.87348400  1
  F  F77  1  0.51834450  0.71779850  0.53904500  1
  F  F78  1  0.51834450  0.78220150  0.53904500  1
  F  F79  1  0.01834450  0.71779850  0.46095500  1
  F  F80  1  0.01834450  0.78220150  0.46095500  1
  F  F81  1  0.35321500  0.69667100  0.12651600  1
  F  F82  1  0.35321500  0.80332900  0.12651600  1
  F  F83  1  0.66349200  0.75000000  0.10793800  1
  F  F84  1  0.64291600  0.63126800  0.08198500  1
  F  F85  1  0.64291600  0.86873200  0.08198500  1
  F  F86  1  0.40345100  0.56435800  0.04827700  1
  F  F87  1  0.40345100  0.93564200  0.04827700  1
