# generated using pymatgen
data_V4OF11
_symmetry_space_group_name_H-M   'P 1'
_cell_length_a   5.24560200
_cell_length_b   5.45207281
_cell_length_c   17.44950935
_cell_angle_alpha   89.31001263
_cell_angle_beta   98.18716535
_cell_angle_gamma   118.29575780
_symmetry_Int_Tables_number   1
_chemical_formula_structural   V4OF11
_chemical_formula_sum   'V8 O2 F22'
_cell_volume   434.05581153
_cell_formula_units_Z   2
loop_
 _symmetry_equiv_pos_site_id
 _symmetry_equiv_pos_as_xyz
  1  'x, y, z'
loop_
 _atom_site_type_symbol
 _atom_site_label
 _atom_site_symmetry_multiplicity
 _atom_site_fract_x
 _atom_site_fract_y
 _atom_site_fract_z
 _atom_site_occupancy
  V  V0  1  0.75524600  0.61454000  0.36834800  1
  V  V1  1  0.75188500  0.12177800  0.87427200  1
  V  V2  1  0.50000000  0.00000000  0.50000000  1
  V  V3  1  0.50000000  0.50000000  0.00000000  1
  V  V4  1  0.24475400  0.38546000  0.63165200  1
  V  V5  1  0.24811500  0.87822200  0.12572800  1
  V  V6  1  0.99579800  0.25707300  0.25170600  1
  V  V7  1  0.00420200  0.74292700  0.74829400  1
  O  O8  1  0.82826200  0.46436500  0.29636800  1
  O  O9  1  0.17173800  0.53563500  0.70363200  1
  F  F10  1  0.32687700  0.41410800  0.33849600  1
  F  F11  1  0.76750000  0.93250200  0.31275800  1
  F  F12  1  0.77370500  0.43326400  0.81284800  1
  F  F13  1  0.72431600  0.31972600  0.43997900  1
  F  F14  1  0.32755200  0.21573900  0.54289700  1
  F  F15  1  0.32278200  0.90755700  0.83694500  1
  F  F16  1  0.32252300  0.71546700  0.03632600  1
  F  F17  1  0.17008700  0.84325300  0.41319600  1
  F  F18  1  0.17991200  0.33774500  0.91115900  1
  F  F19  1  0.27568400  0.68027400  0.56002100  1
  F  F20  1  0.73013500  0.81215600  0.93672100  1
  F  F21  1  0.82991300  0.15674700  0.58680400  1
  F  F22  1  0.82621300  0.95748200  0.78562300  1
  F  F23  1  0.82008800  0.66225500  0.08884100  1
  F  F24  1  0.17378700  0.04251800  0.21437700  1
  F  F25  1  0.67312300  0.58589200  0.66150400  1
  F  F26  1  0.67244800  0.78426100  0.45710300  1
  F  F27  1  0.67747700  0.28453300  0.96367400  1
  F  F28  1  0.26986500  0.18784400  0.06327900  1
  F  F29  1  0.22629500  0.56673600  0.18715200  1
  F  F30  1  0.23250000  0.06749800  0.68724200  1
  F  F31  1  0.67721800  0.09244300  0.16305500  1
