# generated using pymatgen
data_CrH12(ClO2)3
_symmetry_space_group_name_H-M   'P 1'
_cell_length_a   12.14843184
_cell_length_b   12.14843184
_cell_length_c   11.86894281
_cell_angle_alpha   90.00000000
_cell_angle_beta   90.00000000
_cell_angle_gamma   120.00000000
_symmetry_Int_Tables_number   1
_chemical_formula_structural   CrH12(ClO2)3
_chemical_formula_sum   'Cr6 H72 Cl18 O36'
_cell_volume   1516.99137677
_cell_formula_units_Z   6
loop_
 _symmetry_equiv_pos_site_id
 _symmetry_equiv_pos_as_xyz
  1  'x, y, z'
loop_
 _atom_site_type_symbol
 _atom_site_label
 _atom_site_symmetry_multiplicity
 _atom_site_fract_x
 _atom_site_fract_y
 _atom_site_fract_z
 _atom_site_occupancy
  Cr  Cr0  1  0.00000000  0.00000000  0.50000000  1
  Cr  Cr1  1  0.00000000  0.00000000  0.00000000  1
  Cr  Cr2  1  0.66666667  0.33333333  0.83333333  1
  Cr  Cr3  1  0.66666667  0.33333333  0.33333333  1
  Cr  Cr4  1  0.33333333  0.66666667  0.16666667  1
  Cr  Cr5  1  0.33333333  0.66666667  0.66666667  1
  H  H6  1  0.88465767  0.07351833  0.35247333  1
  H  H7  1  0.92648167  0.81113933  0.35247333  1
  H  H8  1  0.18886067  0.11534233  0.35247333  1
  H  H9  1  0.21799100  0.47780600  0.51914000  1
  H  H10  1  0.52219400  0.74018500  0.51914000  1
  H  H11  1  0.25981500  0.78200900  0.51914000  1
  H  H12  1  0.11534233  0.92648167  0.64752667  1
  H  H13  1  0.07351833  0.18886067  0.64752667  1
  H  H14  1  0.81113933  0.88465767  0.64752667  1
  H  H15  1  0.78200900  0.52219400  0.48086000  1
  H  H16  1  0.47780600  0.25981500  0.48086000  1
  H  H17  1  0.74018500  0.21799100  0.48086000  1
  H  H18  1  0.99945533  0.20446867  0.40889067  1
  H  H19  1  0.79553133  0.79498667  0.40889067  1
  H  H20  1  0.20501333  0.00054467  0.40889067  1
  H  H21  1  0.33278867  0.46165333  0.57555733  1
  H  H22  1  0.53834667  0.87113533  0.57555733  1
  H  H23  1  0.12886467  0.66721133  0.57555733  1
  H  H24  1  0.00054467  0.79553133  0.59110933  1
  H  H25  1  0.20446867  0.20501333  0.59110933  1
  H  H26  1  0.79498667  0.99945533  0.59110933  1
  H  H27  1  0.66721133  0.53834667  0.42444267  1
  H  H28  1  0.46165333  0.12886467  0.42444267  1
  H  H29  1  0.87113533  0.33278867  0.42444267  1
  H  H30  1  0.55132433  0.40685167  0.68580667  1
  H  H31  1  0.59314833  0.14447267  0.68580667  1
  H  H32  1  0.85552733  0.44867567  0.68580667  1
  H  H33  1  0.88465767  0.81113933  0.85247333  1
  H  H34  1  0.18886067  0.07351833  0.85247333  1
  H  H35  1  0.92648167  0.11534233  0.85247333  1
  H  H36  1  0.78200900  0.25981500  0.98086000  1
  H  H37  1  0.74018500  0.52219400  0.98086000  1
  H  H38  1  0.47780600  0.21799100  0.98086000  1
  H  H39  1  0.44867567  0.85552733  0.81419333  1
  H  H40  1  0.14447267  0.59314833  0.81419333  1
  H  H41  1  0.40685167  0.55132433  0.81419333  1
  H  H42  1  0.66612200  0.53780200  0.74222400  1
  H  H43  1  0.46219800  0.12832000  0.74222400  1
  H  H44  1  0.87168000  0.33387800  0.74222400  1
  H  H45  1  0.99945533  0.79498667  0.90889067  1
  H  H46  1  0.20501333  0.20446867  0.90889067  1
  H  H47  1  0.79553133  0.00054467  0.90889067  1
  H  H48  1  0.66721133  0.12886467  0.92444267  1
  H  H49  1  0.87113533  0.53834667  0.92444267  1
  H  H50  1  0.46165333  0.33278867  0.92444267  1
  H  H51  1  0.33387800  0.87168000  0.75777600  1
  H  H52  1  0.12832000  0.46219800  0.75777600  1
  H  H53  1  0.53780200  0.66612200  0.75777600  1
  H  H54  1  0.21799100  0.74018500  0.01914000  1
  H  H55  1  0.25981500  0.47780600  0.01914000  1
  H  H56  1  0.52219400  0.78200900  0.01914000  1
  H  H57  1  0.55132433  0.14447267  0.18580667  1
  H  H58  1  0.85552733  0.40685167  0.18580667  1
  H  H59  1  0.59314833  0.44867567  0.18580667  1
  H  H60  1  0.44867567  0.59314833  0.31419333  1
  H  H61  1  0.40685167  0.85552733  0.31419333  1
  H  H62  1  0.14447267  0.55132433  0.31419333  1
  H  H63  1  0.11534233  0.18886067  0.14752667  1
  H  H64  1  0.81113933  0.92648167  0.14752667  1
  H  H65  1  0.07351833  0.88465767  0.14752667  1
  H  H66  1  0.33278867  0.87113533  0.07555733  1
  H  H67  1  0.12886467  0.46165333  0.07555733  1
  H  H68  1  0.53834667  0.66721133  0.07555733  1
  H  H69  1  0.66612200  0.12832000  0.24222400  1
  H  H70  1  0.87168000  0.53780200  0.24222400  1
  H  H71  1  0.46219800  0.33387800  0.24222400  1
  H  H72  1  0.33387800  0.46219800  0.25777600  1
  H  H73  1  0.53780200  0.87168000  0.25777600  1
  H  H74  1  0.12832000  0.66612200  0.25777600  1
  H  H75  1  0.00054467  0.20501333  0.09110933  1
  H  H76  1  0.79498667  0.79553133  0.09110933  1
  H  H77  1  0.20446867  0.99945533  0.09110933  1
  Cl  Cl78  1  0.93873567  0.60540233  0.58333333  1
  Cl  Cl79  1  0.39459767  0.33333333  0.58333333  1
  Cl  Cl80  1  0.66666667  0.06126433  0.58333333  1
  Cl  Cl81  1  0.60540233  0.66666667  0.41666667  1
  Cl  Cl82  1  0.33333333  0.93873567  0.41666667  1
  Cl  Cl83  1  0.06126433  0.39459767  0.41666667  1
  Cl  Cl84  1  0.60540233  0.93873567  0.91666667  1
  Cl  Cl85  1  0.06126433  0.66666667  0.91666667  1
  Cl  Cl86  1  0.33333333  0.39459767  0.91666667  1
  Cl  Cl87  1  0.27206900  0.00000000  0.75000000  1
  Cl  Cl88  1  1.00000000  0.27206900  0.75000000  1
  Cl  Cl89  1  0.72793100  0.72793100  0.75000000  1
  Cl  Cl90  1  0.27206900  0.27206900  0.25000000  1
  Cl  Cl91  1  0.72793100  1.00000000  0.25000000  1
  Cl  Cl92  1  0.00000000  0.72793100  0.25000000  1
  Cl  Cl93  1  0.93873567  0.33333333  0.08333333  1
  Cl  Cl94  1  0.66666667  0.60540233  0.08333333  1
  Cl  Cl95  1  0.39459767  0.06126433  0.08333333  1
  O  O96  1  0.96201533  0.11056067  0.40185167  1
  O  O97  1  0.88943933  0.85145467  0.40185167  1
  O  O98  1  0.14854533  0.03798467  0.40185167  1
  O  O99  1  0.29534867  0.51812133  0.56851833  1
  O  O100  1  0.48187867  0.77722733  0.56851833  1
  O  O101  1  0.22277267  0.70465133  0.56851833  1
  O  O102  1  0.03798467  0.88943933  0.59814833  1
  O  O103  1  0.11056067  0.14854533  0.59814833  1
  O  O104  1  0.85145467  0.96201533  0.59814833  1
  O  O105  1  0.70465133  0.48187867  0.43148167  1
  O  O106  1  0.51812133  0.22277267  0.43148167  1
  O  O107  1  0.77722733  0.29534867  0.43148167  1
  O  O108  1  0.62868200  0.44389400  0.73518500  1
  O  O109  1  0.55610600  0.18478800  0.73518500  1
  O  O110  1  0.81521200  0.37131800  0.73518500  1
  O  O111  1  0.96201533  0.85145467  0.90185167  1
  O  O112  1  0.14854533  0.11056067  0.90185167  1
  O  O113  1  0.88943933  0.03798467  0.90185167  1
  O  O114  1  0.70465133  0.22277267  0.93148167  1
  O  O115  1  0.77722733  0.48187867  0.93148167  1
  O  O116  1  0.51812133  0.29534867  0.93148167  1
  O  O117  1  0.37131800  0.81521200  0.76481500  1
  O  O118  1  0.18478800  0.55610600  0.76481500  1
  O  O119  1  0.44389400  0.62868200  0.76481500  1
  O  O120  1  0.29534867  0.77722733  0.06851833  1
  O  O121  1  0.22277267  0.51812133  0.06851833  1
  O  O122  1  0.48187867  0.70465133  0.06851833  1
  O  O123  1  0.62868200  0.18478800  0.23518500  1
  O  O124  1  0.81521200  0.44389400  0.23518500  1
  O  O125  1  0.55610600  0.37131800  0.23518500  1
  O  O126  1  0.37131800  0.55610600  0.26481500  1
  O  O127  1  0.44389400  0.81521200  0.26481500  1
  O  O128  1  0.18478800  0.62868200  0.26481500  1
  O  O129  1  0.03798467  0.14854533  0.09814833  1
  O  O130  1  0.85145467  0.88943933  0.09814833  1
  O  O131  1  0.11056067  0.96201533  0.09814833  1
