# generated using pymatgen
data_Na3CuB8H17O23
_symmetry_space_group_name_H-M   'P 1'
_cell_length_a   9.20692500
_cell_length_b   10.82686431
_cell_length_c   11.86295407
_cell_angle_alpha   103.25713036
_cell_angle_beta   110.02430144
_cell_angle_gamma   109.72916088
_symmetry_Int_Tables_number   1
_chemical_formula_structural   Na3CuB8H17O23
_chemical_formula_sum   'Na6 Cu2 B16 H34 O46'
_cell_volume   963.00577658
_cell_formula_units_Z   2
loop_
 _symmetry_equiv_pos_site_id
 _symmetry_equiv_pos_as_xyz
  1  'x, y, z'
loop_
 _atom_site_type_symbol
 _atom_site_label
 _atom_site_symmetry_multiplicity
 _atom_site_fract_x
 _atom_site_fract_y
 _atom_site_fract_z
 _atom_site_occupancy
  Na  Na0  1  0.14756600  0.91529100  0.12353900  1
  Na  Na1  1  0.85243400  0.08470900  0.87646100  1
  Na  Na2  1  0.15034300  0.95422700  0.63282500  1
  Na  Na3  1  0.84965700  0.04577300  0.36717500  1
  Na  Na4  1  0.42621300  0.77713000  0.13053700  1
  Na  Na5  1  0.57378700  0.22287000  0.86946300  1
  Cu  Cu6  1  0.46096000  0.51300600  0.61725300  1
  Cu  Cu7  1  0.53904000  0.48699400  0.38274700  1
  B  B8  1  0.76549000  0.77922900  0.41576000  1
  B  B9  1  0.23451000  0.22077100  0.58424000  1
  B  B10  1  0.77866400  0.55346700  0.27769200  1
  B  B11  1  0.22133600  0.44653300  0.72230800  1
  B  B12  1  0.46879600  0.68998700  0.85317700  1
  B  B13  1  0.53120400  0.31001300  0.14682300  1
  B  B14  1  0.76448700  0.75288500  0.83612100  1
  B  B15  1  0.23551300  0.24711500  0.16387900  1
  B  B16  1  0.74138900  0.75752700  0.62070800  1
  B  B17  1  0.25861100  0.24247300  0.37929200  1
  B  B18  1  0.74972100  0.87586700  0.03745900  1
  B  B19  1  0.25027900  0.12413300  0.96254100  1
  B  B20  1  0.20068000  0.65824300  0.67555100  1
  B  B21  1  0.79932000  0.34175700  0.32444900  1
  B  B22  1  0.98287900  0.79986100  0.32822400  1
  B  B23  1  0.01712100  0.20013900  0.67177600  1
  H  H24  1  0.08133600  0.73070900  0.90930500  1
  H  H25  1  0.91866400  0.26929100  0.09069500  1
  H  H26  1  0.34035900  0.52091200  0.98526200  1
  H  H27  1  0.65964100  0.47908800  0.01473800  1
  H  H28  1  0.65101500  0.25777100  0.55456000  1
  H  H29  1  0.34898500  0.74222900  0.44544000  1
  H  H30  1  0.99540200  0.36155900  0.47566100  1
  H  H31  1  0.00459800  0.63844100  0.52433900  1
  H  H32  1  0.45585600  0.51660200  0.11499700  1
  H  H33  1  0.54414400  0.48339800  0.88500300  1
  H  H34  1  0.89968500  0.45213100  0.62044700  1
  H  H35  1  0.10031500  0.54786900  0.37955300  1
  H  H36  1  0.56309500  0.82879400  0.39407200  1
  H  H37  1  0.43690500  0.17120600  0.60592800  1
  H  H38  1  0.15260300  0.99256900  0.37020500  1
  H  H39  1  0.84739700  0.00743100  0.62979500  1
  H  H40  1  0.50040200  0.05348200  0.34637600  1
  H  H41  1  0.49959800  0.94651800  0.65362400  1
  H  H42  1  0.79820900  0.51223800  0.68097600  1
  H  H43  1  0.20179100  0.48776200  0.31902400  1
  H  H44  1  0.95701500  0.04820800  0.18581200  1
  H  H45  1  0.04298500  0.95179200  0.81418800  1
  H  H46  1  0.51980600  0.08616300  0.22953300  1
  H  H47  1  0.48019400  0.91383700  0.77046700  1
  H  H48  1  0.02465900  0.63876300  0.16601400  1
  H  H49  1  0.97534100  0.36123700  0.83398600  1
  H  H50  1  0.65586900  0.12186300  0.57603800  1
  H  H51  1  0.34413100  0.87813700  0.42396200  1
  H  H52  1  0.25571600  0.80472300  0.90047300  1
  H  H53  1  0.74428400  0.19527700  0.09952700  1
  H  H54  1  0.80173200  0.59662500  0.88589400  1
  H  H55  1  0.19826800  0.40337500  0.11410600  1
  H  H56  1  0.15714000  0.59323000  0.14236600  1
  H  H57  1  0.84286000  0.40677000  0.85763400  1
  O  O58  1  0.53593800  0.99339600  0.74748300  1
  O  O59  1  0.46406200  0.00660400  0.25251700  1
  O  O60  1  0.21757600  0.56728600  0.39046300  1
  O  O61  1  0.78242400  0.43271400  0.60953700  1
  O  O62  1  0.10479000  0.65611900  0.12661400  1
  O  O63  1  0.89521000  0.34388100  0.87338600  1
  O  O64  1  0.42339700  0.84691500  0.47477700  1
  O  O65  1  0.57660300  0.15308500  0.52522300  1
  O  O66  1  0.20771800  0.79490800  0.96210600  1
  O  O67  1  0.79228200  0.20509200  0.03789400  1
  O  O68  1  0.35402100  0.53204100  0.07452400  1
  O  O69  1  0.64597900  0.46795900  0.92547600  1
  O  O70  1  0.84293900  0.65320000  0.83834800  1
  O  O71  1  0.15706100  0.34680000  0.16165200  1
  O  O72  1  0.11030600  0.71523200  0.60259100  1
  O  O73  1  0.88969400  0.28476800  0.39740900  1
  O  O74  1  0.12747800  0.89286300  0.32396000  1
  O  O75  1  0.87252200  0.10713700  0.67604000  1
  O  O76  1  0.83688600  0.98030700  0.16254300  1
  O  O77  1  0.16311400  0.01969300  0.83745700  1
  O  O78  1  0.63599600  0.82237800  0.35010900  1
  O  O79  1  0.36400400  0.17762200  0.64989100  1
  O  O80  1  0.81040700  0.82869700  0.75411600  1
  O  O81  1  0.18959300  0.17130300  0.24588400  1
  O  O82  1  0.12973900  0.51290200  0.64232700  1
  O  O83  1  0.87026100  0.48709800  0.35767300  1
  O  O84  1  0.81693100  0.83024900  0.55840700  1
  O  O85  1  0.18306900  0.16975100  0.44159300  1
  O  O86  1  0.60617100  0.62249900  0.55395200  1
  O  O87  1  0.39382900  0.37750100  0.44604800  1
  O  O88  1  0.71200200  0.62444600  0.35811500  1
  O  O89  1  0.28799800  0.37555400  0.64188500  1
  O  O90  1  0.90932300  0.65744700  0.25752700  1
  O  O91  1  0.09067700  0.34255300  0.74247300  1
  O  O92  1  0.57440000  0.67337900  0.78438300  1
  O  O93  1  0.42560000  0.32662100  0.21561700  1
  O  O94  1  0.57630300  0.79017700  0.98964400  1
  O  O95  1  0.42369700  0.20982300  0.01035600  1
  O  O96  1  0.84111200  0.86263800  0.96856100  1
  O  O97  1  0.15888800  0.13736200  0.03143900  1
  O  O98  1  0.35711800  0.75124800  0.78314800  1
  O  O99  1  0.64288200  0.24875200  0.21685200  1
  O  O100  1  0.92429000  0.85820600  0.40674200  1
  O  O101  1  0.07571000  0.14179400  0.59325800  1
  O  O102  1  0.36193300  0.55190900  0.84672700  1
  O  O103  1  0.63806700  0.44809100  0.15327300  1
