# generated using pymatgen
data_LiV2OF7
_symmetry_space_group_name_H-M   'P 1'
_cell_length_a   5.72458363
_cell_length_b   5.66425628
_cell_length_c   10.71484423
_cell_angle_alpha   90.00000000
_cell_angle_beta   102.78947050
_cell_angle_gamma   90.00000000
_symmetry_Int_Tables_number   1
_chemical_formula_structural   LiV2OF7
_chemical_formula_sum   'Li2 V4 O2 F14'
_cell_volume   338.81444938
_cell_formula_units_Z   2
loop_
 _symmetry_equiv_pos_site_id
 _symmetry_equiv_pos_as_xyz
  1  'x, y, z'
loop_
 _atom_site_type_symbol
 _atom_site_label
 _atom_site_symmetry_multiplicity
 _atom_site_fract_x
 _atom_site_fract_y
 _atom_site_fract_z
 _atom_site_occupancy
  Li  Li0  1  0.44175900  0.38062250  0.50588300  1
  Li  Li1  1  0.44175900  0.61937750  0.00588300  1
  V  V2  1  0.87747800  0.51636750  0.31086700  1
  V  V3  1  0.14293700  0.99659450  0.68532400  1
  V  V4  1  0.87747800  0.48363250  0.81086700  1
  V  V5  1  0.14293700  0.00340550  0.18532400  1
  O  O6  1  0.04973400  0.27453650  0.74555000  1
  O  O7  1  0.04973400  0.72546350  0.24555000  1
  F  F8  1  0.37038100  0.14959650  0.30169200  1
  F  F9  1  0.37038100  0.85040350  0.80169200  1
  F  F10  1  0.35900600  0.89743950  0.09689800  1
  F  F11  1  0.35900600  0.10256050  0.59689800  1
  F  F12  1  0.65303000  0.54758550  0.40552900  1
  F  F13  1  0.65303000  0.45241450  0.90552900  1
  F  F14  1  0.92670300  0.80999650  0.77762000  1
  F  F15  1  0.92670300  0.19000350  0.27762000  1
  F  F16  1  0.63160900  0.50808250  0.16297600  1
  F  F17  1  0.63160900  0.49191750  0.66297600  1
  F  F18  1  0.92700900  0.93045050  0.54422400  1
  F  F19  1  0.92700900  0.06954950  0.04422400  1
  F  F20  1  0.12200300  0.50904050  0.96144000  1
  F  F21  1  0.12200300  0.49095950  0.46144000  1
