# generated using pymatgen
data_Na4Bi2As(CO4)4
_symmetry_space_group_name_H-M   'P 1'
_cell_length_a   14.45340000
_cell_length_b   14.74474800
_cell_length_c   15.52110600
_cell_angle_alpha   90.00000000
_cell_angle_beta   90.00000000
_cell_angle_gamma   90.00000000
_symmetry_Int_Tables_number   1
_chemical_formula_structural   Na4Bi2As(CO4)4
_chemical_formula_sum   'Na32 Bi16 As8 C32 O128'
_cell_volume   3307.72991792
_cell_formula_units_Z   8
loop_
 _symmetry_equiv_pos_site_id
 _symmetry_equiv_pos_as_xyz
  1  'x, y, z'
loop_
 _atom_site_type_symbol
 _atom_site_label
 _atom_site_symmetry_multiplicity
 _atom_site_fract_x
 _atom_site_fract_y
 _atom_site_fract_z
 _atom_site_occupancy
  Na  Na0  1  0.75000000  0.45430800  0.25000000  1
  Na  Na1  1  0.54433500  0.25000000  0.25000000  1
  Na  Na2  1  0.29433500  0.00000000  0.00000000  1
  Na  Na3  1  0.50000000  0.20430800  0.00000000  1
  Na  Na4  1  0.75000000  0.04569200  0.25000000  1
  Na  Na5  1  0.95566500  0.25000000  0.25000000  1
  Na  Na6  1  0.70566500  0.00000000  0.00000000  1
  Na  Na7  1  0.50000000  0.79569200  0.00000000  1
  Na  Na8  1  0.75000000  0.95430800  0.75000000  1
  Na  Na9  1  0.54433500  0.75000000  0.75000000  1
  Na  Na10  1  0.29433500  0.50000000  0.50000000  1
  Na  Na11  1  0.50000000  0.70430800  0.50000000  1
  Na  Na12  1  0.75000000  0.54569200  0.75000000  1
  Na  Na13  1  0.95566500  0.75000000  0.75000000  1
  Na  Na14  1  0.70566500  0.50000000  0.50000000  1
  Na  Na15  1  0.50000000  0.29569200  0.50000000  1
  Na  Na16  1  0.25000000  0.45430800  0.75000000  1
  Na  Na17  1  0.04433500  0.25000000  0.75000000  1
  Na  Na18  1  0.79433500  0.00000000  0.50000000  1
  Na  Na19  1  0.00000000  0.20430800  0.50000000  1
  Na  Na20  1  0.25000000  0.04569200  0.75000000  1
  Na  Na21  1  0.45566500  0.25000000  0.75000000  1
  Na  Na22  1  0.20566500  0.00000000  0.50000000  1
  Na  Na23  1  0.00000000  0.79569200  0.50000000  1
  Na  Na24  1  0.25000000  0.95430800  0.25000000  1
  Na  Na25  1  0.04433500  0.75000000  0.25000000  1
  Na  Na26  1  0.79433500  0.50000000  0.00000000  1
  Na  Na27  1  0.00000000  0.70430800  0.00000000  1
  Na  Na28  1  0.25000000  0.54569200  0.25000000  1
  Na  Na29  1  0.45566500  0.75000000  0.25000000  1
  Na  Na30  1  0.20566500  0.50000000  0.00000000  1
  Na  Na31  1  0.00000000  0.29569200  0.00000000  1
  Bi  Bi32  1  0.87500000  0.62500000  0.37500000  1
  Bi  Bi33  1  0.62500000  0.87500000  0.37500000  1
  Bi  Bi34  1  0.62500000  0.62500000  0.12500000  1
  Bi  Bi35  1  0.87500000  0.87500000  0.12500000  1
  Bi  Bi36  1  0.87500000  0.12500000  0.87500000  1
  Bi  Bi37  1  0.62500000  0.37500000  0.87500000  1
  Bi  Bi38  1  0.62500000  0.12500000  0.62500000  1
  Bi  Bi39  1  0.87500000  0.37500000  0.62500000  1
  Bi  Bi40  1  0.37500000  0.62500000  0.87500000  1
  Bi  Bi41  1  0.12500000  0.87500000  0.87500000  1
  Bi  Bi42  1  0.12500000  0.62500000  0.62500000  1
  Bi  Bi43  1  0.37500000  0.87500000  0.62500000  1
  Bi  Bi44  1  0.37500000  0.12500000  0.37500000  1
  Bi  Bi45  1  0.12500000  0.37500000  0.37500000  1
  Bi  Bi46  1  0.12500000  0.12500000  0.12500000  1
  Bi  Bi47  1  0.37500000  0.37500000  0.12500000  1
  As  As48  1  0.50000000  0.00000000  0.00000000  1
  As  As49  1  0.75000000  0.25000000  0.25000000  1
  As  As50  1  0.50000000  0.50000000  0.50000000  1
  As  As51  1  0.75000000  0.75000000  0.75000000  1
  As  As52  1  0.00000000  0.00000000  0.50000000  1
  As  As53  1  0.25000000  0.25000000  0.75000000  1
  As  As54  1  0.00000000  0.50000000  0.00000000  1
  As  As55  1  0.25000000  0.75000000  0.25000000  1
  C  C56  1  0.59834950  0.40458400  0.08945750  1
  C  C57  1  0.34834950  0.15458400  0.16054250  1
  C  C58  1  0.90165050  0.40458400  0.41054250  1
  C  C59  1  0.59834950  0.09541600  0.41054250  1
  C  C60  1  0.15165050  0.15458400  0.33945750  1
  C  C61  1  0.84834950  0.84541600  0.33945750  1
  C  C62  1  0.90165050  0.09541600  0.08945750  1
  C  C63  1  0.65165050  0.84541600  0.16054250  1
  C  C64  1  0.59834950  0.90458400  0.58945750  1
  C  C65  1  0.34834950  0.65458400  0.66054250  1
  C  C66  1  0.90165050  0.90458400  0.91054250  1
  C  C67  1  0.59834950  0.59541600  0.91054250  1
  C  C68  1  0.15165050  0.65458400  0.83945750  1
  C  C69  1  0.84834950  0.34541600  0.83945750  1
  C  C70  1  0.90165050  0.59541600  0.58945750  1
  C  C71  1  0.65165050  0.34541600  0.66054250  1
  C  C72  1  0.09834950  0.40458400  0.58945750  1
  C  C73  1  0.84834950  0.15458400  0.66054250  1
  C  C74  1  0.40165050  0.40458400  0.91054250  1
  C  C75  1  0.09834950  0.09541600  0.91054250  1
  C  C76  1  0.65165050  0.15458400  0.83945750  1
  C  C77  1  0.34834950  0.84541600  0.83945750  1
  C  C78  1  0.40165050  0.09541600  0.58945750  1
  C  C79  1  0.15165050  0.84541600  0.66054250  1
  C  C80  1  0.09834950  0.90458400  0.08945750  1
  C  C81  1  0.84834950  0.65458400  0.16054250  1
  C  C82  1  0.40165050  0.90458400  0.41054250  1
  C  C83  1  0.09834950  0.59541600  0.41054250  1
  C  C84  1  0.65165050  0.65458400  0.33945750  1
  C  C85  1  0.34834950  0.34541600  0.33945750  1
  C  C86  1  0.40165050  0.59541600  0.08945750  1
  C  C87  1  0.15165050  0.34541600  0.16054250  1
  O  O88  1  0.10845350  0.96596000  0.14872650  1
  O  O89  1  0.42902600  0.92883250  0.05839450  1
  O  O90  1  0.15264750  0.90385400  0.02302150  1
  O  O91  1  0.40264750  0.15385400  0.22697850  1
  O  O92  1  0.34735250  0.90385400  0.47697850  1
  O  O93  1  0.28387750  0.09276400  0.15233450  1
  O  O94  1  0.07097400  0.92883250  0.44160550  1
  O  O95  1  0.57097400  0.07116750  0.05839450  1
  O  O96  1  0.78387750  0.90723600  0.34766550  1
  O  O97  1  0.65264750  0.09614600  0.47697850  1
  O  O98  1  0.35845350  0.21596000  0.10127350  1
  O  O99  1  0.92902600  0.07116750  0.44160550  1
  O  O100  1  0.39154650  0.96596000  0.35127350  1
  O  O101  1  0.60845350  0.03404000  0.35127350  1
  O  O102  1  0.53387750  0.34276400  0.09766550  1
  O  O103  1  0.21612250  0.09276400  0.34766550  1
  O  O104  1  0.03387750  0.65723600  0.40233450  1
  O  O105  1  0.71612250  0.90723600  0.15233450  1
  O  O106  1  0.14154650  0.21596000  0.39872650  1
  O  O107  1  0.85845350  0.78404000  0.39872650  1
  O  O108  1  0.82097400  0.17883250  0.30839450  1
  O  O109  1  0.89154650  0.03404000  0.14872650  1
  O  O110  1  0.09735250  0.15385400  0.27302150  1
  O  O111  1  0.96612250  0.34276400  0.40233450  1
  O  O112  1  0.67902600  0.17883250  0.19160550  1
  O  O113  1  0.67902600  0.32116750  0.30839450  1
  O  O114  1  0.46612250  0.65723600  0.09766550  1
  O  O115  1  0.90264750  0.84614600  0.27302150  1
  O  O116  1  0.84735250  0.09614600  0.02302150  1
  O  O117  1  0.59735250  0.84614600  0.22697850  1
  O  O118  1  0.82097400  0.32116750  0.19160550  1
  O  O119  1  0.64154650  0.78404000  0.10127350  1
  O  O120  1  0.10845350  0.46596000  0.64872650  1
  O  O121  1  0.42902600  0.42883250  0.55839450  1
  O  O122  1  0.15264750  0.40385400  0.52302150  1
  O  O123  1  0.40264750  0.65385400  0.72697850  1
  O  O124  1  0.34735250  0.40385400  0.97697850  1
  O  O125  1  0.28387750  0.59276400  0.65233450  1
  O  O126  1  0.07097400  0.42883250  0.94160550  1
  O  O127  1  0.57097400  0.57116750  0.55839450  1
  O  O128  1  0.78387750  0.40723600  0.84766550  1
  O  O129  1  0.65264750  0.59614600  0.97697850  1
  O  O130  1  0.35845350  0.71596000  0.60127350  1
  O  O131  1  0.92902600  0.57116750  0.94160550  1
  O  O132  1  0.39154650  0.46596000  0.85127350  1
  O  O133  1  0.60845350  0.53404000  0.85127350  1
  O  O134  1  0.53387750  0.84276400  0.59766550  1
  O  O135  1  0.21612250  0.59276400  0.84766550  1
  O  O136  1  0.03387750  0.15723600  0.90233450  1
  O  O137  1  0.71612250  0.40723600  0.65233450  1
  O  O138  1  0.14154650  0.71596000  0.89872650  1
  O  O139  1  0.85845350  0.28404000  0.89872650  1
  O  O140  1  0.82097400  0.67883250  0.80839450  1
  O  O141  1  0.89154650  0.53404000  0.64872650  1
  O  O142  1  0.09735250  0.65385400  0.77302150  1
  O  O143  1  0.96612250  0.84276400  0.90233450  1
  O  O144  1  0.67902600  0.67883250  0.69160550  1
  O  O145  1  0.67902600  0.82116750  0.80839450  1
  O  O146  1  0.46612250  0.15723600  0.59766550  1
  O  O147  1  0.90264750  0.34614600  0.77302150  1
  O  O148  1  0.84735250  0.59614600  0.52302150  1
  O  O149  1  0.59735250  0.34614600  0.72697850  1
  O  O150  1  0.82097400  0.82116750  0.69160550  1
  O  O151  1  0.64154650  0.28404000  0.60127350  1
  O  O152  1  0.60845350  0.96596000  0.64872650  1
  O  O153  1  0.92902600  0.92883250  0.55839450  1
  O  O154  1  0.65264750  0.90385400  0.52302150  1
  O  O155  1  0.90264750  0.15385400  0.72697850  1
  O  O156  1  0.84735250  0.90385400  0.97697850  1
  O  O157  1  0.78387750  0.09276400  0.65233450  1
  O  O158  1  0.57097400  0.92883250  0.94160550  1
  O  O159  1  0.07097400  0.07116750  0.55839450  1
  O  O160  1  0.28387750  0.90723600  0.84766550  1
  O  O161  1  0.15264750  0.09614600  0.97697850  1
  O  O162  1  0.85845350  0.21596000  0.60127350  1
  O  O163  1  0.42902600  0.07116750  0.94160550  1
  O  O164  1  0.89154650  0.96596000  0.85127350  1
  O  O165  1  0.10845350  0.03404000  0.85127350  1
  O  O166  1  0.03387750  0.34276400  0.59766550  1
  O  O167  1  0.71612250  0.09276400  0.84766550  1
  O  O168  1  0.53387750  0.65723600  0.90233450  1
  O  O169  1  0.21612250  0.90723600  0.65233450  1
  O  O170  1  0.64154650  0.21596000  0.89872650  1
  O  O171  1  0.35845350  0.78404000  0.89872650  1
  O  O172  1  0.32097400  0.17883250  0.80839450  1
  O  O173  1  0.39154650  0.03404000  0.64872650  1
  O  O174  1  0.59735250  0.15385400  0.77302150  1
  O  O175  1  0.46612250  0.34276400  0.90233450  1
  O  O176  1  0.17902600  0.17883250  0.69160550  1
  O  O177  1  0.17902600  0.32116750  0.80839450  1
  O  O178  1  0.96612250  0.65723600  0.59766550  1
  O  O179  1  0.40264750  0.84614600  0.77302150  1
  O  O180  1  0.34735250  0.09614600  0.52302150  1
  O  O181  1  0.09735250  0.84614600  0.72697850  1
  O  O182  1  0.32097400  0.32116750  0.69160550  1
  O  O183  1  0.14154650  0.78404000  0.60127350  1
  O  O184  1  0.60845350  0.46596000  0.14872650  1
  O  O185  1  0.92902600  0.42883250  0.05839450  1
  O  O186  1  0.65264750  0.40385400  0.02302150  1
  O  O187  1  0.90264750  0.65385400  0.22697850  1
  O  O188  1  0.84735250  0.40385400  0.47697850  1
  O  O189  1  0.78387750  0.59276400  0.15233450  1
  O  O190  1  0.57097400  0.42883250  0.44160550  1
  O  O191  1  0.07097400  0.57116750  0.05839450  1
  O  O192  1  0.28387750  0.40723600  0.34766550  1
  O  O193  1  0.15264750  0.59614600  0.47697850  1
  O  O194  1  0.85845350  0.71596000  0.10127350  1
  O  O195  1  0.42902600  0.57116750  0.44160550  1
  O  O196  1  0.89154650  0.46596000  0.35127350  1
  O  O197  1  0.10845350  0.53404000  0.35127350  1
  O  O198  1  0.03387750  0.84276400  0.09766550  1
  O  O199  1  0.71612250  0.59276400  0.34766550  1
  O  O200  1  0.53387750  0.15723600  0.40233450  1
  O  O201  1  0.21612250  0.40723600  0.15233450  1
  O  O202  1  0.64154650  0.71596000  0.39872650  1
  O  O203  1  0.35845350  0.28404000  0.39872650  1
  O  O204  1  0.32097400  0.67883250  0.30839450  1
  O  O205  1  0.39154650  0.53404000  0.14872650  1
  O  O206  1  0.59735250  0.65385400  0.27302150  1
  O  O207  1  0.46612250  0.84276400  0.40233450  1
  O  O208  1  0.17902600  0.67883250  0.19160550  1
  O  O209  1  0.17902600  0.82116750  0.30839450  1
  O  O210  1  0.96612250  0.15723600  0.09766550  1
  O  O211  1  0.40264750  0.34614600  0.27302150  1
  O  O212  1  0.34735250  0.59614600  0.02302150  1
  O  O213  1  0.09735250  0.34614600  0.22697850  1
  O  O214  1  0.32097400  0.82116750  0.19160550  1
  O  O215  1  0.14154650  0.28404000  0.10127350  1
