# generated using pymatgen
data_ErBiO3
_symmetry_space_group_name_H-M   'P 1'
_cell_length_a   5.98575949
_cell_length_b   5.98575949
_cell_length_c   15.13618490
_cell_angle_alpha   90.00000000
_cell_angle_beta   90.00000000
_cell_angle_gamma   120.00000000
_symmetry_Int_Tables_number   1
_chemical_formula_structural   ErBiO3
_chemical_formula_sum   'Er6 Bi6 O18'
_cell_volume   469.66217187
_cell_formula_units_Z   6
loop_
 _symmetry_equiv_pos_site_id
 _symmetry_equiv_pos_as_xyz
  1  'x, y, z'
loop_
 _atom_site_type_symbol
 _atom_site_label
 _atom_site_symmetry_multiplicity
 _atom_site_fract_x
 _atom_site_fract_y
 _atom_site_fract_z
 _atom_site_occupancy
  Er  Er0  1  0.00000000  0.00000000  0.14232200  1
  Er  Er1  1  0.66666667  0.33333333  0.19101133  1
  Er  Er2  1  0.66666667  0.33333333  0.47565533  1
  Er  Er3  1  0.33333333  0.66666667  0.52434467  1
  Er  Er4  1  0.33333333  0.66666667  0.80898867  1
  Er  Er5  1  0.00000000  0.00000000  0.85767800  1
  Bi  Bi6  1  0.33333333  0.66666667  0.02361967  1
  Bi  Bi7  1  0.33333333  0.66666667  0.30971367  1
  Bi  Bi8  1  0.00000000  0.00000000  0.35695300  1
  Bi  Bi9  1  0.00000000  0.00000000  0.64304700  1
  Bi  Bi10  1  0.66666667  0.33333333  0.69028633  1
  Bi  Bi11  1  0.66666667  0.33333333  0.97638033  1
  O  O12  1  0.37210133  0.07155767  0.08323567  1
  O  O13  1  0.69945633  0.62789867  0.08323567  1
  O  O14  1  0.92844233  0.30054367  0.08323567  1
  O  O15  1  0.73822433  0.03278967  0.25009767  1
  O  O16  1  0.96721033  0.70543467  0.25009767  1
  O  O17  1  0.29456533  0.26177567  0.25009767  1
  O  O18  1  0.03876800  0.40489100  0.41656900  1
  O  O19  1  0.36612300  0.96123200  0.41656900  1
  O  O20  1  0.59510900  0.63387700  0.41656900  1
  O  O21  1  0.40489100  0.36612300  0.58343100  1
  O  O22  1  0.63387700  0.03876800  0.58343100  1
  O  O23  1  0.96123200  0.59510900  0.58343100  1
  O  O24  1  0.70543467  0.73822433  0.74990233  1
  O  O25  1  0.03278967  0.29456533  0.74990233  1
  O  O26  1  0.26177567  0.96721033  0.74990233  1
  O  O27  1  0.07155767  0.69945633  0.91676433  1
  O  O28  1  0.30054367  0.37210133  0.91676433  1
  O  O29  1  0.62789867  0.92844233  0.91676433  1
