# generated using pymatgen
data_NaBH8O7
_symmetry_space_group_name_H-M   'P 1'
_cell_length_a   6.87920400
_cell_length_b   7.06421386
_cell_length_c   7.41734753
_cell_angle_alpha   69.12590827
_cell_angle_beta   77.85535078
_cell_angle_gamma   64.01818671
_symmetry_Int_Tables_number   1
_chemical_formula_structural   NaBH8O7
_chemical_formula_sum   'Na2 B2 H16 O14'
_cell_volume   302.12456579
_cell_formula_units_Z   2
loop_
 _symmetry_equiv_pos_site_id
 _symmetry_equiv_pos_as_xyz
  1  'x, y, z'
loop_
 _atom_site_type_symbol
 _atom_site_label
 _atom_site_symmetry_multiplicity
 _atom_site_fract_x
 _atom_site_fract_y
 _atom_site_fract_z
 _atom_site_occupancy
  Na  Na0  1  0.00000000  0.00000000  0.00000000  1
  Na  Na1  1  0.50000000  0.00000000  0.00000000  1
  B  B2  1  0.81420500  0.51032200  0.63274400  1
  B  B3  1  0.18579500  0.48967800  0.36725600  1
  H  H4  1  0.82663500  0.89785100  0.68442400  1
  H  H5  1  0.17336500  0.10214900  0.31557600  1
  H  H6  1  0.82935500  0.13061100  0.65254800  1
  H  H7  1  0.17064500  0.86938900  0.34745200  1
  H  H8  1  0.40922100  0.82662300  0.74793300  1
  H  H9  1  0.59077900  0.17337700  0.25206700  1
  H  H10  1  0.25261200  0.07870400  0.67624900  1
  H  H11  1  0.74738800  0.92129600  0.32375100  1
  H  H12  1  0.18731200  0.42595800  0.82607400  1
  H  H13  1  0.81268800  0.57404200  0.17392600  1
  H  H14  1  0.40150200  0.46225900  0.81038200  1
  H  H15  1  0.59849800  0.53774100  0.18961800  1
  H  H16  1  0.82319700  0.46422100  0.91901000  1
  H  H17  1  0.17680300  0.53577900  0.08099000  1
  H  H18  1  0.52006200  0.67360800  0.50973400  1
  H  H19  1  0.47993800  0.32639200  0.49026600  1
  O  O20  1  0.79142200  0.00997700  0.74926900  1
  O  O21  1  0.20857800  0.99002300  0.25073100  1
  O  O22  1  0.31545200  0.95567500  0.79327800  1
  O  O23  1  0.68454800  0.04432500  0.20672200  1
  O  O24  1  0.30328700  0.39780500  0.90241500  1
  O  O25  1  0.69671300  0.60219500  0.09758500  1
  O  O26  1  0.89772800  0.38508500  0.82060900  1
  O  O27  1  0.10227200  0.61491500  0.17939100  1
  O  O28  1  0.57498200  0.59986800  0.63839300  1
  O  O29  1  0.42501800  0.40013200  0.36160700  1
  O  O30  1  0.87062300  0.71059000  0.53697900  1
  O  O31  1  0.12937700  0.28941000  0.46302100  1
  O  O32  1  0.88929700  0.36920100  0.50093700  1
  O  O33  1  0.11070300  0.63079900  0.49906300  1
