# generated using pymatgen
data_LiCr(PO3)4
_symmetry_space_group_name_H-M   'P 1'
_cell_length_a   15.09111400
_cell_length_b   8.11856800
_cell_length_c   9.13538249
_cell_angle_alpha   90.00000000
_cell_angle_beta   119.23922564
_cell_angle_gamma   90.00000000
_symmetry_Int_Tables_number   1
_chemical_formula_structural   LiCr(PO3)4
_chemical_formula_sum   'Li4 Cr4 P16 O48'
_cell_volume   976.64480055
_cell_formula_units_Z   4
loop_
 _symmetry_equiv_pos_site_id
 _symmetry_equiv_pos_as_xyz
  1  'x, y, z'
loop_
 _atom_site_type_symbol
 _atom_site_label
 _atom_site_symmetry_multiplicity
 _atom_site_fract_x
 _atom_site_fract_y
 _atom_site_fract_z
 _atom_site_occupancy
  Li  Li0  1  0.00000000  0.00000000  0.50000000  1
  Li  Li1  1  0.00000000  0.00000000  0.00000000  1
  Li  Li2  1  0.50000000  0.50000000  0.50000000  1
  Li  Li3  1  0.50000000  0.50000000  0.00000000  1
  Cr  Cr4  1  0.00000000  0.66406800  0.75000000  1
  Cr  Cr5  1  0.00000000  0.33593200  0.25000000  1
  Cr  Cr6  1  0.50000000  0.16406800  0.75000000  1
  Cr  Cr7  1  0.50000000  0.83593200  0.25000000  1
  P  P8  1  0.14070000  0.55671800  0.13851500  1
  P  P9  1  0.14745100  0.19790700  0.10497500  1
  P  P10  1  0.35254900  0.69790700  0.39502500  1
  P  P11  1  0.35930000  0.05671800  0.36148500  1
  P  P12  1  0.14070000  0.44328200  0.63851500  1
  P  P13  1  0.14745100  0.80209300  0.60497500  1
  P  P14  1  0.35254900  0.30209300  0.89502500  1
  P  P15  1  0.35930000  0.94328200  0.86148500  1
  P  P16  1  0.64070000  0.05671800  0.13851500  1
  P  P17  1  0.64745100  0.69790700  0.10497500  1
  P  P18  1  0.85254900  0.19790700  0.39502500  1
  P  P19  1  0.85930000  0.55671800  0.36148500  1
  P  P20  1  0.64070000  0.94328200  0.63851500  1
  P  P21  1  0.64745100  0.30209300  0.60497500  1
  P  P22  1  0.85254900  0.80209300  0.89502500  1
  P  P23  1  0.85930000  0.44328200  0.86148500  1
  O  O24  1  0.09351800  0.18231500  0.20875600  1
  O  O25  1  0.10714050  0.67809550  0.99689200  1
  O  O26  1  0.24034250  0.62374750  0.29343200  1
  O  O27  1  0.17511050  0.38757950  0.08962300  1
  O  O28  1  0.43318650  0.97898150  0.80012200  1
  O  O29  1  0.32488950  0.88757950  0.41037700  1
  O  O30  1  0.25965750  0.12374750  0.20656800  1
  O  O31  1  0.40651450  0.61460650  0.56018500  1
  O  O32  1  0.39285950  0.17809550  0.50310800  1
  O  O33  1  0.09348550  0.11460650  0.93981500  1
  O  O34  1  0.40648200  0.68231500  0.29124400  1
  O  O35  1  0.06681350  0.47898150  0.69987800  1
  O  O36  1  0.43318650  0.02101850  0.30012200  1
  O  O37  1  0.09351800  0.81768500  0.70875600  1
  O  O38  1  0.40651450  0.38539350  0.06018500  1
  O  O39  1  0.10714050  0.32190450  0.49689200  1
  O  O40  1  0.09348550  0.88539350  0.43981500  1
  O  O41  1  0.24034250  0.37625250  0.79343200  1
  O  O42  1  0.17511050  0.61242050  0.58962300  1
  O  O43  1  0.06681350  0.52101850  0.19987800  1
  O  O44  1  0.32488950  0.11242050  0.91037700  1
  O  O45  1  0.25965750  0.87625250  0.70656800  1
  O  O46  1  0.39285950  0.82190450  0.00310800  1
  O  O47  1  0.40648200  0.31768500  0.79124400  1
  O  O48  1  0.59351800  0.68231500  0.20875600  1
  O  O49  1  0.60714050  0.17809550  0.99689200  1
  O  O50  1  0.74034250  0.12374750  0.29343200  1
  O  O51  1  0.67511050  0.88757950  0.08962300  1
  O  O52  1  0.93318650  0.47898150  0.80012200  1
  O  O53  1  0.82488950  0.38757950  0.41037700  1
  O  O54  1  0.75965750  0.62374750  0.20656800  1
  O  O55  1  0.90651450  0.11460650  0.56018500  1
  O  O56  1  0.89285950  0.67809550  0.50310800  1
  O  O57  1  0.59348550  0.61460650  0.93981500  1
  O  O58  1  0.90648200  0.18231500  0.29124400  1
  O  O59  1  0.56681350  0.97898150  0.69987800  1
  O  O60  1  0.93318650  0.52101850  0.30012200  1
  O  O61  1  0.59351800  0.31768500  0.70875600  1
  O  O62  1  0.90651450  0.88539350  0.06018500  1
  O  O63  1  0.60714050  0.82190450  0.49689200  1
  O  O64  1  0.59348550  0.38539350  0.43981500  1
  O  O65  1  0.74034250  0.87625250  0.79343200  1
  O  O66  1  0.67511050  0.11242050  0.58962300  1
  O  O67  1  0.56681350  0.02101850  0.19987800  1
  O  O68  1  0.82488950  0.61242050  0.91037700  1
  O  O69  1  0.75965750  0.37625250  0.70656800  1
  O  O70  1  0.89285950  0.32190450  0.00310800  1
  O  O71  1  0.90648200  0.81768500  0.79124400  1
