# generated using pymatgen
data_InPO4
_symmetry_space_group_name_H-M   'P 1'
_cell_length_a   5.38220800
_cell_length_b   8.16074400
_cell_length_c   6.92836200
_cell_angle_alpha   90.00000000
_cell_angle_beta   90.00000000
_cell_angle_gamma   90.00000000
_symmetry_Int_Tables_number   1
_chemical_formula_structural   InPO4
_chemical_formula_sum   'In4 P4 O16'
_cell_volume   304.31320840
_cell_formula_units_Z   4
loop_
 _symmetry_equiv_pos_site_id
 _symmetry_equiv_pos_as_xyz
  1  'x, y, z'
loop_
 _atom_site_type_symbol
 _atom_site_label
 _atom_site_symmetry_multiplicity
 _atom_site_fract_x
 _atom_site_fract_y
 _atom_site_fract_z
 _atom_site_occupancy
  In  In0  1  0.00000000  0.00000000  0.00000000  1
  In  In1  1  0.00000000  0.00000000  0.50000000  1
  In  In2  1  0.50000000  0.50000000  0.00000000  1
  In  In3  1  0.50000000  0.50000000  0.50000000  1
  P  P4  1  0.50000000  0.84992000  0.75000000  1
  P  P5  1  0.50000000  0.15008000  0.25000000  1
  P  P6  1  0.00000000  0.34992000  0.75000000  1
  P  P7  1  0.00000000  0.65008000  0.25000000  1
  O  O8  1  0.50000000  0.24814000  0.06238400  1
  O  O9  1  0.50000000  0.75186000  0.56238400  1
  O  O10  1  0.50000000  0.75186000  0.93761600  1
  O  O11  1  0.50000000  0.24814000  0.43761600  1
  O  O12  1  0.73854300  0.03650300  0.25000000  1
  O  O13  1  0.26145700  0.96349700  0.75000000  1
  O  O14  1  0.73854300  0.96349700  0.75000000  1
  O  O15  1  0.26145700  0.03650300  0.25000000  1
  O  O16  1  0.00000000  0.74814000  0.06238400  1
  O  O17  1  0.00000000  0.25186000  0.56238400  1
  O  O18  1  0.00000000  0.25186000  0.93761600  1
  O  O19  1  0.00000000  0.74814000  0.43761600  1
  O  O20  1  0.23854300  0.53650300  0.25000000  1
  O  O21  1  0.76145700  0.46349700  0.75000000  1
  O  O22  1  0.23854300  0.46349700  0.75000000  1
  O  O23  1  0.76145700  0.53650300  0.25000000  1
