# generated using pymatgen
data_Ti2N2O
_symmetry_space_group_name_H-M   'P 1'
_cell_length_a   8.19294300
_cell_length_b   8.22062821
_cell_length_c   8.23533175
_cell_angle_alpha   109.53958594
_cell_angle_beta   109.40120883
_cell_angle_gamma   109.29562870
_symmetry_Int_Tables_number   1
_chemical_formula_structural   Ti2N2O
_chemical_formula_sum   'Ti16 N16 O8'
_cell_volume   427.90661183
_cell_formula_units_Z   8
loop_
 _symmetry_equiv_pos_site_id
 _symmetry_equiv_pos_as_xyz
  1  'x, y, z'
loop_
 _atom_site_type_symbol
 _atom_site_label
 _atom_site_symmetry_multiplicity
 _atom_site_fract_x
 _atom_site_fract_y
 _atom_site_fract_z
 _atom_site_occupancy
  Ti  Ti0  1  0.51292500  0.49943200  0.50096900  1
  Ti  Ti1  1  0.21407100  0.75989100  0.45572100  1
  Ti  Ti2  1  0.95912200  0.20840800  0.25840200  1
  Ti  Ti3  1  0.46209500  0.71208100  0.24617800  1
  Ti  Ti4  1  0.29120000  0.23876100  0.03553600  1
  Ti  Ti5  1  0.00156100  0.00990500  0.49857000  1
  Ti  Ti6  1  0.75949900  0.96442100  0.70403200  1
  Ti  Ti7  1  0.98758000  0.49937900  0.99179300  1
  Ti  Ti8  1  0.24390700  0.54413900  0.79370700  1
  Ti  Ti9  1  0.50343600  0.00880300  0.01227000  1
  Ti  Ti10  1  0.73484400  0.45113000  0.20111500  1
  Ti  Ti11  1  0.25105400  0.03571100  0.29559300  1
  Ti  Ti12  1  0.71029000  0.75093500  0.96179900  1
  Ti  Ti13  1  0.03886300  0.79702000  0.75528800  1
  Ti  Ti14  1  0.54614300  0.28881900  0.74937100  1
  Ti  Ti15  1  0.79114900  0.25081900  0.54361700  1
  N  N16  1  0.77194700  0.72316900  0.73095000  1
  N  N17  1  0.54981400  0.50991000  0.27715100  1
  N  N18  1  0.50726000  0.77106800  0.04545100  1
  N  N19  1  0.72401500  0.23175300  0.27130800  1
  N  N20  1  0.23572800  0.77165600  0.22604300  1
  N  N21  1  0.04035200  0.05162800  0.77620900  1
  N  N22  1  0.05543100  0.27864700  0.54164200  1
  N  N23  1  0.76521300  0.22372400  0.77745400  1
  N  N24  1  0.77460500  0.55001300  0.00870200  1
  N  N25  1  0.95824400  0.95321500  0.22605000  1
  N  N26  1  0.72469000  0.95748200  0.45022400  1
  N  N27  1  0.99395000  0.54143600  0.77026500  1
  N  N28  1  0.26452900  0.98874000  0.03887000  1
  N  N29  1  0.48737300  0.22289500  0.94910500  1
  N  N30  1  0.27697600  0.03451800  0.55112700  1
  N  N31  1  0.53857900  0.26824000  0.49040200  1
  O  O32  1  0.27214600  0.76127700  0.72162100  1
  O  O33  1  0.22245200  0.27661800  0.26556300  1
  O  O34  1  0.45426400  0.73272000  0.51058300  1
  O  O35  1  0.00818900  0.45820100  0.23553500  1
  O  O36  1  0.22603300  0.44853900  0.98734800  1
  O  O37  1  0.95609600  0.72373300  0.46120900  1
  O  O38  1  0.73500900  0.00901700  0.95907600  1
  O  O39  1  0.44936800  0.49214400  0.72414700  1
