# generated using pymatgen
data_B10H13
_symmetry_space_group_name_H-M   'P 1'
_cell_length_a   10.72918400
_cell_length_b   10.86115300
_cell_length_c   14.80590200
_cell_angle_alpha   90.00000000
_cell_angle_beta   90.00000000
_cell_angle_gamma   90.00000000
_symmetry_Int_Tables_number   1
_chemical_formula_structural   B10H13
_chemical_formula_sum   'B80 H104'
_cell_volume   1725.35114083
_cell_formula_units_Z   8
loop_
 _symmetry_equiv_pos_site_id
 _symmetry_equiv_pos_as_xyz
  1  'x, y, z'
loop_
 _atom_site_type_symbol
 _atom_site_label
 _atom_site_symmetry_multiplicity
 _atom_site_fract_x
 _atom_site_fract_y
 _atom_site_fract_z
 _atom_site_occupancy
  B  B0  1  0.93198100  0.99125900  0.65644900  1
  B  B1  1  0.56801900  0.99125900  0.15644900  1
  B  B2  1  0.77342500  0.98623400  0.68470400  1
  B  B3  1  0.72657500  0.98623400  0.18470400  1
  B  B4  1  0.68432500  0.97611900  0.58343800  1
  B  B5  1  0.81567500  0.97611900  0.08343800  1
  B  B6  1  0.94784700  0.96665200  0.53732700  1
  B  B7  1  0.55215300  0.96665200  0.03732700  1
  B  B8  1  0.70519500  0.94356500  0.99683200  1
  B  B9  1  0.79480500  0.94356500  0.49683200  1
  B  B10  1  0.32206400  0.94306300  0.91844100  1
  B  B11  1  0.17793600  0.94306300  0.41844100  1
  B  B12  1  0.50031300  0.85292600  0.11684400  1
  B  B13  1  0.99968700  0.85292600  0.61684400  1
  B  B14  1  0.89125000  0.85198800  0.70827800  1
  B  B15  1  0.60875000  0.85198800  0.20827800  1
  B  B16  1  0.91180800  0.80959700  0.52013000  1
  B  B17  1  0.58819200  0.80959700  0.02013000  1
  B  B18  1  0.39570100  0.76730300  0.62599900  1
  B  B19  1  0.10429900  0.76730300  0.12599900  1
  B  B20  1  0.89570100  0.73269700  0.62599900  1
  B  B21  1  0.60429900  0.73269700  0.12599900  1
  B  B22  1  0.41180800  0.69040300  0.52013000  1
  B  B23  1  0.08819200  0.69040300  0.02013000  1
  B  B24  1  0.39125000  0.64801200  0.70827800  1
  B  B25  1  0.10875000  0.64801200  0.20827800  1
  B  B26  1  0.00031300  0.64707400  0.11684400  1
  B  B27  1  0.49968700  0.64707400  0.61684400  1
  B  B28  1  0.82206400  0.55693700  0.91844100  1
  B  B29  1  0.67793600  0.55693700  0.41844100  1
  B  B30  1  0.20519500  0.55643500  0.99683200  1
  B  B31  1  0.29480500  0.55643500  0.49683200  1
  B  B32  1  0.44784700  0.53334800  0.53732700  1
  B  B33  1  0.05215300  0.53334800  0.03732700  1
  B  B34  1  0.31567500  0.52388100  0.08343800  1
  B  B35  1  0.18432500  0.52388100  0.58343800  1
  B  B36  1  0.27342500  0.51376600  0.68470400  1
  B  B37  1  0.22657500  0.51376600  0.18470400  1
  B  B38  1  0.43198100  0.50874100  0.65644900  1
  B  B39  1  0.06801900  0.50874100  0.15644900  1
  B  B40  1  0.93198100  0.49125900  0.84355100  1
  B  B41  1  0.56801900  0.49125900  0.34355100  1
  B  B42  1  0.77342500  0.48623400  0.81529600  1
  B  B43  1  0.72657500  0.48623400  0.31529600  1
  B  B44  1  0.68432500  0.47611900  0.91656200  1
  B  B45  1  0.81567500  0.47611900  0.41656200  1
  B  B46  1  0.94784700  0.46665200  0.96267300  1
  B  B47  1  0.55215300  0.46665200  0.46267300  1
  B  B48  1  0.70519500  0.44356500  0.50316800  1
  B  B49  1  0.79480500  0.44356500  0.00316800  1
  B  B50  1  0.32206400  0.44306300  0.58155900  1
  B  B51  1  0.17793600  0.44306300  0.08155900  1
  B  B52  1  0.50031300  0.35292600  0.38315600  1
  B  B53  1  0.99968700  0.35292600  0.88315600  1
  B  B54  1  0.89125000  0.35198800  0.79172200  1
  B  B55  1  0.60875000  0.35198800  0.29172200  1
  B  B56  1  0.91180800  0.30959700  0.97987000  1
  B  B57  1  0.58819200  0.30959700  0.47987000  1
  B  B58  1  0.39570100  0.26730300  0.87400100  1
  B  B59  1  0.10429900  0.26730300  0.37400100  1
  B  B60  1  0.89570100  0.23269700  0.87400100  1
  B  B61  1  0.60429900  0.23269700  0.37400100  1
  B  B62  1  0.41180800  0.19040300  0.97987000  1
  B  B63  1  0.08819200  0.19040300  0.47987000  1
  B  B64  1  0.39125000  0.14801200  0.79172200  1
  B  B65  1  0.10875000  0.14801200  0.29172200  1
  B  B66  1  0.00031300  0.14707400  0.38315600  1
  B  B67  1  0.49968700  0.14707400  0.88315600  1
  B  B68  1  0.82206400  0.05693700  0.58155900  1
  B  B69  1  0.67793600  0.05693700  0.08155900  1
  B  B70  1  0.29480500  0.05643500  0.00316800  1
  B  B71  1  0.20519500  0.05643500  0.50316800  1
  B  B72  1  0.44784700  0.03334800  0.96267300  1
  B  B73  1  0.05215300  0.03334800  0.46267300  1
  B  B74  1  0.31567500  0.02388100  0.41656200  1
  B  B75  1  0.18432500  0.02388100  0.91656200  1
  B  B76  1  0.27342500  0.01376600  0.81529600  1
  B  B77  1  0.22657500  0.01376600  0.31529600  1
  B  B78  1  0.43198100  0.00874100  0.84355100  1
  B  B79  1  0.06801900  0.00874100  0.34355100  1
  H  H80  1  0.08015400  0.98916300  0.92856300  1
  H  H81  1  0.41984600  0.98916300  0.42856300  1
  H  H82  1  0.23123400  0.96278500  0.75075400  1
  H  H83  1  0.26876600  0.96278500  0.25075400  1
  H  H84  1  0.73550600  0.96181700  0.92029900  1
  H  H85  1  0.76449400  0.96181700  0.42029900  1
  H  H86  1  0.49397900  0.94111000  0.79831900  1
  H  H87  1  0.00602100  0.94111000  0.29831900  1
  H  H88  1  0.68407700  0.90869600  0.65970900  1
  H  H89  1  0.81592300  0.90869600  0.15970900  1
  H  H90  1  0.70054300  0.87800700  0.53009500  1
  H  H91  1  0.79945700  0.87800700  0.03009500  1
  H  H92  1  0.41215900  0.87362300  0.64065400  1
  H  H93  1  0.08784100  0.87362300  0.14065400  1
  H  H94  1  0.31899800  0.83454500  0.93120700  1
  H  H95  1  0.18100200  0.83454500  0.43120700  1
  H  H96  1  0.10841900  0.83327700  0.62682500  1
  H  H97  1  0.39158100  0.83327700  0.12682500  1
  H  H98  1  0.91654000  0.82817300  0.78494100  1
  H  H99  1  0.58346000  0.82817300  0.28494100  1
  H  H100  1  0.80695000  0.76879300  0.68471300  1
  H  H101  1  0.69305000  0.76879300  0.18471300  1
  H  H102  1  0.32097600  0.76034500  0.55384800  1
  H  H103  1  0.17902400  0.76034500  0.05384800  1
  H  H104  1  0.94859200  0.75143600  0.45707300  1
  H  H105  1  0.55140800  0.75143600  0.95707300  1
  H  H106  1  0.05140800  0.74856400  0.95707300  1
  H  H107  1  0.44859200  0.74856400  0.45707300  1
  H  H108  1  0.82097600  0.73965500  0.55384800  1
  H  H109  1  0.67902400  0.73965500  0.05384800  1
  H  H110  1  0.30695000  0.73120700  0.68471300  1
  H  H111  1  0.19305000  0.73120700  0.18471300  1
  H  H112  1  0.41654000  0.67182700  0.78494100  1
  H  H113  1  0.08346000  0.67182700  0.28494100  1
  H  H114  1  0.89158100  0.66672300  0.12682500  1
  H  H115  1  0.60841900  0.66672300  0.62682500  1
  H  H116  1  0.81899800  0.66545500  0.93120700  1
  H  H117  1  0.68100200  0.66545500  0.43120700  1
  H  H118  1  0.91215900  0.62637700  0.64065400  1
  H  H119  1  0.58784100  0.62637700  0.14065400  1
  H  H120  1  0.20054300  0.62199300  0.53009500  1
  H  H121  1  0.29945700  0.62199300  0.03009500  1
  H  H122  1  0.31592300  0.59130400  0.15970900  1
  H  H123  1  0.18407700  0.59130400  0.65970900  1
  H  H124  1  0.99397900  0.55889000  0.79831900  1
  H  H125  1  0.50602100  0.55889000  0.29831900  1
  H  H126  1  0.23550600  0.53818300  0.92029900  1
  H  H127  1  0.26449400  0.53818300  0.42029900  1
  H  H128  1  0.73123400  0.53721500  0.75075400  1
  H  H129  1  0.76876600  0.53721500  0.25075400  1
  H  H130  1  0.58015400  0.51083700  0.92856300  1
  H  H131  1  0.91984600  0.51083700  0.42856300  1
  H  H132  1  0.41984600  0.48916300  0.07143700  1
  H  H133  1  0.08015400  0.48916300  0.57143700  1
  H  H134  1  0.23123400  0.46278500  0.74924600  1
  H  H135  1  0.26876600  0.46278500  0.24924600  1
  H  H136  1  0.73550600  0.46181700  0.57970100  1
  H  H137  1  0.76449400  0.46181700  0.07970100  1
  H  H138  1  0.49397900  0.44111000  0.70168100  1
  H  H139  1  0.00602100  0.44111000  0.20168100  1
  H  H140  1  0.68407700  0.40869600  0.84029100  1
  H  H141  1  0.81592300  0.40869600  0.34029100  1
  H  H142  1  0.70054300  0.37800700  0.96990500  1
  H  H143  1  0.79945700  0.37800700  0.46990500  1
  H  H144  1  0.41215900  0.37362300  0.85934600  1
  H  H145  1  0.08784100  0.37362300  0.35934600  1
  H  H146  1  0.31899800  0.33454500  0.56879300  1
  H  H147  1  0.18100200  0.33454500  0.06879300  1
  H  H148  1  0.39158100  0.33327700  0.37317500  1
  H  H149  1  0.10841900  0.33327700  0.87317500  1
  H  H150  1  0.91654000  0.32817300  0.71505900  1
  H  H151  1  0.58346000  0.32817300  0.21505900  1
  H  H152  1  0.80695000  0.26879300  0.81528700  1
  H  H153  1  0.69305000  0.26879300  0.31528700  1
  H  H154  1  0.32097600  0.26034500  0.94615200  1
  H  H155  1  0.17902400  0.26034500  0.44615200  1
  H  H156  1  0.55140800  0.25143600  0.54292700  1
  H  H157  1  0.94859200  0.25143600  0.04292700  1
  H  H158  1  0.44859200  0.24856400  0.04292700  1
  H  H159  1  0.05140800  0.24856400  0.54292700  1
  H  H160  1  0.82097600  0.23965500  0.94615200  1
  H  H161  1  0.67902400  0.23965500  0.44615200  1
  H  H162  1  0.30695000  0.23120700  0.81528700  1
  H  H163  1  0.19305000  0.23120700  0.31528700  1
  H  H164  1  0.41654000  0.17182700  0.71505900  1
  H  H165  1  0.08346000  0.17182700  0.21505900  1
  H  H166  1  0.89158100  0.16672300  0.37317500  1
  H  H167  1  0.60841900  0.16672300  0.87317500  1
  H  H168  1  0.81899800  0.16545500  0.56879300  1
  H  H169  1  0.68100200  0.16545500  0.06879300  1
  H  H170  1  0.91215900  0.12637700  0.85934600  1
  H  H171  1  0.58784100  0.12637700  0.35934600  1
  H  H172  1  0.29945700  0.12199300  0.46990500  1
  H  H173  1  0.20054300  0.12199300  0.96990500  1
  H  H174  1  0.31592300  0.09130400  0.34029100  1
  H  H175  1  0.18407700  0.09130400  0.84029100  1
  H  H176  1  0.99397900  0.05889000  0.70168100  1
  H  H177  1  0.50602100  0.05889000  0.20168100  1
  H  H178  1  0.26449400  0.03818300  0.07970100  1
  H  H179  1  0.23550600  0.03818300  0.57970100  1
  H  H180  1  0.76876600  0.03721500  0.24924600  1
  H  H181  1  0.73123400  0.03721500  0.74924600  1
  H  H182  1  0.91984600  0.01083700  0.07143700  1
  H  H183  1  0.58015400  0.01083700  0.57143700  1
