# generated using pymatgen
data_LiSi6Bi9O26
_symmetry_space_group_name_H-M   'P 1'
_cell_length_a   9.71819547
_cell_length_b   9.71819547
_cell_length_c   14.14931900
_cell_angle_alpha   90.00000000
_cell_angle_beta   90.00000000
_cell_angle_gamma   120.00000000
_symmetry_Int_Tables_number   1
_chemical_formula_structural   LiSi6Bi9O26
_chemical_formula_sum   'Li2 Si12 Bi18 O52'
_cell_volume   1157.27728719
_cell_formula_units_Z   2
loop_
 _symmetry_equiv_pos_site_id
 _symmetry_equiv_pos_as_xyz
  1  'x, y, z'
loop_
 _atom_site_type_symbol
 _atom_site_label
 _atom_site_symmetry_multiplicity
 _atom_site_fract_x
 _atom_site_fract_y
 _atom_site_fract_z
 _atom_site_occupancy
  Li  Li0  1  0.33333333  0.66666667  0.24215600  1
  Li  Li1  1  0.66666667  0.33333333  0.75784400  1
  Si  Si2  1  0.02954533  0.62782667  0.37237400  1
  Si  Si3  1  0.02455033  0.62416467  0.87443900  1
  Si  Si4  1  0.59961433  0.97544967  0.87443900  1
  Si  Si5  1  0.59828133  0.97045467  0.37237400  1
  Si  Si6  1  0.37583533  0.40038567  0.87443900  1
  Si  Si7  1  0.37217333  0.40171867  0.37237400  1
  Si  Si8  1  0.62782667  0.59828133  0.62762600  1
  Si  Si9  1  0.62416467  0.59961433  0.12556100  1
  Si  Si10  1  0.40171867  0.02954533  0.62762600  1
  Si  Si11  1  0.40038567  0.02455033  0.12556100  1
  Si  Si12  1  0.97045467  0.37217333  0.62762600  1
  Si  Si13  1  0.97544967  0.37583533  0.12556100  1
  Bi  Bi14  1  0.98793833  0.75902367  0.62675600  1
  Bi  Bi15  1  0.98909033  0.75872267  0.12603000  1
  Bi  Bi16  1  0.33333333  0.66666667  0.74473100  1
  Bi  Bi17  1  0.33333333  0.66666667  0.01969800  1
  Bi  Bi18  1  0.33333333  0.66666667  0.48647600  1
  Bi  Bi19  1  0.24097633  0.22891467  0.62675600  1
  Bi  Bi20  1  0.24127733  0.23036767  0.12603000  1
  Bi  Bi21  1  0.22891467  0.98793833  0.37324400  1
  Bi  Bi22  1  0.23036767  0.98909033  0.87397000  1
  Bi  Bi23  1  0.77108533  0.01206167  0.62675600  1
  Bi  Bi24  1  0.76963233  0.01090967  0.12603000  1
  Bi  Bi25  1  0.75872267  0.76963233  0.87397000  1
  Bi  Bi26  1  0.75902367  0.77108533  0.37324400  1
  Bi  Bi27  1  0.66666667  0.33333333  0.98030200  1
  Bi  Bi28  1  0.66666667  0.33333333  0.51352400  1
  Bi  Bi29  1  0.66666667  0.33333333  0.25526900  1
  Bi  Bi30  1  0.01090967  0.24127733  0.87397000  1
  Bi  Bi31  1  0.01206167  0.24097633  0.37324400  1
  O  O32  1  0.07946633  0.75929367  0.28601500  1
  O  O33  1  0.09004133  0.75053067  0.78407200  1
  O  O34  1  0.08979633  0.74838467  0.96545900  1
  O  O35  1  0.09592433  0.74913367  0.46538600  1
  O  O36  1  0.13227333  0.53469667  0.37088800  1
  O  O37  1  0.12154533  0.52567267  0.87186500  1
  O  O38  1  0.33579633  0.83822467  0.62631600  1
  O  O39  1  0.32454133  0.83150967  0.12785500  1
  O  O40  1  0.16849033  0.49303167  0.12785500  1
  O  O41  1  0.16177533  0.49757167  0.62631600  1
  O  O42  1  0.40242333  0.86772667  0.37088800  1
  O  O43  1  0.40412733  0.87845467  0.87186500  1
  O  O44  1  0.00000000  0.00000000  0.87314500  1
  O  O45  1  0.00000000  0.00000000  0.62224900  1
  O  O46  1  0.00000000  0.00000000  0.37775100  1
  O  O47  1  0.00000000  0.00000000  0.12685500  1
  O  O48  1  0.25086633  0.34679067  0.46538600  1
  O  O49  1  0.24946933  0.33951067  0.78407200  1
  O  O50  1  0.25161533  0.34141167  0.96545900  1
  O  O51  1  0.24070633  0.32017267  0.28601500  1
  O  O52  1  0.50242833  0.66420367  0.62631600  1
  O  O53  1  0.50696833  0.67545867  0.12785500  1
  O  O54  1  0.46530333  0.59757667  0.37088800  1
  O  O55  1  0.47432733  0.59587267  0.87186500  1
  O  O56  1  0.65320933  0.90407567  0.46538600  1
  O  O57  1  0.65858833  0.91020367  0.96545900  1
  O  O58  1  0.66048933  0.90995867  0.78407200  1
  O  O59  1  0.67982733  0.92053367  0.28601500  1
  O  O60  1  0.34679067  0.09592433  0.53461400  1
  O  O61  1  0.32017267  0.07946633  0.71398500  1
  O  O62  1  0.34141167  0.08979633  0.03454100  1
  O  O63  1  0.33951067  0.09004133  0.21592800  1
  O  O64  1  0.53469667  0.40242333  0.62911200  1
  O  O65  1  0.52567267  0.40412733  0.12813500  1
  O  O66  1  0.49303167  0.32454133  0.87214500  1
  O  O67  1  0.49757167  0.33579633  0.37368400  1
  O  O68  1  0.74838467  0.65858833  0.03454100  1
  O  O69  1  0.75053067  0.66048933  0.21592800  1
  O  O70  1  0.74913367  0.65320933  0.53461400  1
  O  O71  1  0.75929367  0.67982733  0.71398500  1
  O  O72  1  0.59757667  0.13227333  0.62911200  1
  O  O73  1  0.59587267  0.12154533  0.12813500  1
  O  O74  1  0.83150967  0.50696833  0.87214500  1
  O  O75  1  0.83822467  0.50242833  0.37368400  1
  O  O76  1  0.67545867  0.16849033  0.87214500  1
  O  O77  1  0.66420367  0.16177533  0.37368400  1
  O  O78  1  0.86772667  0.46530333  0.62911200  1
  O  O79  1  0.87845467  0.47432733  0.12813500  1
  O  O80  1  0.91020367  0.25161533  0.03454100  1
  O  O81  1  0.90407567  0.25086633  0.53461400  1
  O  O82  1  0.92053367  0.24070633  0.71398500  1
  O  O83  1  0.90995867  0.24946933  0.21592800  1
