# generated using pymatgen
data_Li4Cr3Fe3(TeO8)2
_symmetry_space_group_name_H-M   'P 1'
_cell_length_a   10.42565800
_cell_length_b   6.01009600
_cell_length_c   9.82577389
_cell_angle_alpha   90.00000000
_cell_angle_beta   90.60451134
_cell_angle_gamma   90.00000000
_symmetry_Int_Tables_number   1
_chemical_formula_structural   Li4Cr3Fe3(TeO8)2
_chemical_formula_sum   'Li8 Cr6 Fe6 Te4 O32'
_cell_volume   615.64091712
_cell_formula_units_Z   2
loop_
 _symmetry_equiv_pos_site_id
 _symmetry_equiv_pos_as_xyz
  1  'x, y, z'
loop_
 _atom_site_type_symbol
 _atom_site_label
 _atom_site_symmetry_multiplicity
 _atom_site_fract_x
 _atom_site_fract_y
 _atom_site_fract_z
 _atom_site_occupancy
  Li  Li0  1  0.66600900  0.00000000  0.90822100  1
  Li  Li1  1  0.50046900  0.50000000  0.98951000  1
  Li  Li2  1  0.50112900  0.50000000  0.49044200  1
  Li  Li3  1  0.83280500  0.50000000  0.40524200  1
  Li  Li4  1  0.16600900  0.50000000  0.90822100  1
  Li  Li5  1  0.00046900  0.00000000  0.98951000  1
  Li  Li6  1  0.00112900  0.00000000  0.49044200  1
  Li  Li7  1  0.33280500  0.00000000  0.40524200  1
  Cr  Cr8  1  0.58536800  0.24558900  0.21341800  1
  Cr  Cr9  1  0.58536800  0.75441100  0.21341800  1
  Cr  Cr10  1  0.67119700  0.50000000  0.71370800  1
  Cr  Cr11  1  0.08536800  0.74558900  0.21341800  1
  Cr  Cr12  1  0.08536800  0.25441100  0.21341800  1
  Cr  Cr13  1  0.17119700  0.00000000  0.71370800  1
  Fe  Fe14  1  0.83202300  0.00000000  0.21410200  1
  Fe  Fe15  1  0.91666200  0.74610200  0.71425100  1
  Fe  Fe16  1  0.91666200  0.25389800  0.71425100  1
  Fe  Fe17  1  0.33202300  0.50000000  0.21410200  1
  Fe  Fe18  1  0.41666200  0.24610200  0.71425100  1
  Fe  Fe19  1  0.41666200  0.75389800  0.71425100  1
  Te  Te20  1  0.66755000  0.00000000  0.48549400  1
  Te  Te21  1  0.83381000  0.50000000  0.98715400  1
  Te  Te22  1  0.16755000  0.50000000  0.48549400  1
  Te  Te23  1  0.33381000  0.00000000  0.98715400  1
  O  O24  1  0.58087500  0.25645700  0.59744400  1
  O  O25  1  0.51650300  0.00000000  0.33517700  1
  O  O26  1  0.66825800  0.00000000  0.11015100  1
  O  O27  1  0.99966800  0.00000000  0.30650700  1
  O  O28  1  0.50079400  0.50000000  0.80528600  1
  O  O29  1  0.58087500  0.74354300  0.59744400  1
  O  O30  1  0.73948050  0.22518150  0.34192100  1
  O  O31  1  0.73948050  0.77481850  0.34192100  1
  O  O32  1  0.65863700  0.50000000  0.09809100  1
  O  O33  1  0.83692500  0.00000000  0.59387100  1
  O  O34  1  0.75757100  0.72290700  0.84130800  1
  O  O35  1  0.75757100  0.27709300  0.84130800  1
  O  O36  1  0.83514800  0.50000000  0.60939000  1
  O  O37  1  0.91885100  0.75892900  0.09552200  1
  O  O38  1  0.98127800  0.50000000  0.84773300  1
  O  O39  1  0.91885100  0.24107100  0.09552200  1
  O  O40  1  0.08087500  0.75645700  0.59744400  1
  O  O41  1  0.01650300  0.50000000  0.33517700  1
  O  O42  1  0.16825800  0.50000000  0.11015100  1
  O  O43  1  0.49966800  0.50000000  0.30650700  1
  O  O44  1  0.00079400  0.00000000  0.80528600  1
  O  O45  1  0.08087500  0.24354300  0.59744400  1
  O  O46  1  0.23948050  0.72518150  0.34192100  1
  O  O47  1  0.23948050  0.27481850  0.34192100  1
  O  O48  1  0.15863700  0.00000000  0.09809100  1
  O  O49  1  0.33692500  0.50000000  0.59387100  1
  O  O50  1  0.25757100  0.22290700  0.84130800  1
  O  O51  1  0.25757100  0.77709300  0.84130800  1
  O  O52  1  0.33514800  0.00000000  0.60939000  1
  O  O53  1  0.41885100  0.25892900  0.09552200  1
  O  O54  1  0.48127800  0.00000000  0.84773300  1
  O  O55  1  0.41885100  0.74107100  0.09552200  1
