# generated using pymatgen
data_Ba6Li2Ti16O39
_symmetry_space_group_name_H-M   'P 1'
_cell_length_a   15.32550000
_cell_length_b   11.81345200
_cell_length_c   9.19835019
_cell_angle_alpha   90.00000000
_cell_angle_beta   98.73074594
_cell_angle_gamma   90.00000000
_symmetry_Int_Tables_number   1
_chemical_formula_structural   Ba6Li2Ti16O39
_chemical_formula_sum   'Ba12 Li4 Ti32 O78'
_cell_volume   1646.03731097
_cell_formula_units_Z   2
loop_
 _symmetry_equiv_pos_site_id
 _symmetry_equiv_pos_as_xyz
  1  'x, y, z'
loop_
 _atom_site_type_symbol
 _atom_site_label
 _atom_site_symmetry_multiplicity
 _atom_site_fract_x
 _atom_site_fract_y
 _atom_site_fract_z
 _atom_site_occupancy
  Ba  Ba0  1  0.05088900  0.00000000  0.77152200  1
  Ba  Ba1  1  0.44685400  0.83940500  0.23213800  1
  Ba  Ba2  1  0.44685400  0.16059500  0.23213800  1
  Ba  Ba3  1  0.55314600  0.83940500  0.76786200  1
  Ba  Ba4  1  0.55314600  0.16059500  0.76786200  1
  Ba  Ba5  1  0.94911100  0.00000000  0.22847800  1
  Ba  Ba6  1  0.55088900  0.50000000  0.77152200  1
  Ba  Ba7  1  0.94685400  0.33940500  0.23213800  1
  Ba  Ba8  1  0.94685400  0.66059500  0.23213800  1
  Ba  Ba9  1  0.05314600  0.33940500  0.76786200  1
  Ba  Ba10  1  0.05314600  0.66059500  0.76786200  1
  Ba  Ba11  1  0.44911100  0.50000000  0.22847800  1
  Li  Li12  1  0.26143200  0.00000000  0.23068800  1
  Li  Li13  1  0.73856800  0.00000000  0.76931200  1
  Li  Li14  1  0.76143200  0.50000000  0.23068800  1
  Li  Li15  1  0.23856800  0.50000000  0.76931200  1
  Ti  Ti16  1  0.17147500  0.83873800  0.43659700  1
  Ti  Ti17  1  0.17147500  0.16126200  0.43659700  1
  Ti  Ti18  1  0.24276500  0.83144000  0.76965900  1
  Ti  Ti19  1  0.24276500  0.16856000  0.76965900  1
  Ti  Ti20  1  0.33435100  0.00000000  0.55580900  1
  Ti  Ti21  1  0.37880250  0.66149850  0.90322500  1
  Ti  Ti22  1  0.37880250  0.33850150  0.90322500  1
  Ti  Ti23  1  0.37810200  0.00000000  0.91371700  1
  Ti  Ti24  1  0.62189800  0.00000000  0.08628300  1
  Ti  Ti25  1  0.62119750  0.66149850  0.09677500  1
  Ti  Ti26  1  0.62119750  0.33850150  0.09677500  1
  Ti  Ti27  1  0.66564900  0.00000000  0.44419100  1
  Ti  Ti28  1  0.75723500  0.83144000  0.23034100  1
  Ti  Ti29  1  0.75723500  0.16856000  0.23034100  1
  Ti  Ti30  1  0.82852500  0.16126200  0.56340300  1
  Ti  Ti31  1  0.82852500  0.83873800  0.56340300  1
  Ti  Ti32  1  0.67147500  0.33873800  0.43659700  1
  Ti  Ti33  1  0.67147500  0.66126200  0.43659700  1
  Ti  Ti34  1  0.74276500  0.33144000  0.76965900  1
  Ti  Ti35  1  0.74276500  0.66856000  0.76965900  1
  Ti  Ti36  1  0.83435100  0.50000000  0.55580900  1
  Ti  Ti37  1  0.87880250  0.16149850  0.90322500  1
  Ti  Ti38  1  0.87880250  0.83850150  0.90322500  1
  Ti  Ti39  1  0.87810200  0.50000000  0.91371700  1
  Ti  Ti40  1  0.12189800  0.50000000  0.08628300  1
  Ti  Ti41  1  0.12119750  0.16149850  0.09677500  1
  Ti  Ti42  1  0.12119750  0.83850150  0.09677500  1
  Ti  Ti43  1  0.16564900  0.50000000  0.44419100  1
  Ti  Ti44  1  0.25723500  0.33144000  0.23034100  1
  Ti  Ti45  1  0.25723500  0.66856000  0.23034100  1
  Ti  Ti46  1  0.32852500  0.66126200  0.56340300  1
  Ti  Ti47  1  0.32852500  0.33873800  0.56340300  1
  O  O48  1  0.12291900  0.00000000  0.10157200  1
  O  O49  1  0.19838100  0.00000000  0.43748600  1
  O  O50  1  0.26057600  0.00000000  0.76229500  1
  O  O51  1  0.23551400  0.82818500  0.24152100  1
  O  O52  1  0.23551400  0.17181500  0.24152100  1
  O  O53  1  0.29843200  0.83325300  0.57008400  1
  O  O54  1  0.29843200  0.16674700  0.57008400  1
  O  O55  1  0.36321800  0.83213100  0.88465500  1
  O  O56  1  0.36321800  0.16786900  0.88465500  1
  O  O57  1  0.83136150  0.16658350  0.08638900  1
  O  O58  1  0.83136150  0.83341650  0.08638900  1
  O  O59  1  0.33817200  0.00000000  0.08208800  1
  O  O60  1  0.36748550  0.66759250  0.38179500  1
  O  O61  1  0.36748550  0.33240750  0.38179500  1
  O  O62  1  0.38010400  0.00000000  0.39203700  1
  O  O63  1  0.42846600  0.00000000  0.70138500  1
  O  O64  1  0.42784550  0.66536750  0.70301700  1
  O  O65  1  0.42784550  0.33463250  0.70301700  1
  O  O66  1  0.50000000  0.32786800  0.00000000  1
  O  O67  1  0.50000000  0.00000000  0.00000000  1
  O  O68  1  0.50000000  0.67213200  0.00000000  1
  O  O69  1  0.57215450  0.66536750  0.29698300  1
  O  O70  1  0.57153400  0.00000000  0.29861500  1
  O  O71  1  0.57215450  0.33463250  0.29698300  1
  O  O72  1  0.63251450  0.33240750  0.61820500  1
  O  O73  1  0.63251450  0.66759250  0.61820500  1
  O  O74  1  0.61989600  0.00000000  0.60796300  1
  O  O75  1  0.16863850  0.16658350  0.91361100  1
  O  O76  1  0.66182800  0.00000000  0.91791200  1
  O  O77  1  0.16863850  0.83341650  0.91361100  1
  O  O78  1  0.63678200  0.16786900  0.11534500  1
  O  O79  1  0.63678200  0.83213100  0.11534500  1
  O  O80  1  0.70156800  0.16674700  0.42991600  1
  O  O81  1  0.70156800  0.83325300  0.42991600  1
  O  O82  1  0.76448600  0.17181500  0.75847900  1
  O  O83  1  0.76448600  0.82818500  0.75847900  1
  O  O84  1  0.73942400  0.00000000  0.23770500  1
  O  O85  1  0.80161900  0.00000000  0.56251400  1
  O  O86  1  0.87708100  0.00000000  0.89842800  1
  O  O87  1  0.62291900  0.50000000  0.10157200  1
  O  O88  1  0.69838100  0.50000000  0.43748600  1
  O  O89  1  0.76057600  0.50000000  0.76229500  1
  O  O90  1  0.73551400  0.32818500  0.24152100  1
  O  O91  1  0.73551400  0.67181500  0.24152100  1
  O  O92  1  0.79843200  0.33325300  0.57008400  1
  O  O93  1  0.79843200  0.66674700  0.57008400  1
  O  O94  1  0.86321800  0.33213100  0.88465500  1
  O  O95  1  0.86321800  0.66786900  0.88465500  1
  O  O96  1  0.33136150  0.66658350  0.08638900  1
  O  O97  1  0.33136150  0.33341650  0.08638900  1
  O  O98  1  0.83817200  0.50000000  0.08208800  1
  O  O99  1  0.86748550  0.16759250  0.38179500  1
  O  O100  1  0.86748550  0.83240750  0.38179500  1
  O  O101  1  0.88010400  0.50000000  0.39203700  1
  O  O102  1  0.92846600  0.50000000  0.70138500  1
  O  O103  1  0.92784550  0.16536750  0.70301700  1
  O  O104  1  0.92784550  0.83463250  0.70301700  1
  O  O105  1  0.00000000  0.82786800  0.00000000  1
  O  O106  1  0.00000000  0.50000000  0.00000000  1
  O  O107  1  0.00000000  0.17213200  0.00000000  1
  O  O108  1  0.07215450  0.16536750  0.29698300  1
  O  O109  1  0.07153400  0.50000000  0.29861500  1
  O  O110  1  0.07215450  0.83463250  0.29698300  1
  O  O111  1  0.13251450  0.83240750  0.61820500  1
  O  O112  1  0.13251450  0.16759250  0.61820500  1
  O  O113  1  0.11989600  0.50000000  0.60796300  1
  O  O114  1  0.66863850  0.66658350  0.91361100  1
  O  O115  1  0.16182800  0.50000000  0.91791200  1
  O  O116  1  0.66863850  0.33341650  0.91361100  1
  O  O117  1  0.13678200  0.66786900  0.11534500  1
  O  O118  1  0.13678200  0.33213100  0.11534500  1
  O  O119  1  0.20156800  0.66674700  0.42991600  1
  O  O120  1  0.20156800  0.33325300  0.42991600  1
  O  O121  1  0.26448600  0.67181500  0.75847900  1
  O  O122  1  0.26448600  0.32818500  0.75847900  1
  O  O123  1  0.23942400  0.50000000  0.23770500  1
  O  O124  1  0.30161900  0.50000000  0.56251400  1
  O  O125  1  0.37708100  0.50000000  0.89842800  1
