# generated using pymatgen
data_Rb2O
_symmetry_space_group_name_H-M   'P 1'
_cell_length_a   7.39279898
_cell_length_b   7.39279898
_cell_length_c   6.61218900
_cell_angle_alpha   90.00000000
_cell_angle_beta   90.00000000
_cell_angle_gamma   120.00000000
_symmetry_Int_Tables_number   1
_chemical_formula_structural   Rb2O
_chemical_formula_sum   'Rb6 O3'
_cell_volume   312.96349610
_cell_formula_units_Z   3
loop_
 _symmetry_equiv_pos_site_id
 _symmetry_equiv_pos_as_xyz
  1  'x, y, z'
loop_
 _atom_site_type_symbol
 _atom_site_label
 _atom_site_symmetry_multiplicity
 _atom_site_fract_x
 _atom_site_fract_y
 _atom_site_fract_z
 _atom_site_occupancy
  Rb  Rb0  1  0.66035933  0.00068267  0.85521600  1
  Rb  Rb1  1  0.00142933  0.32592867  0.45661000  1
  Rb  Rb2  1  0.67407133  0.67550067  0.45661000  1
  Rb  Rb3  1  0.34032333  0.33964067  0.85521600  1
  Rb  Rb4  1  0.32449933  0.99857067  0.45661000  1
  Rb  Rb5  1  0.99931733  0.65967667  0.85521600  1
  O  O6  1  0.33333333  0.66666667  0.64866800  1
  O  O7  1  0.00000000  0.00000000  0.67748500  1
  O  O8  1  0.66666667  0.33333333  0.63972100  1
