# generated using pymatgen
data_LiMn2F7
_symmetry_space_group_name_H-M   'P 1'
_cell_length_a   17.17839000
_cell_length_b   5.12114600
_cell_length_c   5.60197332
_cell_angle_alpha   90.00000000
_cell_angle_beta   91.31051856
_cell_angle_gamma   90.00000000
_symmetry_Int_Tables_number   1
_chemical_formula_structural   LiMn2F7
_chemical_formula_sum   'Li4 Mn8 F28'
_cell_volume   492.69373242
_cell_formula_units_Z   4
loop_
 _symmetry_equiv_pos_site_id
 _symmetry_equiv_pos_as_xyz
  1  'x, y, z'
loop_
 _atom_site_type_symbol
 _atom_site_label
 _atom_site_symmetry_multiplicity
 _atom_site_fract_x
 _atom_site_fract_y
 _atom_site_fract_z
 _atom_site_occupancy
  Li  Li0  1  0.75000000  0.75000000  0.00000000  1
  Li  Li1  1  0.75000000  0.25000000  0.50000000  1
  Li  Li2  1  0.25000000  0.25000000  0.00000000  1
  Li  Li3  1  0.25000000  0.75000000  0.50000000  1
  Mn  Mn4  1  0.60578000  0.24458100  0.78543500  1
  Mn  Mn5  1  0.60578000  0.75541900  0.28543500  1
  Mn  Mn6  1  0.89422000  0.74458100  0.71456500  1
  Mn  Mn7  1  0.89422000  0.25541900  0.21456500  1
  Mn  Mn8  1  0.10578000  0.74458100  0.78543500  1
  Mn  Mn9  1  0.10578000  0.25541900  0.28543500  1
  Mn  Mn10  1  0.39422000  0.24458100  0.71456500  1
  Mn  Mn11  1  0.39422000  0.75541900  0.21456500  1
  F  F12  1  0.57693200  0.06841700  0.05966300  1
  F  F13  1  0.57693200  0.93158300  0.55966300  1
  F  F14  1  0.63849100  0.57384400  0.00627500  1
  F  F15  1  0.63849100  0.42615600  0.50627500  1
  F  F16  1  0.70694450  0.89134250  0.30416300  1
  F  F17  1  0.70694450  0.10865750  0.80416300  1
  F  F18  1  0.79305550  0.39134250  0.19583700  1
  F  F19  1  0.79305550  0.60865750  0.69583700  1
  F  F20  1  0.86150900  0.07384400  0.49372500  1
  F  F21  1  0.86150900  0.92615600  0.99372500  1
  F  F22  1  0.92306800  0.56841700  0.44033700  1
  F  F23  1  0.92306800  0.43158300  0.94033700  1
  F  F24  1  0.00000000  0.88046300  0.75000000  1
  F  F25  1  0.00000000  0.11953700  0.25000000  1
  F  F26  1  0.07693200  0.56841700  0.05966300  1
  F  F27  1  0.07693200  0.43158300  0.55966300  1
  F  F28  1  0.13849100  0.07384400  0.00627500  1
  F  F29  1  0.13849100  0.92615600  0.50627500  1
  F  F30  1  0.20694450  0.39134250  0.30416300  1
  F  F31  1  0.20694450  0.60865750  0.80416300  1
  F  F32  1  0.29305550  0.89134250  0.19583700  1
  F  F33  1  0.29305550  0.10865750  0.69583700  1
  F  F34  1  0.36150900  0.57384400  0.49372500  1
  F  F35  1  0.36150900  0.42615600  0.99372500  1
  F  F36  1  0.42306800  0.06841700  0.44033700  1
  F  F37  1  0.42306800  0.93158300  0.94033700  1
  F  F38  1  0.50000000  0.38046300  0.75000000  1
  F  F39  1  0.50000000  0.61953700  0.25000000  1
