# generated using pymatgen
data_Cu2(SO4)3
_symmetry_space_group_name_H-M   'P 1'
_cell_length_a   8.18585344
_cell_length_b   8.18585344
_cell_length_c   22.34715726
_cell_angle_alpha   90.00000000
_cell_angle_beta   90.00000000
_cell_angle_gamma   120.00000000
_symmetry_Int_Tables_number   1
_chemical_formula_structural   Cu2(SO4)3
_chemical_formula_sum   'Cu12 S18 O72'
_cell_volume   1296.82342220
_cell_formula_units_Z   6
loop_
 _symmetry_equiv_pos_site_id
 _symmetry_equiv_pos_as_xyz
  1  'x, y, z'
loop_
 _atom_site_type_symbol
 _atom_site_label
 _atom_site_symmetry_multiplicity
 _atom_site_fract_x
 _atom_site_fract_y
 _atom_site_fract_z
 _atom_site_occupancy
  Cu  Cu0  1  0.00000000  0.00000000  0.14594800  1
  Cu  Cu1  1  0.33333333  0.66666667  0.01297767  1
  Cu  Cu2  1  0.33333333  0.66666667  0.32035567  1
  Cu  Cu3  1  0.66666667  0.33333333  0.18738533  1
  Cu  Cu4  1  0.66666667  0.33333333  0.47928133  1
  Cu  Cu5  1  0.00000000  0.00000000  0.34631100  1
  Cu  Cu6  1  0.00000000  0.00000000  0.65368900  1
  Cu  Cu7  1  0.33333333  0.66666667  0.52071867  1
  Cu  Cu8  1  0.33333333  0.66666667  0.81261467  1
  Cu  Cu9  1  0.66666667  0.33333333  0.67964433  1
  Cu  Cu10  1  0.66666667  0.33333333  0.98702233  1
  Cu  Cu11  1  0.00000000  0.00000000  0.85405200  1
  S  S12  1  0.95762600  0.33353000  0.08226300  1
  S  S13  1  0.29076267  0.29095933  0.25107033  1
  S  S14  1  0.00019667  0.70923733  0.25107033  1
  S  S15  1  0.66647000  0.62409600  0.08226300  1
  S  S16  1  0.37590400  0.04237400  0.08226300  1
  S  S17  1  0.70904067  0.99980333  0.25107033  1
  S  S18  1  0.62429267  0.66686333  0.41559633  1
  S  S19  1  0.95742933  0.62429267  0.58440367  1
  S  S20  1  0.66686333  0.04257067  0.58440367  1
  S  S21  1  0.33313667  0.95742933  0.41559633  1
  S  S22  1  0.04257067  0.37570733  0.41559633  1
  S  S23  1  0.37570733  0.33313667  0.58440367  1
  S  S24  1  0.29095933  0.00019667  0.74892967  1
  S  S25  1  0.62409600  0.95762600  0.91773700  1
  S  S26  1  0.33353000  0.37590400  0.91773700  1
  S  S27  1  0.99980333  0.29076267  0.74892967  1
  S  S28  1  0.70923733  0.70904067  0.74892967  1
  S  S29  1  0.04237400  0.66647000  0.91773700  1
  O  O30  1  0.90891933  0.76544867  0.29861167  1
  O  O31  1  0.85652933  0.09108067  0.29861167  1
  O  O32  1  0.87746867  0.34329233  0.14044033  1
  O  O33  1  0.04564133  0.21375467  0.08861967  1
  O  O34  1  0.23455133  0.14347067  0.29861167  1
  O  O35  1  0.88042133  0.50144667  0.24471367  1
  O  O36  1  0.20084300  0.21080200  0.19289300  1
  O  O37  1  0.10320933  0.52937267  0.06672567  1
  O  O38  1  0.24050333  0.43654267  0.26660767  1
  O  O39  1  0.00995900  0.79915700  0.19289300  1
  O  O40  1  0.49855333  0.37897467  0.24471367  1
  O  O41  1  0.19603933  0.75949667  0.26660767  1
  O  O42  1  0.47062733  0.57383667  0.06672567  1
  O  O43  1  0.16811333  0.95435867  0.08861967  1
  O  O44  1  0.65670767  0.53417633  0.14044033  1
  O  O45  1  0.42616333  0.89679067  0.06672567  1
  O  O46  1  0.56345733  0.80396067  0.26660767  1
  O  O47  1  0.46582367  0.12253133  0.14044033  1
  O  O48  1  0.78624533  0.83188667  0.08861967  1
  O  O49  1  0.43211533  0.18986267  0.03472167  1
  O  O50  1  0.62102533  0.11957867  0.24471367  1
  O  O51  1  0.78919800  0.99004100  0.19289300  1
  O  O52  1  0.81013733  0.24225267  0.03472167  1
  O  O53  1  0.75774733  0.56788467  0.03472167  1
  O  O54  1  0.57558600  0.09878200  0.63194500  1
  O  O55  1  0.52319600  0.42441400  0.63194500  1
  O  O56  1  0.54413533  0.67662567  0.47377367  1
  O  O57  1  0.71230800  0.54708800  0.42195300  1
  O  O58  1  0.90121800  0.47680400  0.63194500  1
  O  O59  1  0.54708800  0.83478000  0.57804700  1
  O  O60  1  0.86750967  0.54413533  0.52622633  1
  O  O61  1  0.76987600  0.86270600  0.40005900  1
  O  O62  1  0.90717000  0.76987600  0.59994100  1
  O  O63  1  0.67662567  0.13249033  0.52622633  1
  O  O64  1  0.16522000  0.71230800  0.57804700  1
  O  O65  1  0.86270600  0.09283000  0.59994100  1
  O  O66  1  0.13729400  0.90717000  0.40005900  1
  O  O67  1  0.83478000  0.28769200  0.42195300  1
  O  O68  1  0.32337433  0.86750967  0.47377367  1
  O  O69  1  0.09283000  0.23012400  0.40005900  1
  O  O70  1  0.23012400  0.13729400  0.59994100  1
  O  O71  1  0.13249033  0.45586467  0.47377367  1
  O  O72  1  0.45291200  0.16522000  0.42195300  1
  O  O73  1  0.09878200  0.52319600  0.36805500  1
  O  O74  1  0.28769200  0.45291200  0.57804700  1
  O  O75  1  0.45586467  0.32337433  0.52622633  1
  O  O76  1  0.47680400  0.57558600  0.36805500  1
  O  O77  1  0.42441400  0.90121800  0.36805500  1
  O  O78  1  0.24225267  0.43211533  0.96527833  1
  O  O79  1  0.18986267  0.75774733  0.96527833  1
  O  O80  1  0.21080200  0.00995900  0.80710700  1
  O  O81  1  0.37897467  0.88042133  0.75528633  1
  O  O82  1  0.56788467  0.81013733  0.96527833  1
  O  O83  1  0.21375467  0.16811333  0.91138033  1
  O  O84  1  0.53417633  0.87746867  0.85955967  1
  O  O85  1  0.43654267  0.19603933  0.73339233  1
  O  O86  1  0.57383667  0.10320933  0.93327433  1
  O  O87  1  0.34329233  0.46582367  0.85955967  1
  O  O88  1  0.83188667  0.04564133  0.91138033  1
  O  O89  1  0.52937267  0.42616333  0.93327433  1
  O  O90  1  0.80396067  0.24050333  0.73339233  1
  O  O91  1  0.50144667  0.62102533  0.75528633  1
  O  O92  1  0.99004100  0.20084300  0.80710700  1
  O  O93  1  0.75949667  0.56345733  0.73339233  1
  O  O94  1  0.89679067  0.47062733  0.93327433  1
  O  O95  1  0.79915700  0.78919800  0.80710700  1
  O  O96  1  0.11957867  0.49855333  0.75528633  1
  O  O97  1  0.76544867  0.85652933  0.70138833  1
  O  O98  1  0.95435867  0.78624533  0.91138033  1
  O  O99  1  0.12253133  0.65670767  0.85955967  1
  O  O100  1  0.14347067  0.90891933  0.70138833  1
  O  O101  1  0.09108067  0.23455133  0.70138833  1
