# generated using pymatgen
data_Lu(HO)3
_symmetry_space_group_name_H-M   'P 1'
_cell_length_a   10.41873200
_cell_length_b   6.07258200
_cell_length_c   14.43294113
_cell_angle_alpha   90.00000000
_cell_angle_beta   133.05396625
_cell_angle_gamma   90.00000000
_symmetry_Int_Tables_number   1
_chemical_formula_structural   Lu(HO)3
_chemical_formula_sum   'Lu8 H24 O24'
_cell_volume   667.25025206
_cell_formula_units_Z   8
loop_
 _symmetry_equiv_pos_site_id
 _symmetry_equiv_pos_as_xyz
  1  'x, y, z'
loop_
 _atom_site_type_symbol
 _atom_site_label
 _atom_site_symmetry_multiplicity
 _atom_site_fract_x
 _atom_site_fract_y
 _atom_site_fract_z
 _atom_site_occupancy
  Lu  Lu0  1  0.16973200  0.46590700  0.00200300  1
  Lu  Lu1  1  0.66389500  0.47451200  0.49783500  1
  Lu  Lu2  1  0.33610500  0.97451200  0.00216500  1
  Lu  Lu3  1  0.83026800  0.96590700  0.49799700  1
  Lu  Lu4  1  0.16973200  0.03409300  0.50200300  1
  Lu  Lu5  1  0.66389500  0.02548800  0.99783500  1
  Lu  Lu6  1  0.33610500  0.52548800  0.50216500  1
  Lu  Lu7  1  0.83026800  0.53409300  0.99799700  1
  H  H8  1  0.70201300  0.62990100  0.70126800  1
  H  H9  1  0.92096800  0.79299700  0.88666500  1
  H  H10  1  0.22994200  0.85124900  0.13114300  1
  H  H11  1  0.69881400  0.07226100  0.60631400  1
  H  H12  1  0.49499700  0.77530900  0.29210700  1
  H  H13  1  0.98686700  0.15398000  0.80040600  1
  H  H14  1  0.50500300  0.27530900  0.20789300  1
  H  H15  1  0.01313300  0.65398000  0.69959400  1
  H  H16  1  0.77005800  0.35124900  0.36885700  1
  H  H17  1  0.30118600  0.57226100  0.89368600  1
  H  H18  1  0.70201300  0.87009900  0.20126800  1
  H  H19  1  0.07903200  0.29299700  0.61333500  1
  H  H20  1  0.92096800  0.70700300  0.38666500  1
  H  H21  1  0.29798700  0.12990100  0.79873200  1
  H  H22  1  0.69881400  0.42773900  0.10631400  1
  H  H23  1  0.22994200  0.64875100  0.63114300  1
  H  H24  1  0.98686700  0.34602000  0.30040600  1
  H  H25  1  0.49499700  0.72469100  0.79210700  1
  H  H26  1  0.01313300  0.84602000  0.19959400  1
  H  H27  1  0.50500300  0.22469100  0.70789300  1
  H  H28  1  0.30118600  0.92773900  0.39368600  1
  H  H29  1  0.77005800  0.14875100  0.86885700  1
  H  H30  1  0.07903200  0.20700300  0.11333500  1
  H  H31  1  0.29798700  0.37009900  0.29873200  1
  O  O32  1  0.39054900  0.38548200  0.39108800  1
  O  O33  1  0.90956700  0.63682400  0.89349200  1
  O  O34  1  0.29500400  0.77873400  0.11413200  1
  O  O35  1  0.77682500  0.15113100  0.60297500  1
  O  O36  1  0.59540100  0.76916800  0.38438500  1
  O  O37  1  0.08092600  0.15543900  0.89324000  1
  O  O38  1  0.40459900  0.26916800  0.11561500  1
  O  O39  1  0.70499600  0.27873400  0.38586800  1
  O  O40  1  0.91907400  0.65543900  0.60676000  1
  O  O41  1  0.22317500  0.65113100  0.89702500  1
  O  O42  1  0.60945100  0.88548200  0.10891200  1
  O  O43  1  0.09043300  0.13682400  0.60650800  1
  O  O44  1  0.90956700  0.86317600  0.39349200  1
  O  O45  1  0.39054900  0.11451800  0.89108800  1
  O  O46  1  0.77682500  0.34886900  0.10297500  1
  O  O47  1  0.08092600  0.34456100  0.39324000  1
  O  O48  1  0.29500400  0.72126600  0.61413200  1
  O  O49  1  0.59540100  0.73083200  0.88438500  1
  O  O50  1  0.91907400  0.84456100  0.10676000  1
  O  O51  1  0.40459900  0.23083200  0.61561500  1
  O  O52  1  0.22317500  0.84886900  0.39702500  1
  O  O53  1  0.70499600  0.22126600  0.88586800  1
  O  O54  1  0.09043300  0.36317600  0.10650800  1
  O  O55  1  0.60945100  0.61451800  0.60891200  1
