# generated using pymatgen
data_KErHSe2O9
_symmetry_space_group_name_H-M   'P 1'
_cell_length_a   5.76168000
_cell_length_b   8.61216742
_cell_length_c   9.40356654
_cell_angle_alpha   70.29176380
_cell_angle_beta   84.25739813
_cell_angle_gamma   74.65289882
_symmetry_Int_Tables_number   1
_chemical_formula_structural   KErHSe2O9
_chemical_formula_sum   'K2 Er2 H2 Se4 O18'
_cell_volume   423.58255879
_cell_formula_units_Z   2
loop_
 _symmetry_equiv_pos_site_id
 _symmetry_equiv_pos_as_xyz
  1  'x, y, z'
loop_
 _atom_site_type_symbol
 _atom_site_label
 _atom_site_symmetry_multiplicity
 _atom_site_fract_x
 _atom_site_fract_y
 _atom_site_fract_z
 _atom_site_occupancy
  K  K0  1  0.23520600  0.77901800  0.98338100  1
  K  K1  1  0.76479400  0.22098200  0.01661900  1
  Er  Er2  1  0.64407800  0.63092300  0.60602800  1
  Er  Er3  1  0.35592200  0.36907700  0.39397200  1
  H  H4  1  0.32506100  0.10221300  0.26092100  1
  H  H5  1  0.67493900  0.89778700  0.73907900  1
  Se  Se6  1  0.11317600  0.82717600  0.36972100  1
  Se  Se7  1  0.88682400  0.17282400  0.63027900  1
  Se  Se8  1  0.78326300  0.55121600  0.21605800  1
  Se  Se9  1  0.21673700  0.44878400  0.78394200  1
  O  O10  1  0.19931600  0.66261800  0.30127000  1
  O  O11  1  0.80068400  0.33738200  0.69873000  1
  O  O12  1  0.09728000  0.00403900  0.22551200  1
  O  O13  1  0.90272000  0.99596100  0.77448800  1
  O  O14  1  0.68638600  0.18109700  0.50921600  1
  O  O15  1  0.31361400  0.81890300  0.49078400  1
  O  O16  1  0.14964300  0.18048400  0.53919300  1
  O  O17  1  0.85035700  0.81951600  0.46080700  1
  O  O18  1  0.74182900  0.74771600  0.10082900  1
  O  O19  1  0.25817100  0.25228400  0.89917100  1
  O  O20  1  0.58972300  0.45494700  0.17677100  1
  O  O21  1  0.41027700  0.54505300  0.82322900  1
  O  O22  1  0.71226500  0.53346800  0.39984900  1
  O  O23  1  0.28773500  0.46653200  0.60015100  1
  O  O24  1  0.06560600  0.43338800  0.20838300  1
  O  O25  1  0.93439400  0.56661200  0.79161700  1
  O  O26  1  0.45426700  0.15717300  0.26801300  1
  O  O27  1  0.54573300  0.84282700  0.73198700  1
