# generated using pymatgen
data_Sb7(O2F3)3
_symmetry_space_group_name_H-M   'P 1'
_cell_length_a   6.08740200
_cell_length_b   44.33373600
_cell_length_c   5.82519800
_cell_angle_alpha   90.00000000
_cell_angle_beta   90.00000000
_cell_angle_gamma   90.00000000
_symmetry_Int_Tables_number   1
_chemical_formula_structural   Sb7(O2F3)3
_chemical_formula_sum   'Sb28 O24 F36'
_cell_volume   1572.08855205
_cell_formula_units_Z   4
loop_
 _symmetry_equiv_pos_site_id
 _symmetry_equiv_pos_as_xyz
  1  'x, y, z'
loop_
 _atom_site_type_symbol
 _atom_site_label
 _atom_site_symmetry_multiplicity
 _atom_site_fract_x
 _atom_site_fract_y
 _atom_site_fract_z
 _atom_site_occupancy
  Sb  Sb0  1  0.35852850  0.17305850  0.30439000  1
  Sb  Sb1  1  0.35852850  0.32694150  0.30439000  1
  Sb  Sb2  1  0.32855650  0.02576750  0.25053900  1
  Sb  Sb3  1  0.32855650  0.47423250  0.25053900  1
  Sb  Sb4  1  0.73239500  0.25000000  0.27119900  1
  Sb  Sb5  1  0.63993650  0.10444250  0.31687100  1
  Sb  Sb6  1  0.63993650  0.39555750  0.31687100  1
  Sb  Sb7  1  0.13993650  0.39555750  0.68312900  1
  Sb  Sb8  1  0.13993650  0.10444250  0.68312900  1
  Sb  Sb9  1  0.23239500  0.25000000  0.72880100  1
  Sb  Sb10  1  0.82855650  0.02576750  0.74946100  1
  Sb  Sb11  1  0.82855650  0.47423250  0.74946100  1
  Sb  Sb12  1  0.85852850  0.17305850  0.69561000  1
  Sb  Sb13  1  0.85852850  0.32694150  0.69561000  1
  Sb  Sb14  1  0.85852850  0.67305850  0.30439000  1
  Sb  Sb15  1  0.85852850  0.82694150  0.30439000  1
  Sb  Sb16  1  0.82855650  0.52576750  0.25053900  1
  Sb  Sb17  1  0.82855650  0.97423250  0.25053900  1
  Sb  Sb18  1  0.23239500  0.75000000  0.27119900  1
  Sb  Sb19  1  0.13993650  0.60444250  0.31687100  1
  Sb  Sb20  1  0.13993650  0.89555750  0.31687100  1
  Sb  Sb21  1  0.63993650  0.89555750  0.68312900  1
  Sb  Sb22  1  0.63993650  0.60444250  0.68312900  1
  Sb  Sb23  1  0.73239500  0.75000000  0.72880100  1
  Sb  Sb24  1  0.32855650  0.52576750  0.74946100  1
  Sb  Sb25  1  0.32855650  0.97423250  0.74946100  1
  Sb  Sb26  1  0.35852850  0.67305850  0.69561000  1
  Sb  Sb27  1  0.35852850  0.82694150  0.69561000  1
  O  O28  1  0.95779700  0.00000000  0.00000000  1
  O  O29  1  0.45779700  0.00000000  0.00000000  1
  O  O30  1  0.08402450  0.14681550  0.53375300  1
  O  O31  1  0.08402450  0.35318450  0.53375300  1
  O  O32  1  0.85658750  0.08917650  0.55189100  1
  O  O33  1  0.85658750  0.41082350  0.55189100  1
  O  O34  1  0.46407100  0.00000000  0.50000000  1
  O  O35  1  0.96407100  0.00000000  0.50000000  1
  O  O36  1  0.35658750  0.41082350  0.44810900  1
  O  O37  1  0.35658750  0.08917650  0.44810900  1
  O  O38  1  0.58402450  0.14681550  0.46624700  1
  O  O39  1  0.58402450  0.35318450  0.46624700  1
  O  O40  1  0.45779700  0.50000000  0.00000000  1
  O  O41  1  0.95779700  0.50000000  0.00000000  1
  O  O42  1  0.58402450  0.64681550  0.53375300  1
  O  O43  1  0.58402450  0.85318450  0.53375300  1
  O  O44  1  0.35658750  0.58917650  0.55189100  1
  O  O45  1  0.35658750  0.91082350  0.55189100  1
  O  O46  1  0.96407100  0.50000000  0.50000000  1
  O  O47  1  0.46407100  0.50000000  0.50000000  1
  O  O48  1  0.85658750  0.91082350  0.44810900  1
  O  O49  1  0.85658750  0.58917650  0.44810900  1
  O  O50  1  0.08402450  0.64681550  0.46624700  1
  O  O51  1  0.08402450  0.85318450  0.46624700  1
  F  F52  1  0.63010050  0.04554850  0.23150700  1
  F  F53  1  0.63010050  0.45445150  0.23150700  1
  F  F54  1  0.34061750  0.14057550  0.07328000  1
  F  F55  1  0.34061750  0.35942450  0.07328000  1
  F  F56  1  0.37619700  0.25000000  0.02935900  1
  F  F57  1  0.61627700  0.30548600  0.13587200  1
  F  F58  1  0.61627700  0.19451400  0.13587200  1
  F  F59  1  0.95737750  0.22013750  0.39067200  1
  F  F60  1  0.95737750  0.27986250  0.39067200  1
  F  F61  1  0.45737750  0.22013750  0.60932800  1
  F  F62  1  0.45737750  0.27986250  0.60932800  1
  F  F63  1  0.11627700  0.19451400  0.86412800  1
  F  F64  1  0.11627700  0.30548600  0.86412800  1
  F  F65  1  0.87619700  0.25000000  0.97064100  1
  F  F66  1  0.84061750  0.14057550  0.92672000  1
  F  F67  1  0.84061750  0.35942450  0.92672000  1
  F  F68  1  0.13010050  0.04554850  0.76849300  1
  F  F69  1  0.13010050  0.45445150  0.76849300  1
  F  F70  1  0.13010050  0.54554850  0.23150700  1
  F  F71  1  0.13010050  0.95445150  0.23150700  1
  F  F72  1  0.84061750  0.64057550  0.07328000  1
  F  F73  1  0.84061750  0.85942450  0.07328000  1
  F  F74  1  0.87619700  0.75000000  0.02935900  1
  F  F75  1  0.11627700  0.80548600  0.13587200  1
  F  F76  1  0.11627700  0.69451400  0.13587200  1
  F  F77  1  0.45737750  0.72013750  0.39067200  1
  F  F78  1  0.45737750  0.77986250  0.39067200  1
  F  F79  1  0.95737750  0.72013750  0.60932800  1
  F  F80  1  0.95737750  0.77986250  0.60932800  1
  F  F81  1  0.61627700  0.69451400  0.86412800  1
  F  F82  1  0.61627700  0.80548600  0.86412800  1
  F  F83  1  0.37619700  0.75000000  0.97064100  1
  F  F84  1  0.34061750  0.64057550  0.92672000  1
  F  F85  1  0.34061750  0.85942450  0.92672000  1
  F  F86  1  0.63010050  0.54554850  0.76849300  1
  F  F87  1  0.63010050  0.95445150  0.76849300  1
