# generated using pymatgen
data_Li2NbS3
_symmetry_space_group_name_H-M   'P 1'
_cell_length_a   6.24603600
_cell_length_b   10.72085000
_cell_length_c   12.46371516
_cell_angle_alpha   90.00000000
_cell_angle_beta   101.13750321
_cell_angle_gamma   90.00000000
_symmetry_Int_Tables_number   1
_chemical_formula_structural   Li2NbS3
_chemical_formula_sum   'Li16 Nb8 S24'
_cell_volume   818.88685903
_cell_formula_units_Z   8
loop_
 _symmetry_equiv_pos_site_id
 _symmetry_equiv_pos_as_xyz
  1  'x, y, z'
loop_
 _atom_site_type_symbol
 _atom_site_label
 _atom_site_symmetry_multiplicity
 _atom_site_fract_x
 _atom_site_fract_y
 _atom_site_fract_z
 _atom_site_occupancy
  Li  Li0  1  0.23510900  0.91253000  0.99943700  1
  Li  Li1  1  0.75000000  0.25000000  0.50000000  1
  Li  Li2  1  0.50000000  0.58709100  0.75000000  1
  Li  Li3  1  0.75000000  0.75000000  0.00000000  1
  Li  Li4  1  0.76489100  0.91253000  0.50056300  1
  Li  Li5  1  0.23510900  0.08747000  0.49943700  1
  Li  Li6  1  0.50000000  0.41290900  0.25000000  1
  Li  Li7  1  0.76489100  0.08747000  0.00056300  1
  Li  Li8  1  0.73510900  0.41253000  0.99943700  1
  Li  Li9  1  0.25000000  0.75000000  0.50000000  1
  Li  Li10  1  0.00000000  0.08709100  0.75000000  1
  Li  Li11  1  0.25000000  0.25000000  0.00000000  1
  Li  Li12  1  0.26489100  0.41253000  0.50056300  1
  Li  Li13  1  0.73510900  0.58747000  0.49943700  1
  Li  Li14  1  0.00000000  0.91290900  0.25000000  1
  Li  Li15  1  0.26489100  0.58747000  0.00056300  1
  Nb  Nb16  1  0.50000000  0.77250900  0.25000000  1
  Nb  Nb17  1  0.50000000  0.94594400  0.75000000  1
  Nb  Nb18  1  0.50000000  0.05405600  0.25000000  1
  Nb  Nb19  1  0.50000000  0.22749100  0.75000000  1
  Nb  Nb20  1  0.00000000  0.27250900  0.25000000  1
  Nb  Nb21  1  0.00000000  0.44594400  0.75000000  1
  Nb  Nb22  1  0.00000000  0.55405600  0.25000000  1
  Nb  Nb23  1  0.00000000  0.72749100  0.75000000  1
  S  S24  1  0.13825500  0.91229000  0.63523600  1
  S  S25  1  0.38141250  0.91376550  0.38009100  1
  S  S26  1  0.36189050  0.76119350  0.86423400  1
  S  S27  1  0.61858750  0.91376550  0.11990900  1
  S  S28  1  0.13825500  0.08771000  0.13523600  1
  S  S29  1  0.36189050  0.23880650  0.36423400  1
  S  S30  1  0.63810950  0.76119350  0.63576600  1
  S  S31  1  0.86174500  0.91229000  0.86476400  1
  S  S32  1  0.38141250  0.08623450  0.88009100  1
  S  S33  1  0.63810950  0.23880650  0.13576600  1
  S  S34  1  0.61858750  0.08623450  0.61990900  1
  S  S35  1  0.86174500  0.08771000  0.36476400  1
  S  S36  1  0.63825500  0.41229000  0.63523600  1
  S  S37  1  0.88141250  0.41376550  0.38009100  1
  S  S38  1  0.86189050  0.26119350  0.86423400  1
  S  S39  1  0.11858750  0.41376550  0.11990900  1
  S  S40  1  0.63825500  0.58771000  0.13523600  1
  S  S41  1  0.86189050  0.73880650  0.36423400  1
  S  S42  1  0.13810950  0.26119350  0.63576600  1
  S  S43  1  0.36174500  0.41229000  0.86476400  1
  S  S44  1  0.88141250  0.58623450  0.88009100  1
  S  S45  1  0.13810950  0.73880650  0.13576600  1
  S  S46  1  0.11858750  0.58623450  0.61990900  1
  S  S47  1  0.36174500  0.58771000  0.36476400  1
