# generated using pymatgen
data_Li3V2(O2F)2
_symmetry_space_group_name_H-M   'P 1'
_cell_length_a   5.28340534
_cell_length_b   5.89211982
_cell_length_c   7.81172656
_cell_angle_alpha   99.70585246
_cell_angle_beta   106.76760403
_cell_angle_gamma   91.38468044
_symmetry_Int_Tables_number   1
_chemical_formula_structural   Li3V2(O2F)2
_chemical_formula_sum   'Li6 V4 O8 F4'
_cell_volume   228.82645968
_cell_formula_units_Z   2
loop_
 _symmetry_equiv_pos_site_id
 _symmetry_equiv_pos_as_xyz
  1  'x, y, z'
loop_
 _atom_site_type_symbol
 _atom_site_label
 _atom_site_symmetry_multiplicity
 _atom_site_fract_x
 _atom_site_fract_y
 _atom_site_fract_z
 _atom_site_occupancy
  Li  Li0  1  0.37046450  0.81774200  0.38102400  1
  Li  Li1  1  0.62953550  0.18225800  0.61897600  1
  Li  Li2  1  0.12225850  0.90477050  0.64610200  1
  Li  Li3  1  0.87774150  0.09522950  0.35389800  1
  Li  Li4  1  0.82667700  0.58903000  0.37009400  1
  Li  Li5  1  0.17332300  0.41097000  0.62990600  1
  V  V6  1  0.00000000  0.00000000  0.00000000  1
  V  V7  1  0.00000000  0.50000000  0.00000000  1
  V  V8  1  0.50279700  0.74873550  0.98819300  1
  V  V9  1  0.49720300  0.25126450  0.01180700  1
  O  O10  1  0.58826700  0.96549700  0.86008400  1
  O  O11  1  0.41173300  0.03450300  0.13991600  1
  O  O12  1  0.88768500  0.78153450  0.13955300  1
  O  O13  1  0.11231500  0.21846550  0.86044700  1
  O  O14  1  0.11649000  0.72052750  0.86025700  1
  O  O15  1  0.88351000  0.27947250  0.13974300  1
  O  O16  1  0.41181500  0.54898700  0.14144100  1
  O  O17  1  0.58818500  0.45101300  0.85855900  1
  F  F18  1  0.74553200  0.89081150  0.49051200  1
  F  F19  1  0.25446800  0.10918850  0.50948800  1
  F  F20  1  0.20074800  0.64322000  0.49748000  1
  F  F21  1  0.79925200  0.35678000  0.50252000  1
