# generated using pymatgen
data_RbB3Te2O9
_symmetry_space_group_name_H-M   'P 1'
_cell_length_a   6.24648700
_cell_length_b   5.69515600
_cell_length_c   13.56357822
_cell_angle_alpha   90.00000000
_cell_angle_beta   104.30290145
_cell_angle_gamma   90.00000000
_symmetry_Int_Tables_number   1
_chemical_formula_structural   RbB3Te2O9
_chemical_formula_sum   'Rb2 B6 Te4 O18'
_cell_volume   467.56388937
_cell_formula_units_Z   2
loop_
 _symmetry_equiv_pos_site_id
 _symmetry_equiv_pos_as_xyz
  1  'x, y, z'
loop_
 _atom_site_type_symbol
 _atom_site_label
 _atom_site_symmetry_multiplicity
 _atom_site_fract_x
 _atom_site_fract_y
 _atom_site_fract_z
 _atom_site_occupancy
  Rb  Rb0  1  0.00000000  0.32414700  0.25000000  1
  Rb  Rb1  1  0.00000000  0.67585300  0.75000000  1
  B  B2  1  0.80085100  0.84313200  0.05773100  1
  B  B3  1  0.80085100  0.15686800  0.55773100  1
  B  B4  1  0.50000000  0.83930900  0.25000000  1
  B  B5  1  0.50000000  0.16069100  0.75000000  1
  B  B6  1  0.19914900  0.84313200  0.44226900  1
  B  B7  1  0.19914900  0.15686800  0.94226900  1
  Te  Te8  1  0.70268600  0.70523800  0.43536900  1
  Te  Te9  1  0.70268600  0.29476200  0.93536900  1
  Te  Te10  1  0.29731400  0.70523800  0.06463100  1
  Te  Te11  1  0.29731400  0.29476200  0.56463100  1
  O  O12  1  0.97936900  0.69980400  0.09531100  1
  O  O13  1  0.97936900  0.30019600  0.59531100  1
  O  O14  1  0.83604400  0.08631700  0.05017000  1
  O  O15  1  0.83604400  0.91368300  0.55017000  1
  O  O16  1  0.59564700  0.25800500  0.52979000  1
  O  O17  1  0.59564700  0.74199500  0.02979000  1
  O  O18  1  0.61978200  0.96384400  0.33524600  1
  O  O19  1  0.61978200  0.03615600  0.83524600  1
  O  O20  1  0.50000000  0.60154300  0.25000000  1
  O  O21  1  0.50000000  0.39845700  0.75000000  1
  O  O22  1  0.38021800  0.96384400  0.16475400  1
  O  O23  1  0.38021800  0.03615600  0.66475400  1
  O  O24  1  0.40435300  0.25800500  0.97021000  1
  O  O25  1  0.40435300  0.74199500  0.47021000  1
  O  O26  1  0.16395600  0.08631700  0.44983000  1
  O  O27  1  0.16395600  0.91368300  0.94983000  1
  O  O28  1  0.02063100  0.69980400  0.40468900  1
  O  O29  1  0.02063100  0.30019600  0.90468900  1
