# generated using pymatgen
data_NaMnPCO7
_symmetry_space_group_name_H-M   'P 1'
_cell_length_a   8.10642200
_cell_length_b   8.12357198
_cell_length_c   10.33602927
_cell_angle_alpha   107.50231205
_cell_angle_beta   107.50910263
_cell_angle_gamma   100.47186528
_symmetry_Int_Tables_number   1
_chemical_formula_structural   NaMnPCO7
_chemical_formula_sum   'Na4 Mn4 P4 C4 O28'
_cell_volume   590.69071343
_cell_formula_units_Z   4
loop_
 _symmetry_equiv_pos_site_id
 _symmetry_equiv_pos_as_xyz
  1  'x, y, z'
loop_
 _atom_site_type_symbol
 _atom_site_label
 _atom_site_symmetry_multiplicity
 _atom_site_fract_x
 _atom_site_fract_y
 _atom_site_fract_z
 _atom_site_occupancy
  Na  Na0  1  0.26727400  0.22622800  0.24561100  1
  Na  Na1  1  0.97542500  0.51488000  0.24502600  1
  Na  Na2  1  0.02457500  0.48512000  0.75497400  1
  Na  Na3  1  0.73272600  0.77377200  0.75438900  1
  Mn  Mn4  1  0.93101500  0.18041900  0.34354900  1
  Mn  Mn5  1  0.44361800  0.69393700  0.33932900  1
  Mn  Mn6  1  0.55638200  0.30606300  0.66067100  1
  Mn  Mn7  1  0.06898500  0.81958100  0.65645100  1
  P  P8  1  0.20069500  0.94824600  0.43005400  1
  P  P9  1  0.69667700  0.44865500  0.43300900  1
  P  P10  1  0.30332300  0.55134500  0.56699100  1
  P  P11  1  0.79930500  0.05175400  0.56994600  1
  C  C12  1  0.77466900  0.03125800  0.07760000  1
  C  C13  1  0.28079800  0.52487700  0.07560000  1
  C  C14  1  0.71920200  0.47512300  0.92440000  1
  C  C15  1  0.22533100  0.96874200  0.92240000  1
  O  O16  1  0.30552800  0.04587800  0.05645300  1
  O  O17  1  0.80219800  0.56074500  0.05653200  1
  O  O18  1  0.42232000  0.66832300  0.13711500  1
  O  O19  1  0.92117800  0.17462100  0.14427300  1
  O  O20  1  0.72794700  0.98296600  0.17481100  1
  O  O21  1  0.23600700  0.48241300  0.17863600  1
  O  O22  1  0.27138300  0.82757000  0.32547000  1
  O  O23  1  0.09026400  0.03310900  0.33116600  1
  O  O24  1  0.78589500  0.34239900  0.33594600  1
  O  O25  1  0.58192500  0.52525700  0.33035400  1
  O  O26  1  0.15820400  0.40416800  0.42346700  1
  O  O27  1  0.56964900  0.32185400  0.47277700  1
  O  O28  1  0.07169600  0.82092400  0.46916400  1
  O  O29  1  0.65230400  0.90872800  0.42874100  1
  O  O30  1  0.34769600  0.09127200  0.57125900  1
  O  O31  1  0.43035100  0.67814600  0.52722300  1
  O  O32  1  0.92830400  0.17907600  0.53083600  1
  O  O33  1  0.84179600  0.59583200  0.57653300  1
  O  O34  1  0.21410500  0.65760100  0.66405400  1
  O  O35  1  0.41807500  0.47474300  0.66964600  1
  O  O36  1  0.72861700  0.17243000  0.67453000  1
  O  O37  1  0.90973600  0.96689100  0.66883400  1
  O  O38  1  0.76399300  0.51758700  0.82136400  1
  O  O39  1  0.27205300  0.01703400  0.82518900  1
  O  O40  1  0.57768000  0.33167700  0.86288500  1
  O  O41  1  0.07882200  0.82537900  0.85572700  1
  O  O42  1  0.69447200  0.95412200  0.94354700  1
  O  O43  1  0.19780200  0.43925500  0.94346800  1
