# generated using pymatgen
data_Sr3Ta2O8
_symmetry_space_group_name_H-M   'P 1'
_cell_length_a   10.51325400
_cell_length_b   9.20941200
_cell_length_c   9.43596400
_cell_angle_alpha   90.00000000
_cell_angle_beta   112.96487939
_cell_angle_gamma   90.00000000
_symmetry_Int_Tables_number   1
_chemical_formula_structural   Sr3Ta2O8
_chemical_formula_sum   'Sr12 Ta8 O32'
_cell_volume   841.19042448
_cell_formula_units_Z   4
loop_
 _symmetry_equiv_pos_site_id
 _symmetry_equiv_pos_as_xyz
  1  'x, y, z'
loop_
 _atom_site_type_symbol
 _atom_site_label
 _atom_site_symmetry_multiplicity
 _atom_site_fract_x
 _atom_site_fract_y
 _atom_site_fract_z
 _atom_site_occupancy
  Sr  Sr0  1  0.82418150  0.56125750  0.49680300  1
  Sr  Sr1  1  0.00000000  0.27648600  0.75000000  1
  Sr  Sr2  1  0.17581850  0.56125750  0.00319700  1
  Sr  Sr3  1  0.82418150  0.43874250  0.99680300  1
  Sr  Sr4  1  0.00000000  0.72351400  0.25000000  1
  Sr  Sr5  1  0.17581850  0.43874250  0.50319700  1
  Sr  Sr6  1  0.32418150  0.06125750  0.49680300  1
  Sr  Sr7  1  0.50000000  0.77648600  0.75000000  1
  Sr  Sr8  1  0.67581850  0.06125750  0.00319700  1
  Sr  Sr9  1  0.32418150  0.93874250  0.99680300  1
  Sr  Sr10  1  0.50000000  0.22351400  0.25000000  1
  Sr  Sr11  1  0.67581850  0.93874250  0.50319700  1
  Ta  Ta12  1  0.93078800  0.86015600  0.88034800  1
  Ta  Ta13  1  0.93078800  0.13984400  0.38034800  1
  Ta  Ta14  1  0.06921200  0.86015600  0.61965200  1
  Ta  Ta15  1  0.06921200  0.13984400  0.11965200  1
  Ta  Ta16  1  0.43078800  0.36015600  0.88034800  1
  Ta  Ta17  1  0.43078800  0.63984400  0.38034800  1
  Ta  Ta18  1  0.56921200  0.36015600  0.61965200  1
  Ta  Ta19  1  0.56921200  0.63984400  0.11965200  1
  O  O20  1  0.11612750  0.81884050  0.85131200  1
  O  O21  1  0.11612750  0.18115950  0.35131200  1
  O  O22  1  0.76372300  0.39749600  0.67952600  1
  O  O23  1  0.94335450  0.66606250  0.96463300  1
  O  O24  1  0.97671200  0.07787800  0.89236700  1
  O  O25  1  0.76372300  0.60250400  0.17952600  1
  O  O26  1  0.94335450  0.33393750  0.46463300  1
  O  O27  1  0.02328800  0.07787800  0.60763300  1
  O  O28  1  0.97671200  0.92212200  0.39236700  1
  O  O29  1  0.05664550  0.66606250  0.53536700  1
  O  O30  1  0.23627700  0.39749600  0.82047400  1
  O  O31  1  0.02328800  0.92212200  0.10763300  1
  O  O32  1  0.05664550  0.33393750  0.03536700  1
  O  O33  1  0.23627700  0.60250400  0.32047400  1
  O  O34  1  0.88387250  0.81884050  0.64868800  1
  O  O35  1  0.88387250  0.18115950  0.14868800  1
  O  O36  1  0.61612750  0.31884050  0.85131200  1
  O  O37  1  0.61612750  0.68115950  0.35131200  1
  O  O38  1  0.26372300  0.89749600  0.67952600  1
  O  O39  1  0.44335450  0.16606250  0.96463300  1
  O  O40  1  0.47671200  0.57787800  0.89236700  1
  O  O41  1  0.26372300  0.10250400  0.17952600  1
  O  O42  1  0.44335450  0.83393750  0.46463300  1
  O  O43  1  0.52328800  0.57787800  0.60763300  1
  O  O44  1  0.47671200  0.42212200  0.39236700  1
  O  O45  1  0.55664550  0.16606250  0.53536700  1
  O  O46  1  0.73627700  0.89749600  0.82047400  1
  O  O47  1  0.52328800  0.42212200  0.10763300  1
  O  O48  1  0.55664550  0.83393750  0.03536700  1
  O  O49  1  0.73627700  0.10250400  0.32047400  1
  O  O50  1  0.38387250  0.31884050  0.64868800  1
  O  O51  1  0.38387250  0.68115950  0.14868800  1
