# generated using pymatgen
data_Tm(HO)3
_symmetry_space_group_name_H-M   'P 1'
_cell_length_a   5.32090900
_cell_length_b   10.23833100
_cell_length_c   6.20777605
_cell_angle_alpha   90.00000000
_cell_angle_beta   95.75062105
_cell_angle_gamma   90.00000000
_symmetry_Int_Tables_number   1
_chemical_formula_structural   Tm(HO)3
_chemical_formula_sum   'Tm4 H12 O12'
_cell_volume   336.48050275
_cell_formula_units_Z   4
loop_
 _symmetry_equiv_pos_site_id
 _symmetry_equiv_pos_as_xyz
  1  'x, y, z'
loop_
 _atom_site_type_symbol
 _atom_site_label
 _atom_site_symmetry_multiplicity
 _atom_site_fract_x
 _atom_site_fract_y
 _atom_site_fract_z
 _atom_site_occupancy
  Tm  Tm0  1  0.00935600  0.32980600  0.96008900  1
  Tm  Tm1  1  0.99064400  0.82980600  0.53991100  1
  Tm  Tm2  1  0.00935600  0.17019400  0.46008900  1
  Tm  Tm3  1  0.99064400  0.67019400  0.03991100  1
  H  H4  1  0.58750900  0.80677100  0.81258000  1
  H  H5  1  0.24068400  0.02520900  0.80566600  1
  H  H6  1  0.31109500  0.61184600  0.73068100  1
  H  H7  1  0.68890500  0.11184600  0.76931900  1
  H  H8  1  0.75931600  0.52520900  0.69433400  1
  H  H9  1  0.41249100  0.30677100  0.68742000  1
  H  H10  1  0.58750900  0.69322900  0.31258000  1
  H  H11  1  0.24068400  0.47479100  0.30566600  1
  H  H12  1  0.31109500  0.88815400  0.23068100  1
  H  H13  1  0.68890500  0.38815400  0.26931900  1
  H  H14  1  0.75931600  0.97479100  0.19433400  1
  H  H15  1  0.41249100  0.19322900  0.18742000  1
  O  O16  1  0.79179300  0.50682300  0.84835400  1
  O  O17  1  0.77116900  0.81879400  0.82983400  1
  O  O18  1  0.77673900  0.19330800  0.74513800  1
  O  O19  1  0.22326100  0.69330800  0.75486200  1
  O  O20  1  0.22883100  0.31879400  0.67016600  1
  O  O21  1  0.20820700  0.00682300  0.65164600  1
  O  O22  1  0.79179300  0.99317700  0.34835400  1
  O  O23  1  0.77116900  0.68120600  0.32983400  1
  O  O24  1  0.77673900  0.30669200  0.24513800  1
  O  O25  1  0.22326100  0.80669200  0.25486200  1
  O  O26  1  0.22883100  0.18120600  0.17016600  1
  O  O27  1  0.20820700  0.49317700  0.15164600  1
