# generated using pymatgen
data_RbNa3Li12Ti4O16
_symmetry_space_group_name_H-M   'P 1'
_cell_length_a   11.38509000
_cell_length_b   11.38509000
_cell_length_c   6.59601200
_cell_angle_alpha   90.00000000
_cell_angle_beta   90.00000000
_cell_angle_gamma   90.00000000
_symmetry_Int_Tables_number   1
_chemical_formula_structural   RbNa3Li12Ti4O16
_chemical_formula_sum   'Rb2 Na6 Li24 Ti8 O32'
_cell_volume   854.97688478
_cell_formula_units_Z   2
loop_
 _symmetry_equiv_pos_site_id
 _symmetry_equiv_pos_as_xyz
  1  'x, y, z'
loop_
 _atom_site_type_symbol
 _atom_site_label
 _atom_site_symmetry_multiplicity
 _atom_site_fract_x
 _atom_site_fract_y
 _atom_site_fract_z
 _atom_site_occupancy
  Rb  Rb0  1  0.00000000  0.00000000  0.00000000  1
  Rb  Rb1  1  0.50000000  0.50000000  0.50000000  1
  Na  Na2  1  0.00000000  0.00000000  0.50000000  1
  Na  Na3  1  0.50000000  0.00000000  0.75000000  1
  Na  Na4  1  0.50000000  0.00000000  0.25000000  1
  Na  Na5  1  0.50000000  0.50000000  0.00000000  1
  Na  Na6  1  0.00000000  0.50000000  0.25000000  1
  Na  Na7  1  0.00000000  0.50000000  0.75000000  1
  Li  Li8  1  0.41863200  0.77885200  0.50000000  1
  Li  Li9  1  0.40280900  0.27001400  0.74681800  1
  Li  Li10  1  0.40280900  0.27001400  0.25318200  1
  Li  Li11  1  0.27885200  0.08136800  0.00000000  1
  Li  Li12  1  0.77001400  0.09719100  0.24681800  1
  Li  Li13  1  0.77001400  0.09719100  0.75318200  1
  Li  Li14  1  0.22998600  0.90280900  0.24681800  1
  Li  Li15  1  0.22998600  0.90280900  0.75318200  1
  Li  Li16  1  0.72114800  0.91863200  0.00000000  1
  Li  Li17  1  0.59719100  0.72998600  0.25318200  1
  Li  Li18  1  0.59719100  0.72998600  0.74681800  1
  Li  Li19  1  0.58136800  0.22114800  0.50000000  1
  Li  Li20  1  0.91863200  0.27885200  0.00000000  1
  Li  Li21  1  0.90280900  0.77001400  0.24681800  1
  Li  Li22  1  0.90280900  0.77001400  0.75318200  1
  Li  Li23  1  0.77885200  0.58136800  0.50000000  1
  Li  Li24  1  0.27001400  0.59719100  0.74681800  1
  Li  Li25  1  0.27001400  0.59719100  0.25318200  1
  Li  Li26  1  0.72998600  0.40280900  0.74681800  1
  Li  Li27  1  0.72998600  0.40280900  0.25318200  1
  Li  Li28  1  0.22114800  0.41863200  0.50000000  1
  Li  Li29  1  0.09719100  0.22998600  0.75318200  1
  Li  Li30  1  0.09719100  0.22998600  0.24681800  1
  Li  Li31  1  0.08136800  0.72114800  0.00000000  1
  Ti  Ti32  1  0.58053100  0.22266400  0.00000000  1
  Ti  Ti33  1  0.27733600  0.08053100  0.50000000  1
  Ti  Ti34  1  0.72266400  0.91946900  0.50000000  1
  Ti  Ti35  1  0.41946900  0.77733600  0.00000000  1
  Ti  Ti36  1  0.08053100  0.72266400  0.50000000  1
  Ti  Ti37  1  0.77733600  0.58053100  0.00000000  1
  Ti  Ti38  1  0.22266400  0.41946900  0.00000000  1
  Ti  Ti39  1  0.91946900  0.27733600  0.50000000  1
  O  O40  1  0.67737600  0.09337900  0.00000000  1
  O  O41  1  0.58615300  0.31175900  0.76782700  1
  O  O42  1  0.58615300  0.31175900  0.23217300  1
  O  O43  1  0.42848900  0.16740100  0.00000000  1
  O  O44  1  0.40662100  0.17737600  0.50000000  1
  O  O45  1  0.33259900  0.92848900  0.50000000  1
  O  O46  1  0.81175900  0.91384700  0.26782700  1
  O  O47  1  0.81175900  0.91384700  0.73217300  1
  O  O48  1  0.18824100  0.08615300  0.73217300  1
  O  O49  1  0.18824100  0.08615300  0.26782700  1
  O  O50  1  0.66740100  0.07151100  0.50000000  1
  O  O51  1  0.59337900  0.82262400  0.50000000  1
  O  O52  1  0.57151100  0.83259900  0.00000000  1
  O  O53  1  0.41384700  0.68824100  0.76782700  1
  O  O54  1  0.41384700  0.68824100  0.23217300  1
  O  O55  1  0.32262400  0.90662100  0.00000000  1
  O  O56  1  0.17737600  0.59337900  0.50000000  1
  O  O57  1  0.08615300  0.81175900  0.26782700  1
  O  O58  1  0.08615300  0.81175900  0.73217300  1
  O  O59  1  0.92848900  0.66740100  0.50000000  1
  O  O60  1  0.90662100  0.67737600  0.00000000  1
  O  O61  1  0.83259900  0.42848900  0.00000000  1
  O  O62  1  0.31175900  0.41384700  0.76782700  1
  O  O63  1  0.31175900  0.41384700  0.23217300  1
  O  O64  1  0.68824100  0.58615300  0.23217300  1
  O  O65  1  0.68824100  0.58615300  0.76782700  1
  O  O66  1  0.16740100  0.57151100  0.00000000  1
  O  O67  1  0.09337900  0.32262400  0.00000000  1
  O  O68  1  0.07151100  0.33259900  0.50000000  1
  O  O69  1  0.91384700  0.18824100  0.26782700  1
  O  O70  1  0.91384700  0.18824100  0.73217300  1
  O  O71  1  0.82262400  0.40662100  0.50000000  1
