# generated using pymatgen
data_Na2SnO3
_symmetry_space_group_name_H-M   'P 1'
_cell_length_a   5.61485200
_cell_length_b   9.72691800
_cell_length_c   11.20844612
_cell_angle_alpha   90.00000000
_cell_angle_beta   99.53774309
_cell_angle_gamma   90.00000000
_symmetry_Int_Tables_number   1
_chemical_formula_structural   Na2SnO3
_chemical_formula_sum   'Na16 Sn8 O24'
_cell_volume   603.68960524
_cell_formula_units_Z   8
loop_
 _symmetry_equiv_pos_site_id
 _symmetry_equiv_pos_as_xyz
  1  'x, y, z'
loop_
 _atom_site_type_symbol
 _atom_site_label
 _atom_site_symmetry_multiplicity
 _atom_site_fract_x
 _atom_site_fract_y
 _atom_site_fract_z
 _atom_site_occupancy
  Na  Na0  1  0.26278400  0.58030500  0.49893800  1
  Na  Na1  1  0.25000000  0.75000000  0.00000000  1
  Na  Na2  1  0.00000000  0.91583900  0.75000000  1
  Na  Na3  1  0.75000000  0.75000000  0.50000000  1
  Na  Na4  1  0.76278400  0.91969500  0.99893800  1
  Na  Na5  1  0.73721600  0.58030500  0.00106200  1
  Na  Na6  1  0.50000000  0.58416100  0.25000000  1
  Na  Na7  1  0.23721600  0.91969500  0.50106200  1
  Na  Na8  1  0.76278400  0.08030500  0.49893800  1
  Na  Na9  1  0.75000000  0.25000000  0.00000000  1
  Na  Na10  1  0.50000000  0.41583900  0.75000000  1
  Na  Na11  1  0.25000000  0.25000000  0.50000000  1
  Na  Na12  1  0.26278400  0.41969500  0.99893800  1
  Na  Na13  1  0.23721600  0.08030500  0.00106200  1
  Na  Na14  1  0.00000000  0.08416100  0.25000000  1
  Na  Na15  1  0.73721600  0.41969500  0.50106200  1
  Sn  Sn16  1  0.00000000  0.58231300  0.75000000  1
  Sn  Sn17  1  0.00000000  0.75024900  0.25000000  1
  Sn  Sn18  1  0.50000000  0.74975100  0.75000000  1
  Sn  Sn19  1  0.50000000  0.91768700  0.25000000  1
  Sn  Sn20  1  0.50000000  0.08231300  0.75000000  1
  Sn  Sn21  1  0.50000000  0.25024900  0.25000000  1
  Sn  Sn22  1  0.00000000  0.24975100  0.75000000  1
  Sn  Sn23  1  0.00000000  0.41768700  0.25000000  1
  O  O24  1  0.35142700  0.60000600  0.85703200  1
  O  O25  1  0.15034950  0.73090650  0.64436100  1
  O  O26  1  0.84965050  0.73090650  0.85563900  1
  O  O27  1  0.09598850  0.58395650  0.14375900  1
  O  O28  1  0.85142700  0.89999400  0.35703200  1
  O  O29  1  0.90401150  0.58395650  0.35624100  1
  O  O30  1  0.59598850  0.91604350  0.64375900  1
  O  O31  1  0.64857300  0.60000600  0.64296800  1
  O  O32  1  0.40401150  0.91604350  0.85624100  1
  O  O33  1  0.65034950  0.76909350  0.14436100  1
  O  O34  1  0.34965050  0.76909350  0.35563900  1
  O  O35  1  0.14857300  0.89999400  0.14296800  1
  O  O36  1  0.85142700  0.10000600  0.85703200  1
  O  O37  1  0.65034950  0.23090650  0.64436100  1
  O  O38  1  0.34965050  0.23090650  0.85563900  1
  O  O39  1  0.59598850  0.08395650  0.14375900  1
  O  O40  1  0.35142700  0.39999400  0.35703200  1
  O  O41  1  0.40401150  0.08395650  0.35624100  1
  O  O42  1  0.09598850  0.41604350  0.64375900  1
  O  O43  1  0.14857300  0.10000600  0.64296800  1
  O  O44  1  0.90401150  0.41604350  0.85624100  1
  O  O45  1  0.15034950  0.26909350  0.14436100  1
  O  O46  1  0.84965050  0.26909350  0.35563900  1
  O  O47  1  0.64857300  0.39999400  0.14296800  1
