# generated using pymatgen
data_CaSeO3
_symmetry_space_group_name_H-M   'P 1'
_cell_length_a   5.46070000
_cell_length_b   6.49213200
_cell_length_c   8.44653700
_cell_angle_alpha   90.00000000
_cell_angle_beta   90.00000000
_cell_angle_gamma   90.00000000
_symmetry_Int_Tables_number   1
_chemical_formula_structural   CaSeO3
_chemical_formula_sum   'Ca4 Se4 O12'
_cell_volume   299.44312621
_cell_formula_units_Z   4
loop_
 _symmetry_equiv_pos_site_id
 _symmetry_equiv_pos_as_xyz
  1  'x, y, z'
loop_
 _atom_site_type_symbol
 _atom_site_label
 _atom_site_symmetry_multiplicity
 _atom_site_fract_x
 _atom_site_fract_y
 _atom_site_fract_z
 _atom_site_occupancy
  Ca  Ca0  1  0.00000000  0.50000000  0.00000000  1
  Ca  Ca1  1  0.00000000  0.50000000  0.50000000  1
  Ca  Ca2  1  0.50000000  0.00000000  0.00000000  1
  Ca  Ca3  1  0.50000000  0.00000000  0.50000000  1
  Se  Se4  1  0.01777800  0.02564600  0.75000000  1
  Se  Se5  1  0.48222200  0.52564600  0.75000000  1
  Se  Se6  1  0.51777800  0.47435400  0.25000000  1
  Se  Se7  1  0.98222200  0.97435400  0.25000000  1
  O  O8  1  0.20491800  0.42723600  0.25000000  1
  O  O9  1  0.12890500  0.17048500  0.59186400  1
  O  O10  1  0.12890500  0.17048500  0.90813600  1
  O  O11  1  0.37109500  0.67048500  0.59186400  1
  O  O12  1  0.37109500  0.67048500  0.90813600  1
  O  O13  1  0.29508200  0.92723600  0.25000000  1
  O  O14  1  0.70491800  0.07276400  0.75000000  1
  O  O15  1  0.62890500  0.32951500  0.09186400  1
  O  O16  1  0.62890500  0.32951500  0.40813600  1
  O  O17  1  0.87109500  0.82951500  0.09186400  1
  O  O18  1  0.87109500  0.82951500  0.40813600  1
  O  O19  1  0.79508200  0.57276400  0.75000000  1
