# generated using pymatgen
data_Tm3Sb5O12
_symmetry_space_group_name_H-M   'P 1'
_cell_length_a   10.80521200
_cell_length_b   10.80521200
_cell_length_c   10.80521200
_cell_angle_alpha   90.00000000
_cell_angle_beta   90.00000000
_cell_angle_gamma   90.00000000
_symmetry_Int_Tables_number   1
_chemical_formula_structural   Tm3Sb5O12
_chemical_formula_sum   'Tm12 Sb20 O48'
_cell_volume   1261.53666333
_cell_formula_units_Z   4
loop_
 _symmetry_equiv_pos_site_id
 _symmetry_equiv_pos_as_xyz
  1  'x, y, z'
loop_
 _atom_site_type_symbol
 _atom_site_label
 _atom_site_symmetry_multiplicity
 _atom_site_fract_x
 _atom_site_fract_y
 _atom_site_fract_z
 _atom_site_occupancy
  Tm  Tm0  1  0.00000000  0.50000000  0.25000000  1
  Tm  Tm1  1  0.00000000  0.25000000  0.50000000  1
  Tm  Tm2  1  0.25000000  0.50000000  0.00000000  1
  Tm  Tm3  1  0.25000000  0.00000000  0.50000000  1
  Tm  Tm4  1  0.50000000  0.00000000  0.25000000  1
  Tm  Tm5  1  0.50000000  0.25000000  0.00000000  1
  Tm  Tm6  1  0.50000000  0.00000000  0.75000000  1
  Tm  Tm7  1  0.50000000  0.75000000  0.00000000  1
  Tm  Tm8  1  0.75000000  0.00000000  0.50000000  1
  Tm  Tm9  1  0.75000000  0.50000000  0.00000000  1
  Tm  Tm10  1  0.00000000  0.50000000  0.75000000  1
  Tm  Tm11  1  0.00000000  0.75000000  0.50000000  1
  Sb  Sb12  1  0.74098300  0.25901700  0.25901700  1
  Sb  Sb13  1  0.00000000  0.28390100  0.00000000  1
  Sb  Sb14  1  0.00000000  0.00000000  0.28390100  1
  Sb  Sb15  1  0.00000000  0.71609900  0.00000000  1
  Sb  Sb16  1  0.00000000  0.00000000  0.71609900  1
  Sb  Sb17  1  0.25901700  0.74098300  0.25901700  1
  Sb  Sb18  1  0.25901700  0.25901700  0.74098300  1
  Sb  Sb19  1  0.24098300  0.24098300  0.24098300  1
  Sb  Sb20  1  0.28390100  0.00000000  0.00000000  1
  Sb  Sb21  1  0.71609900  0.00000000  0.00000000  1
  Sb  Sb22  1  0.24098300  0.75901700  0.75901700  1
  Sb  Sb23  1  0.50000000  0.78390100  0.50000000  1
  Sb  Sb24  1  0.50000000  0.50000000  0.78390100  1
  Sb  Sb25  1  0.50000000  0.21609900  0.50000000  1
  Sb  Sb26  1  0.50000000  0.50000000  0.21609900  1
  Sb  Sb27  1  0.75901700  0.24098300  0.75901700  1
  Sb  Sb28  1  0.75901700  0.75901700  0.24098300  1
  Sb  Sb29  1  0.74098300  0.74098300  0.74098300  1
  Sb  Sb30  1  0.78390100  0.50000000  0.50000000  1
  Sb  Sb31  1  0.21609900  0.50000000  0.50000000  1
  O  O32  1  0.86066350  0.34218350  0.13933650  1
  O  O33  1  0.86066350  0.13933650  0.34218350  1
  O  O34  1  0.89829700  0.10170300  0.60112500  1
  O  O35  1  0.89829700  0.60112500  0.10170300  1
  O  O36  1  0.89887500  0.39829700  0.39829700  1
  O  O37  1  0.10170300  0.10170300  0.39887500  1
  O  O38  1  0.10170300  0.39887500  0.10170300  1
  O  O39  1  0.10170300  0.89829700  0.60112500  1
  O  O40  1  0.10170300  0.60112500  0.89829700  1
  O  O41  1  0.15781650  0.36066350  0.36066350  1
  O  O42  1  0.13933650  0.65781650  0.13933650  1
  O  O43  1  0.13933650  0.13933650  0.65781650  1
  O  O44  1  0.13933650  0.86066350  0.34218350  1
  O  O45  1  0.13933650  0.34218350  0.86066350  1
  O  O46  1  0.36066350  0.15781650  0.36066350  1
  O  O47  1  0.36066350  0.36066350  0.15781650  1
  O  O48  1  0.34218350  0.86066350  0.13933650  1
  O  O49  1  0.34218350  0.13933650  0.86066350  1
  O  O50  1  0.39829700  0.89887500  0.39829700  1
  O  O51  1  0.39829700  0.39829700  0.89887500  1
  O  O52  1  0.39887500  0.10170300  0.10170300  1
  O  O53  1  0.60112500  0.89829700  0.10170300  1
  O  O54  1  0.60112500  0.10170300  0.89829700  1
  O  O55  1  0.65781650  0.13933650  0.13933650  1
  O  O56  1  0.36066350  0.84218350  0.63933650  1
  O  O57  1  0.36066350  0.63933650  0.84218350  1
  O  O58  1  0.39829700  0.60170300  0.10112500  1
  O  O59  1  0.39829700  0.10112500  0.60170300  1
  O  O60  1  0.39887500  0.89829700  0.89829700  1
  O  O61  1  0.60170300  0.60170300  0.89887500  1
  O  O62  1  0.60170300  0.89887500  0.60170300  1
  O  O63  1  0.60170300  0.39829700  0.10112500  1
  O  O64  1  0.60170300  0.10112500  0.39829700  1
  O  O65  1  0.65781650  0.86066350  0.86066350  1
  O  O66  1  0.63933650  0.15781650  0.63933650  1
  O  O67  1  0.63933650  0.63933650  0.15781650  1
  O  O68  1  0.63933650  0.36066350  0.84218350  1
  O  O69  1  0.63933650  0.84218350  0.36066350  1
  O  O70  1  0.86066350  0.65781650  0.86066350  1
  O  O71  1  0.86066350  0.86066350  0.65781650  1
  O  O72  1  0.84218350  0.36066350  0.63933650  1
  O  O73  1  0.84218350  0.63933650  0.36066350  1
  O  O74  1  0.89829700  0.39887500  0.89829700  1
  O  O75  1  0.89829700  0.89829700  0.39887500  1
  O  O76  1  0.89887500  0.60170300  0.60170300  1
  O  O77  1  0.10112500  0.39829700  0.60170300  1
  O  O78  1  0.10112500  0.60170300  0.39829700  1
  O  O79  1  0.15781650  0.63933650  0.63933650  1
