# generated using pymatgen
data_Ba4Lu6O13
_symmetry_space_group_name_H-M   'P 1'
_cell_length_a   5.98452600
_cell_length_b   12.17591029
_cell_length_c   12.55726021
_cell_angle_alpha   118.92689025
_cell_angle_beta   103.75121382
_cell_angle_gamma   89.98747351
_symmetry_Int_Tables_number   1
_chemical_formula_structural   Ba4Lu6O13
_chemical_formula_sum   'Ba8 Lu12 O26'
_cell_volume   770.77716171
_cell_formula_units_Z   2
loop_
 _symmetry_equiv_pos_site_id
 _symmetry_equiv_pos_as_xyz
  1  'x, y, z'
loop_
 _atom_site_type_symbol
 _atom_site_label
 _atom_site_symmetry_multiplicity
 _atom_site_fract_x
 _atom_site_fract_y
 _atom_site_fract_z
 _atom_site_occupancy
  Ba  Ba0  1  0.84169400  0.96993500  0.68037000  1
  Ba  Ba1  1  0.66558800  0.78507300  0.32838400  1
  Ba  Ba2  1  0.16744900  0.54138800  0.32896100  1
  Ba  Ba3  1  0.33902500  0.70769300  0.68173200  1
  Ba  Ba4  1  0.66140000  0.29279300  0.32000500  1
  Ba  Ba5  1  0.83656700  0.45620600  0.67192300  1
  Ba  Ba6  1  0.33840200  0.21349600  0.67205800  1
  Ba  Ba7  1  0.16513600  0.02812700  0.31934000  1
  Lu  Lu8  1  0.60591500  0.90886700  0.07195000  1
  Lu  Lu9  1  0.25209300  0.87599200  0.50509500  1
  Lu  Lu10  1  0.06376700  0.65347400  0.09648700  1
  Lu  Lu11  1  0.56498500  0.44146500  0.09666600  1
  Lu  Lu12  1  0.75293700  0.62876000  0.50738900  1
  Lu  Lu13  1  0.03403000  0.83728300  0.92874700  1
  Lu  Lu14  1  0.10680200  0.16310600  0.07244300  1
  Lu  Lu15  1  0.24693600  0.37157200  0.49517800  1
  Lu  Lu16  1  0.46591200  0.55773600  0.90378700  1
  Lu  Lu17  1  0.96620500  0.34524300  0.90399900  1
  Lu  Lu18  1  0.74778200  0.12259700  0.49518800  1
  Lu  Lu19  1  0.53413500  0.09005500  0.92796800  1
  O  O20  1  0.30212800  0.99942600  0.99923500  1
  O  O21  1  0.80300800  0.99922400  0.99943000  1
  O  O22  1  0.64035100  0.00731900  0.26537700  1
  O  O23  1  0.90783400  0.80474300  0.06099600  1
  O  O24  1  0.49537600  0.99204300  0.48745200  1
  O  O25  1  0.12288100  0.76551700  0.29175300  1
  O  O26  1  0.42033500  0.61555000  0.09731400  1
  O  O27  1  0.50544500  0.75469100  0.50969100  1
  O  O28  1  0.00743900  0.75658700  0.51520900  1
  O  O29  1  0.92030600  0.48032700  0.09700300  1
  O  O30  1  0.88169700  0.74025900  0.73451200  1
  O  O31  1  0.62670900  0.52275800  0.29205800  1
  O  O32  1  0.34724900  0.74467100  0.94090900  1
  O  O33  1  0.99523500  0.49507400  0.48897900  1
  O  O34  1  0.50671600  0.50586200  0.51383700  1
  O  O35  1  0.40730500  0.25484200  0.05974700  1
  O  O36  1  0.32976100  0.47589200  0.70849600  1
  O  O37  1  0.14792200  0.26209600  0.26690900  1
  O  O38  1  0.82077500  0.51941400  0.90332700  1
  O  O39  1  0.49787800  0.24603400  0.48957100  1
  O  O40  1  0.99806300  0.24175500  0.48845800  1
  O  O41  1  0.31991900  0.38386100  0.90309200  1
  O  O42  1  0.82728300  0.23215600  0.70869000  1
  O  O43  1  0.00694600  0.00613000  0.51208600  1
  O  O44  1  0.84705000  0.19671600  0.94248500  1
  O  O45  1  0.38233200  0.99276100  0.73371200  1
