# generated using pymatgen
data_Li2Cr3NiO8
_symmetry_space_group_name_H-M   'P 1'
_cell_length_a   5.84951576
_cell_length_b   5.84951576
_cell_length_c   14.57021158
_cell_angle_alpha   90.00000000
_cell_angle_beta   90.00000000
_cell_angle_gamma   120.00000000
_symmetry_Int_Tables_number   1
_chemical_formula_structural   Li2Cr3NiO8
_chemical_formula_sum   'Li6 Cr9 Ni3 O24'
_cell_volume   431.75395097
_cell_formula_units_Z   3
loop_
 _symmetry_equiv_pos_site_id
 _symmetry_equiv_pos_as_xyz
  1  'x, y, z'
loop_
 _atom_site_type_symbol
 _atom_site_label
 _atom_site_symmetry_multiplicity
 _atom_site_fract_x
 _atom_site_fract_y
 _atom_site_fract_z
 _atom_site_occupancy
  Li  Li0  1  0.00000000  0.00000000  0.12323200  1
  Li  Li1  1  0.33333333  0.66666667  0.16724467  1
  Li  Li2  1  0.66666667  0.33333333  0.45656533  1
  Li  Li3  1  0.00000000  0.00000000  0.50057800  1
  Li  Li4  1  0.33333333  0.66666667  0.78989867  1
  Li  Li5  1  0.66666667  0.33333333  0.83391133  1
  Cr  Cr6  1  0.00495000  0.50247500  0.00086700  1
  Cr  Cr7  1  0.49752500  0.99505000  0.00086700  1
  Cr  Cr8  1  0.49752500  0.50247500  0.00086700  1
  Cr  Cr9  1  0.67161667  0.83580833  0.33420033  1
  Cr  Cr10  1  0.16419167  0.32838333  0.33420033  1
  Cr  Cr11  1  0.16419167  0.83580833  0.33420033  1
  Cr  Cr12  1  0.33828333  0.16914167  0.66753367  1
  Cr  Cr13  1  0.83085833  0.66171667  0.66753367  1
  Cr  Cr14  1  0.83085833  0.16914167  0.66753367  1
  Ni  Ni15  1  0.66666667  0.33333333  0.21171533  1
  Ni  Ni16  1  0.33333333  0.66666667  0.54504867  1
  Ni  Ni17  1  0.00000000  0.00000000  0.87838200  1
  O  O18  1  0.00000000  0.00000000  0.26000800  1
  O  O19  1  0.18043467  0.81956533  0.06911433  1
  O  O20  1  0.18043467  0.36086933  0.06911433  1
  O  O21  1  0.63913067  0.81956533  0.06911433  1
  O  O22  1  0.02581667  0.51290833  0.26251133  1
  O  O23  1  0.48709167  0.97418333  0.26251133  1
  O  O24  1  0.48709167  0.51290833  0.26251133  1
  O  O25  1  0.66666667  0.33333333  0.07365133  1
  O  O26  1  0.66666667  0.33333333  0.59334133  1
  O  O27  1  0.84710133  0.15289867  0.40244767  1
  O  O28  1  0.84710133  0.69420267  0.40244767  1
  O  O29  1  0.30579733  0.15289867  0.40244767  1
  O  O30  1  0.69248333  0.84624167  0.59584467  1
  O  O31  1  0.15375833  0.30751667  0.59584467  1
  O  O32  1  0.15375833  0.84624167  0.59584467  1
  O  O33  1  0.33333333  0.66666667  0.40698467  1
  O  O34  1  0.33333333  0.66666667  0.92667467  1
  O  O35  1  0.51376800  0.48623200  0.73578100  1
  O  O36  1  0.51376800  0.02753600  0.73578100  1
  O  O37  1  0.97246400  0.48623200  0.73578100  1
  O  O38  1  0.35915000  0.17957500  0.92917800  1
  O  O39  1  0.82042500  0.64085000  0.92917800  1
  O  O40  1  0.82042500  0.17957500  0.92917800  1
  O  O41  1  0.00000000  0.00000000  0.74031800  1
