# generated using pymatgen
data_Ba3In2(HO)12
_symmetry_space_group_name_H-M   'P 1'
_cell_length_a   14.36964600
_cell_length_b   14.36964600
_cell_length_c   14.36964600
_cell_angle_alpha   90.00000000
_cell_angle_beta   90.00000000
_cell_angle_gamma   90.00000000
_symmetry_Int_Tables_number   1
_chemical_formula_structural   Ba3In2(HO)12
_chemical_formula_sum   'Ba24 In16 H96 O96'
_cell_volume   2967.14115869
_cell_formula_units_Z   8
loop_
 _symmetry_equiv_pos_site_id
 _symmetry_equiv_pos_as_xyz
  1  'x, y, z'
loop_
 _atom_site_type_symbol
 _atom_site_label
 _atom_site_symmetry_multiplicity
 _atom_site_fract_x
 _atom_site_fract_y
 _atom_site_fract_z
 _atom_site_occupancy
  Ba  Ba0  1  0.50000000  0.25000000  0.87500000  1
  Ba  Ba1  1  0.00000000  0.25000000  0.12500000  1
  Ba  Ba2  1  0.25000000  0.87500000  0.50000000  1
  Ba  Ba3  1  0.25000000  0.12500000  0.00000000  1
  Ba  Ba4  1  0.87500000  0.50000000  0.25000000  1
  Ba  Ba5  1  0.12500000  0.00000000  0.25000000  1
  Ba  Ba6  1  0.00000000  0.25000000  0.62500000  1
  Ba  Ba7  1  0.50000000  0.25000000  0.37500000  1
  Ba  Ba8  1  0.25000000  0.62500000  0.00000000  1
  Ba  Ba9  1  0.25000000  0.37500000  0.50000000  1
  Ba  Ba10  1  0.62500000  0.00000000  0.25000000  1
  Ba  Ba11  1  0.37500000  0.50000000  0.25000000  1
  Ba  Ba12  1  0.00000000  0.75000000  0.37500000  1
  Ba  Ba13  1  0.50000000  0.75000000  0.62500000  1
  Ba  Ba14  1  0.75000000  0.37500000  0.00000000  1
  Ba  Ba15  1  0.75000000  0.62500000  0.50000000  1
  Ba  Ba16  1  0.37500000  0.00000000  0.75000000  1
  Ba  Ba17  1  0.62500000  0.50000000  0.75000000  1
  Ba  Ba18  1  0.50000000  0.75000000  0.12500000  1
  Ba  Ba19  1  0.00000000  0.75000000  0.87500000  1
  Ba  Ba20  1  0.75000000  0.12500000  0.50000000  1
  Ba  Ba21  1  0.75000000  0.87500000  0.00000000  1
  Ba  Ba22  1  0.12500000  0.50000000  0.75000000  1
  Ba  Ba23  1  0.87500000  0.00000000  0.75000000  1
  In  In24  1  0.25000000  0.75000000  0.25000000  1
  In  In25  1  0.25000000  0.25000000  0.75000000  1
  In  In26  1  0.75000000  0.25000000  0.25000000  1
  In  In27  1  0.25000000  0.25000000  0.25000000  1
  In  In28  1  0.00000000  0.00000000  0.50000000  1
  In  In29  1  0.00000000  0.50000000  0.00000000  1
  In  In30  1  0.50000000  0.00000000  0.00000000  1
  In  In31  1  0.00000000  0.00000000  0.00000000  1
  In  In32  1  0.75000000  0.25000000  0.75000000  1
  In  In33  1  0.75000000  0.75000000  0.25000000  1
  In  In34  1  0.25000000  0.75000000  0.75000000  1
  In  In35  1  0.75000000  0.75000000  0.75000000  1
  In  In36  1  0.50000000  0.50000000  0.00000000  1
  In  In37  1  0.50000000  0.00000000  0.50000000  1
  In  In38  1  0.00000000  0.50000000  0.50000000  1
  In  In39  1  0.50000000  0.50000000  0.50000000  1
  H  H40  1  0.09348700  0.79223700  0.15669600  1
  H  H41  1  0.90651300  0.70776300  0.15669600  1
  H  H42  1  0.90651300  0.29223700  0.34330400  1
  H  H43  1  0.09348700  0.20776300  0.34330400  1
  H  H44  1  0.79223700  0.15669600  0.09348700  1
  H  H45  1  0.70776300  0.15669600  0.90651300  1
  H  H46  1  0.29223700  0.34330400  0.90651300  1
  H  H47  1  0.20776300  0.34330400  0.09348700  1
  H  H48  1  0.15669600  0.09348700  0.79223700  1
  H  H49  1  0.15669600  0.90651300  0.70776300  1
  H  H50  1  0.34330400  0.90651300  0.29223700  1
  H  H51  1  0.34330400  0.09348700  0.20776300  1
  H  H52  1  0.40651300  0.70776300  0.34330400  1
  H  H53  1  0.59348700  0.79223700  0.34330400  1
  H  H54  1  0.59348700  0.20776300  0.15669600  1
  H  H55  1  0.40651300  0.29223700  0.15669600  1
  H  H56  1  0.70776300  0.34330400  0.40651300  1
  H  H57  1  0.79223700  0.34330400  0.59348700  1
  H  H58  1  0.20776300  0.15669600  0.59348700  1
  H  H59  1  0.29223700  0.15669600  0.40651300  1
  H  H60  1  0.34330400  0.40651300  0.70776300  1
  H  H61  1  0.34330400  0.59348700  0.79223700  1
  H  H62  1  0.15669600  0.59348700  0.20776300  1
  H  H63  1  0.15669600  0.40651300  0.29223700  1
  H  H64  1  0.34348700  0.40669600  0.04223700  1
  H  H65  1  0.15651300  0.40669600  0.95776300  1
  H  H66  1  0.65651300  0.09330400  0.04223700  1
  H  H67  1  0.84348700  0.09330400  0.95776300  1
  H  H68  1  0.04223700  0.34348700  0.40669600  1
  H  H69  1  0.95776300  0.15651300  0.40669600  1
  H  H70  1  0.04223700  0.65651300  0.09330400  1
  H  H71  1  0.95776300  0.84348700  0.09330400  1
  H  H72  1  0.40669600  0.04223700  0.34348700  1
  H  H73  1  0.40669600  0.95776300  0.15651300  1
  H  H74  1  0.09330400  0.04223700  0.65651300  1
  H  H75  1  0.09330400  0.95776300  0.84348700  1
  H  H76  1  0.15651300  0.09330400  0.45776300  1
  H  H77  1  0.34348700  0.09330400  0.54223700  1
  H  H78  1  0.84348700  0.40669600  0.45776300  1
  H  H79  1  0.65651300  0.40669600  0.54223700  1
  H  H80  1  0.45776300  0.15651300  0.09330400  1
  H  H81  1  0.54223700  0.34348700  0.09330400  1
  H  H82  1  0.45776300  0.84348700  0.40669600  1
  H  H83  1  0.54223700  0.65651300  0.40669600  1
  H  H84  1  0.09330400  0.45776300  0.15651300  1
  H  H85  1  0.09330400  0.54223700  0.34348700  1
  H  H86  1  0.40669600  0.45776300  0.84348700  1
  H  H87  1  0.40669600  0.54223700  0.65651300  1
  H  H88  1  0.59348700  0.29223700  0.65669600  1
  H  H89  1  0.40651300  0.20776300  0.65669600  1
  H  H90  1  0.40651300  0.79223700  0.84330400  1
  H  H91  1  0.59348700  0.70776300  0.84330400  1
  H  H92  1  0.29223700  0.65669600  0.59348700  1
  H  H93  1  0.20776300  0.65669600  0.40651300  1
  H  H94  1  0.79223700  0.84330400  0.40651300  1
  H  H95  1  0.70776300  0.84330400  0.59348700  1
  H  H96  1  0.65669600  0.59348700  0.29223700  1
  H  H97  1  0.65669600  0.40651300  0.20776300  1
  H  H98  1  0.84330400  0.40651300  0.79223700  1
  H  H99  1  0.84330400  0.59348700  0.70776300  1
  H  H100  1  0.90651300  0.20776300  0.84330400  1
  H  H101  1  0.09348700  0.29223700  0.84330400  1
  H  H102  1  0.09348700  0.70776300  0.65669600  1
  H  H103  1  0.90651300  0.79223700  0.65669600  1
  H  H104  1  0.20776300  0.84330400  0.90651300  1
  H  H105  1  0.29223700  0.84330400  0.09348700  1
  H  H106  1  0.70776300  0.65669600  0.09348700  1
  H  H107  1  0.79223700  0.65669600  0.90651300  1
  H  H108  1  0.84330400  0.90651300  0.20776300  1
  H  H109  1  0.84330400  0.09348700  0.29223700  1
  H  H110  1  0.65669600  0.09348700  0.70776300  1
  H  H111  1  0.65669600  0.90651300  0.79223700  1
  H  H112  1  0.84348700  0.90669600  0.54223700  1
  H  H113  1  0.65651300  0.90669600  0.45776300  1
  H  H114  1  0.15651300  0.59330400  0.54223700  1
  H  H115  1  0.34348700  0.59330400  0.45776300  1
  H  H116  1  0.54223700  0.84348700  0.90669600  1
  H  H117  1  0.45776300  0.65651300  0.90669600  1
  H  H118  1  0.54223700  0.15651300  0.59330400  1
  H  H119  1  0.45776300  0.34348700  0.59330400  1
  H  H120  1  0.90669600  0.54223700  0.84348700  1
  H  H121  1  0.90669600  0.45776300  0.65651300  1
  H  H122  1  0.59330400  0.54223700  0.15651300  1
  H  H123  1  0.59330400  0.45776300  0.34348700  1
  H  H124  1  0.65651300  0.59330400  0.95776300  1
  H  H125  1  0.84348700  0.59330400  0.04223700  1
  H  H126  1  0.34348700  0.90669600  0.95776300  1
  H  H127  1  0.15651300  0.90669600  0.04223700  1
  H  H128  1  0.95776300  0.65651300  0.59330400  1
  H  H129  1  0.04223700  0.84348700  0.59330400  1
  H  H130  1  0.95776300  0.34348700  0.90669600  1
  H  H131  1  0.04223700  0.15651300  0.90669600  1
  H  H132  1  0.59330400  0.95776300  0.65651300  1
  H  H133  1  0.59330400  0.04223700  0.84348700  1
  H  H134  1  0.90669600  0.95776300  0.34348700  1
  H  H135  1  0.90669600  0.04223700  0.15651300  1
  O  O136  1  0.60858150  0.30387050  0.72199650  1
  O  O137  1  0.89141850  0.69612950  0.22199650  1
  O  O138  1  0.89141850  0.30387050  0.27800350  1
  O  O139  1  0.10858150  0.19612950  0.27800350  1
  O  O140  1  0.30387050  0.72199650  0.60858150  1
  O  O141  1  0.69612950  0.22199650  0.89141850  1
  O  O142  1  0.30387050  0.27800350  0.89141850  1
  O  O143  1  0.19612950  0.27800350  0.10858150  1
  O  O144  1  0.72199650  0.60858150  0.30387050  1
  O  O145  1  0.22199650  0.89141850  0.69612950  1
  O  O146  1  0.27800350  0.89141850  0.30387050  1
  O  O147  1  0.27800350  0.10858150  0.19612950  1
  O  O148  1  0.89141850  0.19612950  0.77800350  1
  O  O149  1  0.60858150  0.80387050  0.27800350  1
  O  O150  1  0.60858150  0.19612950  0.22199650  1
  O  O151  1  0.39141850  0.30387050  0.22199650  1
  O  O152  1  0.19612950  0.77800350  0.89141850  1
  O  O153  1  0.80387050  0.27800350  0.60858150  1
  O  O154  1  0.19612950  0.22199650  0.60858150  1
  O  O155  1  0.30387050  0.22199650  0.39141850  1
  O  O156  1  0.77800350  0.89141850  0.19612950  1
  O  O157  1  0.27800350  0.60858150  0.80387050  1
  O  O158  1  0.22199650  0.60858150  0.19612950  1
  O  O159  1  0.22199650  0.39141850  0.30387050  1
  O  O160  1  0.35858150  0.47199650  0.05387050  1
  O  O161  1  0.14141850  0.47199650  0.94612950  1
  O  O162  1  0.64141850  0.02800350  0.05387050  1
  O  O163  1  0.35858150  0.52800350  0.44612950  1
  O  O164  1  0.05387050  0.35858150  0.47199650  1
  O  O165  1  0.94612950  0.14141850  0.47199650  1
  O  O166  1  0.05387050  0.64141850  0.02800350  1
  O  O167  1  0.44612950  0.35858150  0.52800350  1
  O  O168  1  0.47199650  0.05387050  0.35858150  1
  O  O169  1  0.47199650  0.94612950  0.14141850  1
  O  O170  1  0.02800350  0.05387050  0.64141850  1
  O  O171  1  0.52800350  0.44612950  0.35858150  1
  O  O172  1  0.14141850  0.02800350  0.44612950  1
  O  O173  1  0.35858150  0.02800350  0.55387050  1
  O  O174  1  0.85858150  0.47199650  0.44612950  1
  O  O175  1  0.14141850  0.97199650  0.05387050  1
  O  O176  1  0.44612950  0.14141850  0.02800350  1
  O  O177  1  0.55387050  0.35858150  0.02800350  1
  O  O178  1  0.44612950  0.85858150  0.47199650  1
  O  O179  1  0.05387050  0.14141850  0.97199650  1
  O  O180  1  0.02800350  0.44612950  0.14141850  1
  O  O181  1  0.02800350  0.55387050  0.35858150  1
  O  O182  1  0.47199650  0.44612950  0.85858150  1
  O  O183  1  0.97199650  0.05387050  0.14141850  1
  O  O184  1  0.10858150  0.80387050  0.22199650  1
  O  O185  1  0.39141850  0.19612950  0.72199650  1
  O  O186  1  0.39141850  0.80387050  0.77800350  1
  O  O187  1  0.60858150  0.69612950  0.77800350  1
  O  O188  1  0.80387050  0.22199650  0.10858150  1
  O  O189  1  0.19612950  0.72199650  0.39141850  1
  O  O190  1  0.80387050  0.77800350  0.39141850  1
  O  O191  1  0.69612950  0.77800350  0.60858150  1
  O  O192  1  0.22199650  0.10858150  0.80387050  1
  O  O193  1  0.72199650  0.39141850  0.19612950  1
  O  O194  1  0.77800350  0.39141850  0.80387050  1
  O  O195  1  0.77800350  0.60858150  0.69612950  1
  O  O196  1  0.39141850  0.69612950  0.27800350  1
  O  O197  1  0.10858150  0.30387050  0.77800350  1
  O  O198  1  0.10858150  0.69612950  0.72199650  1
  O  O199  1  0.89141850  0.80387050  0.72199650  1
  O  O200  1  0.69612950  0.27800350  0.39141850  1
  O  O201  1  0.30387050  0.77800350  0.10858150  1
  O  O202  1  0.69612950  0.72199650  0.10858150  1
  O  O203  1  0.80387050  0.72199650  0.89141850  1
  O  O204  1  0.27800350  0.39141850  0.69612950  1
  O  O205  1  0.77800350  0.10858150  0.30387050  1
  O  O206  1  0.72199650  0.10858150  0.69612950  1
  O  O207  1  0.72199650  0.89141850  0.80387050  1
  O  O208  1  0.85858150  0.97199650  0.55387050  1
  O  O209  1  0.64141850  0.97199650  0.44612950  1
  O  O210  1  0.14141850  0.52800350  0.55387050  1
  O  O211  1  0.85858150  0.02800350  0.94612950  1
  O  O212  1  0.55387050  0.85858150  0.97199650  1
  O  O213  1  0.44612950  0.64141850  0.97199650  1
  O  O214  1  0.55387050  0.14141850  0.52800350  1
  O  O215  1  0.94612950  0.85858150  0.02800350  1
  O  O216  1  0.97199650  0.55387050  0.85858150  1
  O  O217  1  0.97199650  0.44612950  0.64141850  1
  O  O218  1  0.52800350  0.55387050  0.14141850  1
  O  O219  1  0.02800350  0.94612950  0.85858150  1
  O  O220  1  0.64141850  0.52800350  0.94612950  1
  O  O221  1  0.85858150  0.52800350  0.05387050  1
  O  O222  1  0.35858150  0.97199650  0.94612950  1
  O  O223  1  0.64141850  0.47199650  0.55387050  1
  O  O224  1  0.94612950  0.64141850  0.52800350  1
  O  O225  1  0.05387050  0.85858150  0.52800350  1
  O  O226  1  0.94612950  0.35858150  0.97199650  1
  O  O227  1  0.55387050  0.64141850  0.47199650  1
  O  O228  1  0.52800350  0.94612950  0.64141850  1
  O  O229  1  0.52800350  0.05387050  0.85858150  1
  O  O230  1  0.97199650  0.94612950  0.35858150  1
  O  O231  1  0.47199650  0.55387050  0.64141850  1
