# generated using pymatgen
data_Li2V(PO4)2
_symmetry_space_group_name_H-M   'P 1'
_cell_length_a   4.89746600
_cell_length_b   17.38433100
_cell_length_c   6.59392341
_cell_angle_alpha   90.00000000
_cell_angle_beta   94.86504128
_cell_angle_gamma   90.00000000
_symmetry_Int_Tables_number   1
_chemical_formula_structural   Li2V(PO4)2
_chemical_formula_sum   'Li8 V4 P8 O32'
_cell_volume   559.37856518
_cell_formula_units_Z   4
loop_
 _symmetry_equiv_pos_site_id
 _symmetry_equiv_pos_as_xyz
  1  'x, y, z'
loop_
 _atom_site_type_symbol
 _atom_site_label
 _atom_site_symmetry_multiplicity
 _atom_site_fract_x
 _atom_site_fract_y
 _atom_site_fract_z
 _atom_site_occupancy
  Li  Li0  1  0.46332300  0.62018300  0.74240400  1
  Li  Li1  1  0.96637900  0.88296800  0.26245100  1
  Li  Li2  1  0.44037300  0.80487800  0.07041200  1
  Li  Li3  1  0.53667700  0.12018300  0.25759600  1
  Li  Li4  1  0.98394200  0.55507600  0.95156900  1
  Li  Li5  1  0.03362100  0.38296800  0.73754900  1
  Li  Li6  1  0.55962700  0.30487800  0.92958800  1
  Li  Li7  1  0.01605800  0.05507600  0.04843100  1
  V  V8  1  0.54016700  0.12967000  0.72824700  1
  V  V9  1  0.45983300  0.62967000  0.27175300  1
  V  V10  1  0.05697700  0.37290400  0.24726400  1
  V  V11  1  0.94302300  0.87290400  0.75273600  1
  P  P12  1  0.91956100  0.71304900  0.02904800  1
  P  P13  1  0.08043900  0.21304900  0.97095200  1
  P  P14  1  0.98176200  0.53626200  0.47540100  1
  P  P15  1  0.48160900  0.96290800  0.97507100  1
  P  P16  1  0.01823800  0.03626200  0.52459900  1
  P  P17  1  0.41698700  0.78590400  0.52962100  1
  P  P18  1  0.58301300  0.28590400  0.47037900  1
  P  P19  1  0.51839100  0.46290800  0.02492900  1
  O  O20  1  0.72910900  0.80805200  0.57203000  1
  O  O21  1  0.62109300  0.93196800  0.16787100  1
  O  O22  1  0.70417900  0.32361600  0.66226200  1
  O  O23  1  0.03224400  0.94617100  0.54505700  1
  O  O24  1  0.39859100  0.69596200  0.50651800  1
  O  O25  1  0.27089100  0.30805200  0.42797000  1
  O  O26  1  0.87655400  0.06986700  0.70936400  1
  O  O27  1  0.80899400  0.66542800  0.85135300  1
  O  O28  1  0.32455200  0.06484700  0.54571100  1
  O  O29  1  0.72767400  0.30796100  0.27537100  1
  O  O30  1  0.16876800  0.93800700  0.95861300  1
  O  O31  1  0.23543300  0.69625300  0.07640100  1
  O  O32  1  0.12344600  0.56986700  0.29063600  1
  O  O33  1  0.52467400  0.55346800  0.03717900  1
  O  O34  1  0.19100600  0.16542800  0.14864700  1
  O  O35  1  0.61893700  0.93170800  0.78647800  1
  O  O36  1  0.76865300  0.69516700  0.22389200  1
  O  O37  1  0.96775600  0.44617100  0.45494300  1
  O  O38  1  0.88109600  0.05929100  0.32203200  1
  O  O39  1  0.47532600  0.05346800  0.96282100  1
  O  O40  1  0.12134800  0.30207600  0.00393500  1
  O  O41  1  0.38106300  0.43170800  0.21352200  1
  O  O42  1  0.60140900  0.19596200  0.49348200  1
  O  O43  1  0.76456700  0.19625300  0.92359900  1
  O  O44  1  0.87865200  0.80207600  0.99606500  1
  O  O45  1  0.11890400  0.55929100  0.67796800  1
  O  O46  1  0.83123200  0.43800700  0.04138700  1
  O  O47  1  0.23134700  0.19516700  0.77610800  1
  O  O48  1  0.29582100  0.82361600  0.33773800  1
  O  O49  1  0.67544800  0.56484700  0.45428900  1
  O  O50  1  0.37890700  0.43196800  0.83212900  1
  O  O51  1  0.27232600  0.80796100  0.72462900  1
