# generated using pymatgen
data_Li3Mn3(PO4)4
_symmetry_space_group_name_H-M   'P 1'
_cell_length_a   18.69647200
_cell_length_b   6.74702000
_cell_length_c   10.49105612
_cell_angle_alpha   90.00000000
_cell_angle_beta   90.45864175
_cell_angle_gamma   90.00000000
_symmetry_Int_Tables_number   1
_chemical_formula_structural   Li3Mn3(PO4)4
_chemical_formula_sum   'Li12 Mn12 P16 O64'
_cell_volume   1323.35681042
_cell_formula_units_Z   4
loop_
 _symmetry_equiv_pos_site_id
 _symmetry_equiv_pos_as_xyz
  1  'x, y, z'
loop_
 _atom_site_type_symbol
 _atom_site_label
 _atom_site_symmetry_multiplicity
 _atom_site_fract_x
 _atom_site_fract_y
 _atom_site_fract_z
 _atom_site_occupancy
  Li  Li0  1  0.56972500  0.61440200  0.80043000  1
  Li  Li1  1  0.00000000  0.55626600  0.00000000  1
  Li  Li2  1  0.93027500  0.11440200  0.19957000  1
  Li  Li3  1  0.57295900  0.36255100  0.30059800  1
  Li  Li4  1  0.92704100  0.86255100  0.69940200  1
  Li  Li5  1  0.00000000  0.44578800  0.50000000  1
  Li  Li6  1  0.06972500  0.11440200  0.80043000  1
  Li  Li7  1  0.50000000  0.05626600  0.00000000  1
  Li  Li8  1  0.43027500  0.61440200  0.19957000  1
  Li  Li9  1  0.07295900  0.86255100  0.30059800  1
  Li  Li10  1  0.42704100  0.36255100  0.69940200  1
  Li  Li11  1  0.50000000  0.94578800  0.50000000  1
  Mn  Mn12  1  0.65670350  0.02268950  0.49725400  1
  Mn  Mn13  1  0.65662900  0.97773100  0.99667100  1
  Mn  Mn14  1  0.74978900  0.25080400  0.75020900  1
  Mn  Mn15  1  0.84329650  0.52268950  0.50274600  1
  Mn  Mn16  1  0.84337100  0.47773100  0.00332900  1
  Mn  Mn17  1  0.75021100  0.75080400  0.24979100  1
  Mn  Mn18  1  0.15670350  0.52268950  0.49725400  1
  Mn  Mn19  1  0.15662900  0.47773100  0.99667100  1
  Mn  Mn20  1  0.24978900  0.75080400  0.75020900  1
  Mn  Mn21  1  0.34329650  0.02268950  0.50274600  1
  Mn  Mn22  1  0.34337100  0.97773100  0.00332900  1
  Mn  Mn23  1  0.25021100  0.25080400  0.24979100  1
  P  P24  1  0.58087900  0.16443800  0.75256800  1
  P  P25  1  0.58078450  0.83767650  0.25193100  1
  P  P26  1  0.80314800  0.97657000  0.99967000  1
  P  P27  1  0.69639750  0.52416750  0.50014400  1
  P  P28  1  0.80360250  0.02416750  0.49985600  1
  P  P29  1  0.91912100  0.66443800  0.24743200  1
  P  P30  1  0.69685200  0.47657000  0.00033000  1
  P  P31  1  0.91921550  0.33767650  0.74806900  1
  P  P32  1  0.08087900  0.66443800  0.75256800  1
  P  P33  1  0.08078450  0.33767650  0.25193100  1
  P  P34  1  0.30314800  0.47657000  0.99967000  1
  P  P35  1  0.19639750  0.02416750  0.50014400  1
  P  P36  1  0.30360250  0.52416750  0.49985600  1
  P  P37  1  0.41912100  0.16443800  0.24743200  1
  P  P38  1  0.19685200  0.97657000  0.00033000  1
  P  P39  1  0.41921550  0.83767650  0.74806900  1
  O  O40  1  0.58550900  0.00140700  0.35962900  1
  O  O41  1  0.75517900  0.52266200  0.10834300  1
  O  O42  1  0.65350650  0.29562750  0.03546800  1
  O  O43  1  0.51808800  0.70249900  0.27623900  1
  O  O44  1  0.74468100  0.97786000  0.39264200  1
  O  O45  1  0.74230300  0.06059800  0.60756300  1
  O  O46  1  0.58515500  0.00246100  0.86014800  1
  O  O47  1  0.84649350  0.79562750  0.96453200  1
  O  O48  1  0.51869600  0.30321500  0.77767000  1
  O  O49  1  0.65356400  0.70594000  0.53419500  1
  O  O50  1  0.92277450  0.55517450  0.37912300  1
  O  O51  1  0.92289000  0.44667000  0.87925500  1
  O  O52  1  0.65078350  0.65236150  0.95875800  1
  O  O53  1  0.91449100  0.50140700  0.64037100  1
  O  O54  1  0.98130400  0.80321500  0.22233000  1
  O  O55  1  0.57722550  0.05517450  0.62087700  1
  O  O56  1  0.75531900  0.47786000  0.60735800  1
  O  O57  1  0.75769700  0.56059800  0.39243700  1
  O  O58  1  0.74482100  0.02266200  0.89165700  1
  O  O59  1  0.74220700  0.93991300  0.10712000  1
  O  O60  1  0.84873600  0.84784100  0.54252700  1
  O  O61  1  0.84995300  0.20733500  0.74654500  1
  O  O62  1  0.84643600  0.20594000  0.46580500  1
  O  O63  1  0.84988350  0.79559250  0.24693400  1
  O  O64  1  0.98191200  0.20249900  0.72376100  1
  O  O65  1  0.75779300  0.43991300  0.89288000  1
  O  O66  1  0.57711000  0.94667000  0.12074500  1
  O  O67  1  0.65011650  0.29559250  0.75306600  1
  O  O68  1  0.65004700  0.70733500  0.25345500  1
  O  O69  1  0.91484500  0.50246100  0.13985200  1
  O  O70  1  0.84921650  0.15236150  0.04124200  1
  O  O71  1  0.65126400  0.34784100  0.45747300  1
  O  O72  1  0.08550900  0.50140700  0.35962900  1
  O  O73  1  0.25517900  0.02266200  0.10834300  1
  O  O74  1  0.15350650  0.79562750  0.03546800  1
  O  O75  1  0.01808800  0.20249900  0.27623900  1
  O  O76  1  0.24468100  0.47786000  0.39264200  1
  O  O77  1  0.24230300  0.56059800  0.60756300  1
  O  O78  1  0.08515500  0.50246100  0.86014800  1
  O  O79  1  0.34649350  0.29562750  0.96453200  1
  O  O80  1  0.01869600  0.80321500  0.77767000  1
  O  O81  1  0.15356400  0.20594000  0.53419500  1
  O  O82  1  0.42277450  0.05517450  0.37912300  1
  O  O83  1  0.42289000  0.94667000  0.87925500  1
  O  O84  1  0.15078350  0.15236150  0.95875800  1
  O  O85  1  0.41449100  0.00140700  0.64037100  1
  O  O86  1  0.48130400  0.30321500  0.22233000  1
  O  O87  1  0.07722550  0.55517450  0.62087700  1
  O  O88  1  0.25531900  0.97786000  0.60735800  1
  O  O89  1  0.25769700  0.06059800  0.39243700  1
  O  O90  1  0.24482100  0.52266200  0.89165700  1
  O  O91  1  0.24220700  0.43991300  0.10712000  1
  O  O92  1  0.34873600  0.34784100  0.54252700  1
  O  O93  1  0.34995300  0.70733500  0.74654500  1
  O  O94  1  0.34643600  0.70594000  0.46580500  1
  O  O95  1  0.34988350  0.29559250  0.24693400  1
  O  O96  1  0.48191200  0.70249900  0.72376100  1
  O  O97  1  0.25779300  0.93991300  0.89288000  1
  O  O98  1  0.07711000  0.44667000  0.12074500  1
  O  O99  1  0.15011650  0.79559250  0.75306600  1
  O  O100  1  0.15004700  0.20733500  0.25345500  1
  O  O101  1  0.41484500  0.00246100  0.13985200  1
  O  O102  1  0.34921650  0.65236150  0.04124200  1
  O  O103  1  0.15126400  0.84784100  0.45747300  1
