# generated using pymatgen
data_V9Sb7O32
_symmetry_space_group_name_H-M   'P 1'
_cell_length_a   4.66774000
_cell_length_b   7.80794226
_cell_length_c   15.34063200
_cell_angle_alpha   102.43390901
_cell_angle_beta   90.12029386
_cell_angle_gamma   89.98519163
_symmetry_Int_Tables_number   1
_chemical_formula_structural   V9Sb7O32
_chemical_formula_sum   'V9 Sb7 O32'
_cell_volume   545.98134868
_cell_formula_units_Z   1
loop_
 _symmetry_equiv_pos_site_id
 _symmetry_equiv_pos_as_xyz
  1  'x, y, z'
loop_
 _atom_site_type_symbol
 _atom_site_label
 _atom_site_symmetry_multiplicity
 _atom_site_fract_x
 _atom_site_fract_y
 _atom_site_fract_z
 _atom_site_occupancy
  V  V0  1  0.50546500  0.81293300  0.43821400  1
  V  V1  1  0.49453500  0.18706700  0.56178600  1
  V  V2  1  0.49608000  0.06233300  0.18896800  1
  V  V3  1  0.50392000  0.93766700  0.81103200  1
  V  V4  1  0.00000000  0.50000000  0.50000000  1
  V  V5  1  0.99204200  0.37450100  0.12891900  1
  V  V6  1  0.99561300  0.75072700  0.25326000  1
  V  V7  1  0.00795800  0.62549900  0.87108100  1
  V  V8  1  0.00438700  0.24927300  0.74674000  1
  Sb  Sb9  1  0.50459100  0.55860800  0.68738800  1
  Sb  Sb10  1  0.49540900  0.44139200  0.31261200  1
  Sb  Sb11  1  0.50001300  0.31338900  0.93279500  1
  Sb  Sb12  1  0.49998700  0.68661100  0.06720500  1
  Sb  Sb13  1  0.00272300  0.87898700  0.62265300  1
  Sb  Sb14  1  0.99727700  0.12101300  0.37734700  1
  Sb  Sb15  1  0.00000000  0.00000000  0.00000000  1
  O  O16  1  0.19653500  0.64145600  0.61312500  1
  O  O17  1  0.19727600  0.88581500  0.35845100  1
  O  O18  1  0.18988300  0.01491600  0.73632900  1
  O  O19  1  0.19146100  0.26160900  0.48547900  1
  O  O20  1  0.18877300  0.13477800  0.11038700  1
  O  O21  1  0.19521500  0.52154900  0.23707200  1
  O  O22  1  0.19110100  0.38477200  0.85915200  1
  O  O23  1  0.20066100  0.76516000  0.98780000  1
  O  O24  1  0.30022200  0.20443400  0.30030800  1
  O  O25  1  0.29126100  0.32740600  0.67687800  1
  O  O26  1  0.31263000  0.69754000  0.79704800  1
  O  O27  1  0.29851700  0.82185500  0.17486900  1
  O  O28  1  0.30496300  0.44870100  0.04757100  1
  O  O29  1  0.30639800  0.07950800  0.92421400  1
  O  O30  1  0.30979300  0.57529700  0.42340000  1
  O  O31  1  0.30560300  0.95365500  0.54914000  1
  O  O32  1  0.69020700  0.42470300  0.57660000  1
  O  O33  1  0.70873900  0.67259400  0.32312200  1
  O  O34  1  0.70148300  0.17814500  0.82513100  1
  O  O35  1  0.68737000  0.30246000  0.20295200  1
  O  O36  1  0.69503700  0.55129900  0.95242900  1
  O  O37  1  0.69439700  0.04634500  0.45086000  1
  O  O38  1  0.69360200  0.92049200  0.07578600  1
  O  O39  1  0.69977800  0.79556600  0.69969200  1
  O  O40  1  0.80272400  0.11418500  0.64154900  1
  O  O41  1  0.80889900  0.61522800  0.14084800  1
  O  O42  1  0.80346500  0.35854400  0.38687500  1
  O  O43  1  0.81122700  0.86522200  0.88961300  1
  O  O44  1  0.80853900  0.73839100  0.51452100  1
  O  O45  1  0.79933900  0.23484000  0.01220000  1
  O  O46  1  0.80478500  0.47845100  0.76292800  1
  O  O47  1  0.81011700  0.98508400  0.26367100  1
