# generated using pymatgen
data_Li6Mn5Fe(BO3)6
_symmetry_space_group_name_H-M   'P 1'
_cell_length_a   8.26784300
_cell_length_b   3.18491300
_cell_length_c   14.33766115
_cell_angle_alpha   90.00000000
_cell_angle_beta   90.05306519
_cell_angle_gamma   90.00000000
_symmetry_Int_Tables_number   1
_chemical_formula_structural   Li6Mn5Fe(BO3)6
_chemical_formula_sum   'Li6 Mn5 Fe1 B6 O18'
_cell_volume   377.54430237
_cell_formula_units_Z   1
loop_
 _symmetry_equiv_pos_site_id
 _symmetry_equiv_pos_as_xyz
  1  'x, y, z'
loop_
 _atom_site_type_symbol
 _atom_site_label
 _atom_site_symmetry_multiplicity
 _atom_site_fract_x
 _atom_site_fract_y
 _atom_site_fract_z
 _atom_site_occupancy
  Li  Li0  1  0.29289500  0.50000000  0.00906500  1
  Li  Li1  1  0.34060800  0.50000000  0.64169100  1
  Li  Li2  1  0.36740600  0.50000000  0.34883300  1
  Li  Li3  1  0.79268100  0.50000000  0.50778100  1
  Li  Li4  1  0.84031700  0.50000000  0.14229600  1
  Li  Li5  1  0.86687100  0.50000000  0.84938500  1
  Mn  Mn6  1  0.13370500  0.00000000  0.49364400  1
  Mn  Mn7  1  0.17371100  0.00000000  0.18578200  1
  Mn  Mn8  1  0.19136400  0.00000000  0.82045500  1
  Mn  Mn9  1  0.63479700  0.00000000  0.99432400  1
  Mn  Mn10  1  0.67392500  0.00000000  0.68580300  1
  Fe  Fe11  1  0.68715400  0.00000000  0.32077300  1
  B  B12  1  0.99786300  0.50000000  0.33297500  1
  B  B13  1  0.00003000  0.00000000  0.00010100  1
  B  B14  1  0.99992800  0.50000000  0.66655600  1
  B  B15  1  0.50009100  0.50000000  0.83336200  1
  B  B16  1  0.50150700  0.00000000  0.49978700  1
  B  B17  1  0.50111200  0.50000000  0.16769800  1
  O  O18  1  0.01028600  0.50000000  0.56985500  1
  O  O19  1  0.01409900  0.50000000  0.23621500  1
  O  O20  1  0.13673000  0.50000000  0.38875900  1
  O  O21  1  0.14004600  0.50000000  0.72016200  1
  O  O22  1  0.15477400  0.00000000  0.03901500  1
  O  O23  1  0.34782000  0.50000000  0.87483100  1
  O  O24  1  0.34997900  0.50000000  0.20990100  1
  O  O25  1  0.36467100  0.00000000  0.55646900  1
  O  O26  1  0.48536200  0.00000000  0.40253500  1
  O  O27  1  0.51222800  0.50000000  0.07090300  1
  O  O28  1  0.51387100  0.50000000  0.73652100  1
  O  O29  1  0.63840200  0.50000000  0.88883500  1
  O  O30  1  0.64046000  0.50000000  0.22220500  1
  O  O31  1  0.65517200  0.00000000  0.53932500  1
  O  O32  1  0.84502500  0.50000000  0.37319000  1
  O  O33  1  0.84965100  0.50000000  0.70975500  1
  O  O34  1  0.86440000  0.00000000  0.05788800  1
  O  O35  1  0.98105900  0.00000000  0.90332700  1
