# generated using pymatgen
data_BaY3Br11
_symmetry_space_group_name_H-M   'P 1'
_cell_length_a   5.66029200
_cell_length_b   10.88951700
_cell_length_c   20.44134000
_cell_angle_alpha   90.00000000
_cell_angle_beta   90.00000000
_cell_angle_gamma   90.00000000
_symmetry_Int_Tables_number   1
_chemical_formula_structural   BaY3Br11
_chemical_formula_sum   'Ba2 Y6 Br22'
_cell_volume   1259.96016611
_cell_formula_units_Z   2
loop_
 _symmetry_equiv_pos_site_id
 _symmetry_equiv_pos_as_xyz
  1  'x, y, z'
loop_
 _atom_site_type_symbol
 _atom_site_label
 _atom_site_symmetry_multiplicity
 _atom_site_fract_x
 _atom_site_fract_y
 _atom_site_fract_z
 _atom_site_occupancy
  Ba  Ba0  1  0.00000000  0.75000000  0.01000800  1
  Ba  Ba1  1  0.00000000  0.25000000  0.98999200  1
  Y  Y2  1  0.00000000  0.00127900  0.23665200  1
  Y  Y3  1  0.00000000  0.49872100  0.23665200  1
  Y  Y4  1  0.00000000  0.00000000  0.50000000  1
  Y  Y5  1  0.00000000  0.50000000  0.50000000  1
  Y  Y6  1  0.00000000  0.99872100  0.76334800  1
  Y  Y7  1  0.00000000  0.50127900  0.76334800  1
  Br  Br8  1  0.50000000  0.75000000  0.06261300  1
  Br  Br9  1  0.00000000  0.03516600  0.10088700  1
  Br  Br10  1  0.00000000  0.46483400  0.10088700  1
  Br  Br11  1  0.00000000  0.75000000  0.20270200  1
  Br  Br12  1  0.50000000  0.00204800  0.23874200  1
  Br  Br13  1  0.50000000  0.49795200  0.23874200  1
  Br  Br14  1  0.00000000  0.25000000  0.27307900  1
  Br  Br15  1  0.00000000  0.92734200  0.36849700  1
  Br  Br16  1  0.00000000  0.57265800  0.36849700  1
  Br  Br17  1  0.00000000  0.25000000  0.46325700  1
  Br  Br18  1  0.50000000  0.00000000  0.50000000  1
  Br  Br19  1  0.50000000  0.50000000  0.50000000  1
  Br  Br20  1  0.00000000  0.75000000  0.53674300  1
  Br  Br21  1  0.00000000  0.07265800  0.63150300  1
  Br  Br22  1  0.00000000  0.42734200  0.63150300  1
  Br  Br23  1  0.00000000  0.75000000  0.72692100  1
  Br  Br24  1  0.50000000  0.99795200  0.76125800  1
  Br  Br25  1  0.50000000  0.50204800  0.76125800  1
  Br  Br26  1  0.00000000  0.25000000  0.79729800  1
  Br  Br27  1  0.00000000  0.96483400  0.89911300  1
  Br  Br28  1  0.00000000  0.53516600  0.89911300  1
  Br  Br29  1  0.50000000  0.25000000  0.93738700  1
