# generated using pymatgen
data_Li3Bi2(PO4)3
_symmetry_space_group_name_H-M   'P 1'
_cell_length_a   17.66012800
_cell_length_b   8.11230200
_cell_length_c   17.38783958
_cell_angle_alpha   90.00000000
_cell_angle_beta   118.90610692
_cell_angle_gamma   90.00000000
_symmetry_Int_Tables_number   1
_chemical_formula_structural   Li3Bi2(PO4)3
_chemical_formula_sum   'Li24 Bi16 P24 O96'
_cell_volume   2180.70328987
_cell_formula_units_Z   8
loop_
 _symmetry_equiv_pos_site_id
 _symmetry_equiv_pos_as_xyz
  1  'x, y, z'
loop_
 _atom_site_type_symbol
 _atom_site_label
 _atom_site_symmetry_multiplicity
 _atom_site_fract_x
 _atom_site_fract_y
 _atom_site_fract_z
 _atom_site_occupancy
  Li  Li0  1  0.13569900  0.63222400  0.14551700  1
  Li  Li1  1  0.67882700  0.54626400  0.55085800  1
  Li  Li2  1  0.50000000  0.96540300  0.25000000  1
  Li  Li3  1  0.82117300  0.04626400  0.94914200  1
  Li  Li4  1  0.36430100  0.13222400  0.35448300  1
  Li  Li5  1  0.25000000  0.25000000  0.00000000  1
  Li  Li6  1  0.63569900  0.86777600  0.64551700  1
  Li  Li7  1  0.17882700  0.95373600  0.05085800  1
  Li  Li8  1  0.50000000  0.03459700  0.75000000  1
  Li  Li9  1  0.32117300  0.45373600  0.44914200  1
  Li  Li10  1  0.86430100  0.36777600  0.85448300  1
  Li  Li11  1  0.25000000  0.75000000  0.50000000  1
  Li  Li12  1  0.63569900  0.13222400  0.14551700  1
  Li  Li13  1  0.17882700  0.04626400  0.55085800  1
  Li  Li14  1  0.00000000  0.46540300  0.25000000  1
  Li  Li15  1  0.32117300  0.54626400  0.94914200  1
  Li  Li16  1  0.86430100  0.63222400  0.35448300  1
  Li  Li17  1  0.75000000  0.75000000  0.00000000  1
  Li  Li18  1  0.13569900  0.36777600  0.64551700  1
  Li  Li19  1  0.67882700  0.45373600  0.05085800  1
  Li  Li20  1  0.00000000  0.53459700  0.75000000  1
  Li  Li21  1  0.82117300  0.95373600  0.44914200  1
  Li  Li22  1  0.36430100  0.86777600  0.85448300  1
  Li  Li23  1  0.75000000  0.25000000  0.50000000  1
  Bi  Bi24  1  0.96040150  0.75843050  0.97004900  1
  Bi  Bi25  1  0.34082700  0.40824200  0.66468900  1
  Bi  Bi26  1  0.65917300  0.40824200  0.83531100  1
  Bi  Bi27  1  0.53959850  0.25843050  0.52995100  1
  Bi  Bi28  1  0.46040150  0.74156950  0.47004900  1
  Bi  Bi29  1  0.34082700  0.59175800  0.16468900  1
  Bi  Bi30  1  0.65917300  0.59175800  0.33531100  1
  Bi  Bi31  1  0.03959850  0.24156950  0.02995100  1
  Bi  Bi32  1  0.46040150  0.25843050  0.97004900  1
  Bi  Bi33  1  0.84082700  0.90824200  0.66468900  1
  Bi  Bi34  1  0.15917300  0.90824200  0.83531100  1
  Bi  Bi35  1  0.03959850  0.75843050  0.52995100  1
  Bi  Bi36  1  0.96040150  0.24156950  0.47004900  1
  Bi  Bi37  1  0.84082700  0.09175800  0.16468900  1
  Bi  Bi38  1  0.15917300  0.09175800  0.33531100  1
  Bi  Bi39  1  0.53959850  0.74156950  0.02995100  1
  P  P40  1  0.49795950  0.43882850  0.13690000  1
  P  P41  1  0.78798550  0.71962550  0.81116500  1
  P  P42  1  0.64206350  0.97140950  0.46098600  1
  P  P43  1  0.35793650  0.97140950  0.03901400  1
  P  P44  1  0.71201450  0.21962550  0.68883500  1
  P  P45  1  0.50204050  0.43882850  0.36310000  1
  P  P46  1  0.49795950  0.56117150  0.63690000  1
  P  P47  1  0.28798550  0.78037450  0.31116500  1
  P  P48  1  0.64206350  0.02859050  0.96098600  1
  P  P49  1  0.35793650  0.02859050  0.53901400  1
  P  P50  1  0.21201450  0.28037450  0.18883500  1
  P  P51  1  0.50204050  0.56117150  0.86310000  1
  P  P52  1  0.99795950  0.93882850  0.13690000  1
  P  P53  1  0.28798550  0.21962550  0.81116500  1
  P  P54  1  0.14206350  0.47140950  0.46098600  1
  P  P55  1  0.85793650  0.47140950  0.03901400  1
  P  P56  1  0.21201450  0.71962550  0.68883500  1
  P  P57  1  0.00204050  0.93882850  0.36310000  1
  P  P58  1  0.99795950  0.06117150  0.63690000  1
  P  P59  1  0.78798550  0.28037450  0.31116500  1
  P  P60  1  0.14206350  0.52859050  0.96098600  1
  P  P61  1  0.85793650  0.52859050  0.53901400  1
  P  P62  1  0.71201450  0.78037450  0.18883500  1
  P  P63  1  0.00204050  0.06117150  0.86310000  1
  O  O64  1  0.25074950  0.71860450  0.21532300  1
  O  O65  1  0.32334050  0.63205050  0.37696200  1
  O  O66  1  0.43024750  0.60570150  0.66483200  1
  O  O67  1  0.55399900  0.49392800  0.96190500  1
  O  O68  1  0.11539550  0.63458250  0.01906300  1
  O  O69  1  0.44388950  0.41374950  0.80982600  1
  O  O70  1  0.54856550  0.28927850  0.13141100  1
  O  O71  1  0.86599650  0.60261650  0.83615300  1
  O  O72  1  0.74342900  0.96273200  0.49786800  1
  O  O73  1  0.78499250  0.13841850  0.67692100  1
  O  O74  1  0.59388100  0.91506800  0.36442000  1
  O  O75  1  0.75074950  0.78139550  0.71532300  1
  O  O76  1  0.37341350  0.15784850  0.02655200  1
  O  O77  1  0.82334050  0.86794950  0.87696200  1
  O  O78  1  0.62658650  0.15784850  0.47344800  1
  O  O79  1  0.43024750  0.39429850  0.16483200  1
  O  O80  1  0.40611900  0.91506800  0.13558000  1
  O  O81  1  0.55399900  0.50607200  0.46190500  1
  O  O82  1  0.71500750  0.63841850  0.82307900  1
  O  O83  1  0.61539550  0.86541750  0.51906300  1
  O  O84  1  0.44388950  0.58625050  0.30982600  1
  O  O85  1  0.25657100  0.96273200  0.00213200  1
  O  O86  1  0.45143450  0.28927850  0.36858900  1
  O  O87  1  0.63400350  0.10261650  0.66384700  1
  O  O88  1  0.36599650  0.89738350  0.33615300  1
  O  O89  1  0.54856550  0.71072150  0.63141100  1
  O  O90  1  0.74342900  0.03726800  0.99786800  1
  O  O91  1  0.55611050  0.41374950  0.69017400  1
  O  O92  1  0.38460450  0.13458250  0.48093700  1
  O  O93  1  0.28499250  0.36158150  0.17692100  1
  O  O94  1  0.44600100  0.49392800  0.53809500  1
  O  O95  1  0.59388100  0.08493200  0.86442000  1
  O  O96  1  0.56975250  0.60570150  0.83516800  1
  O  O97  1  0.37341350  0.84215150  0.52655200  1
  O  O98  1  0.17665950  0.13205050  0.12303800  1
  O  O99  1  0.62658650  0.84215150  0.97344800  1
  O  O100  1  0.24925050  0.21860450  0.28467700  1
  O  O101  1  0.40611900  0.08493200  0.63558000  1
  O  O102  1  0.21500750  0.86158150  0.32307900  1
  O  O103  1  0.25657100  0.03726800  0.50213200  1
  O  O104  1  0.13400350  0.39738350  0.16384700  1
  O  O105  1  0.45143450  0.71072150  0.86858900  1
  O  O106  1  0.55611050  0.58625050  0.19017400  1
  O  O107  1  0.88460450  0.36541750  0.98093700  1
  O  O108  1  0.44600100  0.50607200  0.03809500  1
  O  O109  1  0.56975250  0.39429850  0.33516800  1
  O  O110  1  0.67665950  0.36794950  0.62303800  1
  O  O111  1  0.74925050  0.28139550  0.78467700  1
  O  O112  1  0.75074950  0.21860450  0.21532300  1
  O  O113  1  0.82334050  0.13205050  0.37696200  1
  O  O114  1  0.93024750  0.10570150  0.66483200  1
  O  O115  1  0.05399900  0.99392800  0.96190500  1
  O  O116  1  0.61539550  0.13458250  0.01906300  1
  O  O117  1  0.94388950  0.91374950  0.80982600  1
  O  O118  1  0.04856550  0.78927850  0.13141100  1
  O  O119  1  0.36599650  0.10261650  0.83615300  1
  O  O120  1  0.24342900  0.46273200  0.49786800  1
  O  O121  1  0.28499250  0.63841850  0.67692100  1
  O  O122  1  0.09388100  0.41506800  0.36442000  1
  O  O123  1  0.25074950  0.28139550  0.71532300  1
  O  O124  1  0.87341350  0.65784850  0.02655200  1
  O  O125  1  0.32334050  0.36794950  0.87696200  1
  O  O126  1  0.12658650  0.65784850  0.47344800  1
  O  O127  1  0.93024750  0.89429850  0.16483200  1
  O  O128  1  0.90611900  0.41506800  0.13558000  1
  O  O129  1  0.05399900  0.00607200  0.46190500  1
  O  O130  1  0.21500750  0.13841850  0.82307900  1
  O  O131  1  0.11539550  0.36541750  0.51906300  1
  O  O132  1  0.94388950  0.08625050  0.30982600  1
  O  O133  1  0.75657100  0.46273200  0.00213200  1
  O  O134  1  0.95143450  0.78927850  0.36858900  1
  O  O135  1  0.13400350  0.60261650  0.66384700  1
  O  O136  1  0.86599650  0.39738350  0.33615300  1
  O  O137  1  0.04856550  0.21072150  0.63141100  1
  O  O138  1  0.24342900  0.53726800  0.99786800  1
  O  O139  1  0.05611050  0.91374950  0.69017400  1
  O  O140  1  0.88460450  0.63458250  0.48093700  1
  O  O141  1  0.78499250  0.86158150  0.17692100  1
  O  O142  1  0.94600100  0.99392800  0.53809500  1
  O  O143  1  0.09388100  0.58493200  0.86442000  1
  O  O144  1  0.06975250  0.10570150  0.83516800  1
  O  O145  1  0.87341350  0.34215150  0.52655200  1
  O  O146  1  0.67665950  0.63205050  0.12303800  1
  O  O147  1  0.12658650  0.34215150  0.97344800  1
  O  O148  1  0.74925050  0.71860450  0.28467700  1
  O  O149  1  0.90611900  0.58493200  0.63558000  1
  O  O150  1  0.71500750  0.36158150  0.32307900  1
  O  O151  1  0.75657100  0.53726800  0.50213200  1
  O  O152  1  0.63400350  0.89738350  0.16384700  1
  O  O153  1  0.95143450  0.21072150  0.86858900  1
  O  O154  1  0.05611050  0.08625050  0.19017400  1
  O  O155  1  0.38460450  0.86541750  0.98093700  1
  O  O156  1  0.94600100  0.00607200  0.03809500  1
  O  O157  1  0.06975250  0.89429850  0.33516800  1
  O  O158  1  0.17665950  0.86794950  0.62303800  1
  O  O159  1  0.24925050  0.78139550  0.78467700  1
