# generated using pymatgen
data_Li2CoSiO4
_symmetry_space_group_name_H-M   'P 1'
_cell_length_a   5.03803793
_cell_length_b   5.03803793
_cell_length_c   11.53360430
_cell_angle_alpha   90.00000000
_cell_angle_beta   90.00000000
_cell_angle_gamma   120.00000000
_symmetry_Int_Tables_number   1
_chemical_formula_structural   Li2CoSiO4
_chemical_formula_sum   'Li6 Co3 Si3 O12'
_cell_volume   253.52368865
_cell_formula_units_Z   3
loop_
 _symmetry_equiv_pos_site_id
 _symmetry_equiv_pos_as_xyz
  1  'x, y, z'
loop_
 _atom_site_type_symbol
 _atom_site_label
 _atom_site_symmetry_multiplicity
 _atom_site_fract_x
 _atom_site_fract_y
 _atom_site_fract_z
 _atom_site_occupancy
  Li  Li0  1  0.44700400  0.32756050  0.25267867  1
  Li  Li1  1  0.67243950  0.11944350  0.58601200  1
  Li  Li2  1  0.88055650  0.55299600  0.91934533  1
  Li  Li3  1  0.32756050  0.44700400  0.74732133  1
  Li  Li4  1  0.11944350  0.67243950  0.41398800  1
  Li  Li5  1  0.55299600  0.88055650  0.08065467  1
  Co  Co6  1  0.53967900  0.00000000  0.83333333  1
  Co  Co7  1  0.00000000  0.53967900  0.16666667  1
  Co  Co8  1  0.46032100  0.46032100  0.50000000  1
  Si  Si9  1  0.81312700  0.00000000  0.33333333  1
  Si  Si10  1  0.18687300  0.18687300  0.00000000  1
  Si  Si11  1  0.00000000  0.81312700  0.66666667  1
  O  O12  1  0.29094000  0.14911350  0.62833367  1
  O  O13  1  0.85088650  0.14182650  0.96166700  1
  O  O14  1  0.14911350  0.29094000  0.37166633  1
  O  O15  1  0.85817350  0.70906000  0.29500033  1
  O  O16  1  0.14182650  0.85088650  0.03833300  1
  O  O17  1  0.70906000  0.85817350  0.70499967  1
  O  O18  1  0.68065800  0.11376300  0.22436017  1
  O  O19  1  0.43310500  0.31934200  0.89102683  1
  O  O20  1  0.88623700  0.56689500  0.55769350  1
  O  O21  1  0.11376300  0.68065800  0.77563983  1
  O  O22  1  0.31934200  0.43310500  0.10897317  1
  O  O23  1  0.56689500  0.88623700  0.44230650  1
