# generated using pymatgen
data_Na3CoO3
_symmetry_space_group_name_H-M   'P 1'
_cell_length_a   6.44379900
_cell_length_b   9.63011700
_cell_length_c   6.89606541
_cell_angle_alpha   90.00000000
_cell_angle_beta   116.15701225
_cell_angle_gamma   90.00000000
_symmetry_Int_Tables_number   1
_chemical_formula_structural   Na3CoO3
_chemical_formula_sum   'Na12 Co4 O12'
_cell_volume   384.10735304
_cell_formula_units_Z   4
loop_
 _symmetry_equiv_pos_site_id
 _symmetry_equiv_pos_as_xyz
  1  'x, y, z'
loop_
 _atom_site_type_symbol
 _atom_site_label
 _atom_site_symmetry_multiplicity
 _atom_site_fract_x
 _atom_site_fract_y
 _atom_site_fract_z
 _atom_site_occupancy
  Na  Na0  1  0.96405700  0.21006700  0.99129200  1
  Na  Na1  1  0.46405700  0.28993300  0.99129200  1
  Na  Na2  1  0.75060800  0.05786100  0.23833300  1
  Na  Na3  1  0.79083500  0.78077400  0.46387800  1
  Na  Na4  1  0.25060800  0.44213900  0.23833300  1
  Na  Na5  1  0.70916500  0.28077400  0.53612200  1
  Na  Na6  1  0.29083500  0.71922600  0.46387800  1
  Na  Na7  1  0.74939200  0.55786100  0.76166700  1
  Na  Na8  1  0.20916500  0.21922600  0.53612200  1
  Na  Na9  1  0.24939200  0.94213900  0.76166700  1
  Na  Na10  1  0.53594300  0.71006700  0.00870800  1
  Na  Na11  1  0.03594300  0.78993300  0.00870800  1
  Co  Co12  1  0.81787200  0.48665000  0.27045300  1
  Co  Co13  1  0.31787200  0.01335000  0.27045300  1
  Co  Co14  1  0.68212800  0.98665000  0.72954700  1
  Co  Co15  1  0.18212800  0.51335000  0.72954700  1
  O  O16  1  0.95367400  0.60971500  0.17264600  1
  O  O17  1  0.86107800  0.30403400  0.26055500  1
  O  O18  1  0.45367400  0.89028500  0.17264600  1
  O  O19  1  0.60031900  0.55425700  0.33515700  1
  O  O20  1  0.36107800  0.19596600  0.26055500  1
  O  O21  1  0.89968100  0.05425700  0.66484300  1
  O  O22  1  0.10031900  0.94574300  0.33515700  1
  O  O23  1  0.63892200  0.80403400  0.73944500  1
  O  O24  1  0.39968100  0.44574300  0.66484300  1
  O  O25  1  0.54632600  0.10971500  0.82735400  1
  O  O26  1  0.13892200  0.69596600  0.73944500  1
  O  O27  1  0.04632600  0.39028500  0.82735400  1
