# generated using pymatgen
data_TeO3
_symmetry_space_group_name_H-M   'P 1'
_cell_length_a   4.92603800
_cell_length_b   5.21889800
_cell_length_c   8.46529700
_cell_angle_alpha   90.00000000
_cell_angle_beta   90.00000000
_cell_angle_gamma   90.00000000
_symmetry_Int_Tables_number   1
_chemical_formula_structural   TeO3
_chemical_formula_sum   'Te4 O12'
_cell_volume   217.63000214
_cell_formula_units_Z   4
loop_
 _symmetry_equiv_pos_site_id
 _symmetry_equiv_pos_as_xyz
  1  'x, y, z'
loop_
 _atom_site_type_symbol
 _atom_site_label
 _atom_site_symmetry_multiplicity
 _atom_site_fract_x
 _atom_site_fract_y
 _atom_site_fract_z
 _atom_site_occupancy
  Te  Te0  1  0.50000000  0.75000000  0.59253000  1
  Te  Te1  1  0.00000000  0.75000000  0.90747000  1
  Te  Te2  1  0.50000000  0.25000000  0.40747000  1
  Te  Te3  1  0.00000000  0.25000000  0.09253000  1
  O  O4  1  0.25000000  0.88857800  0.75000000  1
  O  O5  1  0.21267200  0.93525200  0.07381900  1
  O  O6  1  0.28732800  0.93525200  0.42618100  1
  O  O7  1  0.78732800  0.06474800  0.92618100  1
  O  O8  1  0.71267200  0.06474800  0.57381900  1
  O  O9  1  0.75000000  0.11142200  0.25000000  1
  O  O10  1  0.25000000  0.38857800  0.25000000  1
  O  O11  1  0.28732800  0.43525200  0.57381900  1
  O  O12  1  0.21267200  0.43525200  0.92618100  1
  O  O13  1  0.71267200  0.56474800  0.42618100  1
  O  O14  1  0.78732800  0.56474800  0.07381900  1
  O  O15  1  0.75000000  0.61142200  0.75000000  1
