# generated using pymatgen
data_V2OF5
_symmetry_space_group_name_H-M   'P 1'
_cell_length_a   5.25970800
_cell_length_b   5.43217435
_cell_length_c   17.38984078
_cell_angle_alpha   83.10309791
_cell_angle_beta   81.35410150
_cell_angle_gamma   61.10497763
_symmetry_Int_Tables_number   1
_chemical_formula_structural   V2OF5
_chemical_formula_sum   'V8 O4 F20'
_cell_volume   429.41129257
_cell_formula_units_Z   4
loop_
 _symmetry_equiv_pos_site_id
 _symmetry_equiv_pos_as_xyz
  1  'x, y, z'
loop_
 _atom_site_type_symbol
 _atom_site_label
 _atom_site_symmetry_multiplicity
 _atom_site_fract_x
 _atom_site_fract_y
 _atom_site_fract_z
 _atom_site_occupancy
  V  V0  1  0.59985100  0.64097600  0.11936500  1
  V  V1  1  0.13085500  0.13208100  0.62319000  1
  V  V2  1  0.23195000  0.27471300  0.25433400  1
  V  V3  1  0.75351000  0.75848900  0.75116700  1
  V  V4  1  0.87089700  0.86362500  0.37396600  1
  V  V5  1  0.40652900  0.34793700  0.87039800  1
  V  V6  1  0.01207500  0.98920400  0.00099900  1
  V  V7  1  0.48622600  0.48393100  0.50620000  1
  O  O8  1  0.34254700  0.33764100  0.57880600  1
  O  O9  1  0.38405600  0.78636400  0.04701300  1
  O  O10  1  0.13811400  0.54681300  0.30983700  1
  O  O11  1  0.63773100  0.07539200  0.81554700  1
  F  F12  1  0.83695600  0.83474200  0.08811500  1
  F  F13  1  0.90951400  0.31502400  0.06229400  1
  F  F14  1  0.41889200  0.80586500  0.56200900  1
  F  F15  1  0.34404900  0.93783100  0.19195000  1
  F  F16  1  0.62872700  0.03991000  0.28726700  1
  F  F17  1  0.14431700  0.54705500  0.78825700  1
  F  F18  1  0.41503800  0.40525500  0.16353400  1
  F  F19  1  0.91515800  0.91800400  0.66219600  1
  F  F20  1  0.10912700  0.71548100  0.46150700  1
  F  F21  1  0.84416800  0.44222100  0.68824700  1
  F  F22  1  0.08681400  0.07673900  0.33581600  1
  F  F23  1  0.88614600  0.28551300  0.53581900  1
  F  F24  1  0.59939000  0.58130400  0.83921000  1
  F  F25  1  0.61573000  0.20813400  0.96237900  1
  F  F26  1  0.64928500  0.65798500  0.41712000  1
  F  F27  1  0.86010400  0.45582300  0.20728800  1
  F  F28  1  0.36461100  0.96193100  0.71210600  1
  F  F29  1  0.11067300  0.67551700  0.93570400  1
  F  F30  1  0.58658200  0.19144500  0.43431100  1
  F  F31  1  0.16008100  0.16928100  0.91343500  1
