# generated using pymatgen
data_RbSrP3(HO2)6
_symmetry_space_group_name_H-M   'P 1'
_cell_length_a   8.26235300
_cell_length_b   9.27780200
_cell_length_c   15.48122000
_cell_angle_alpha   90.00000000
_cell_angle_beta   90.00000000
_cell_angle_gamma   90.00000000
_symmetry_Int_Tables_number   1
_chemical_formula_structural   RbSrP3(HO2)6
_chemical_formula_sum   'Rb4 Sr4 P12 H24 O48'
_cell_volume   1186.73575681
_cell_formula_units_Z   4
loop_
 _symmetry_equiv_pos_site_id
 _symmetry_equiv_pos_as_xyz
  1  'x, y, z'
loop_
 _atom_site_type_symbol
 _atom_site_label
 _atom_site_symmetry_multiplicity
 _atom_site_fract_x
 _atom_site_fract_y
 _atom_site_fract_z
 _atom_site_occupancy
  Rb  Rb0  1  0.25000000  0.90157800  0.30589200  1
  Rb  Rb1  1  0.25000000  0.40157800  0.19410800  1
  Rb  Rb2  1  0.75000000  0.09842200  0.69410800  1
  Rb  Rb3  1  0.75000000  0.59842200  0.80589200  1
  Sr  Sr4  1  0.25000000  0.09432000  0.97530200  1
  Sr  Sr5  1  0.25000000  0.59432000  0.52469800  1
  Sr  Sr6  1  0.75000000  0.90568000  0.02469800  1
  Sr  Sr7  1  0.75000000  0.40568000  0.47530200  1
  P  P8  1  0.25000000  0.48929500  0.93536300  1
  P  P9  1  0.25000000  0.98929500  0.56463700  1
  P  P10  1  0.75000000  0.51070500  0.06463700  1
  P  P11  1  0.75000000  0.01070500  0.43536300  1
  P  P12  1  0.42482600  0.32421000  0.80646500  1
  P  P13  1  0.07517400  0.82421000  0.69353500  1
  P  P14  1  0.92482600  0.67579000  0.19353500  1
  P  P15  1  0.57517400  0.17579000  0.30646500  1
  P  P16  1  0.57517400  0.67579000  0.19353500  1
  P  P17  1  0.92482600  0.17579000  0.30646500  1
  P  P18  1  0.07517400  0.32421000  0.80646500  1
  P  P19  1  0.42482600  0.82421000  0.69353500  1
  H  H20  1  0.48840000  0.37689000  0.62705600  1
  H  H21  1  0.01160000  0.87689000  0.87294400  1
  H  H22  1  0.98840000  0.62311000  0.37294400  1
  H  H23  1  0.51160000  0.12311000  0.12705600  1
  H  H24  1  0.51160000  0.62311000  0.37294400  1
  H  H25  1  0.98840000  0.12311000  0.12705600  1
  H  H26  1  0.01160000  0.37689000  0.62705600  1
  H  H27  1  0.48840000  0.87689000  0.87294400  1
  H  H28  1  0.40120800  0.28332300  0.55589600  1
  H  H29  1  0.09879200  0.78332300  0.94410400  1
  H  H30  1  0.90120800  0.71667700  0.44410400  1
  H  H31  1  0.59879200  0.21667700  0.05589600  1
  H  H32  1  0.59879200  0.71667700  0.44410400  1
  H  H33  1  0.90120800  0.21667700  0.05589600  1
  H  H34  1  0.09879200  0.28332300  0.55589600  1
  H  H35  1  0.40120800  0.78332300  0.94410400  1
  H  H36  1  0.34769800  0.36819500  0.38881200  1
  H  H37  1  0.15230200  0.86819500  0.11118800  1
  H  H38  1  0.84769800  0.63180500  0.61118800  1
  H  H39  1  0.65230200  0.13180500  0.88881200  1
  H  H40  1  0.65230200  0.63180500  0.61118800  1
  H  H41  1  0.84769800  0.13180500  0.88881200  1
  H  H42  1  0.15230200  0.36819500  0.38881200  1
  H  H43  1  0.34769800  0.86819500  0.11118800  1
  O  O44  1  0.25000000  0.31725000  0.75843300  1
  O  O45  1  0.25000000  0.81725000  0.74156700  1
  O  O46  1  0.75000000  0.68275000  0.24156700  1
  O  O47  1  0.75000000  0.18275000  0.25843300  1
  O  O48  1  0.44743600  0.19272500  0.86214600  1
  O  O49  1  0.05256400  0.69272500  0.63785400  1
  O  O50  1  0.94743600  0.80727500  0.13785400  1
  O  O51  1  0.55256400  0.30727500  0.36214600  1
  O  O52  1  0.55256400  0.80727500  0.13785400  1
  O  O53  1  0.94743600  0.30727500  0.36214600  1
  O  O54  1  0.05256400  0.19272500  0.86214600  1
  O  O55  1  0.44743600  0.69272500  0.63785400  1
  O  O56  1  0.95180200  0.35842500  0.73896600  1
  O  O57  1  0.54819800  0.85842500  0.76103400  1
  O  O58  1  0.45180200  0.64157500  0.26103400  1
  O  O59  1  0.04819800  0.14157500  0.23896600  1
  O  O60  1  0.04819800  0.64157500  0.26103400  1
  O  O61  1  0.45180200  0.14157500  0.23896600  1
  O  O62  1  0.54819800  0.35842500  0.73896600  1
  O  O63  1  0.95180200  0.85842500  0.76103400  1
  O  O64  1  0.40262300  0.46616400  0.86817400  1
  O  O65  1  0.09737700  0.96616400  0.63182600  1
  O  O66  1  0.90262300  0.53383600  0.13182600  1
  O  O67  1  0.59737700  0.03383600  0.36817400  1
  O  O68  1  0.59737700  0.53383600  0.13182600  1
  O  O69  1  0.90262300  0.03383600  0.36817400  1
  O  O70  1  0.09737700  0.46616400  0.86817400  1
  O  O71  1  0.40262300  0.96616400  0.63182600  1
  O  O72  1  0.25000000  0.87128200  0.49824900  1
  O  O73  1  0.25000000  0.37128200  0.00175100  1
  O  O74  1  0.75000000  0.12871800  0.50175100  1
  O  O75  1  0.75000000  0.62871800  0.99824900  1
  O  O76  1  0.25000000  0.14400500  0.53776300  1
  O  O77  1  0.25000000  0.64400500  0.96223700  1
  O  O78  1  0.75000000  0.85599500  0.46223700  1
  O  O79  1  0.75000000  0.35599500  0.03776300  1
  O  O80  1  0.46210600  0.37455800  0.56450500  1
  O  O81  1  0.03789400  0.87455800  0.93549500  1
  O  O82  1  0.96210600  0.62544200  0.43549500  1
  O  O83  1  0.53789400  0.12544200  0.06450500  1
  O  O84  1  0.53789400  0.62544200  0.43549500  1
  O  O85  1  0.96210600  0.12544200  0.06450500  1
  O  O86  1  0.03789400  0.37455800  0.56450500  1
  O  O87  1  0.46210600  0.87455800  0.93549500  1
  O  O88  1  0.25000000  0.42860200  0.39542600  1
  O  O89  1  0.25000000  0.92860200  0.10457400  1
  O  O90  1  0.75000000  0.57139800  0.60457400  1
  O  O91  1  0.75000000  0.07139800  0.89542600  1
