# generated using pymatgen
data_LiCoSiO4
_symmetry_space_group_name_H-M   'P 1'
_cell_length_a   13.81448001
_cell_length_b   13.81448001
_cell_length_c   9.27726664
_cell_angle_alpha   90.00000000
_cell_angle_beta   90.00000000
_cell_angle_gamma   120.00000000
_symmetry_Int_Tables_number   1
_chemical_formula_structural   LiCoSiO4
_chemical_formula_sum   'Li18 Co18 Si18 O72'
_cell_volume   1533.27394366
_cell_formula_units_Z   18
loop_
 _symmetry_equiv_pos_site_id
 _symmetry_equiv_pos_as_xyz
  1  'x, y, z'
loop_
 _atom_site_type_symbol
 _atom_site_label
 _atom_site_symmetry_multiplicity
 _atom_site_fract_x
 _atom_site_fract_y
 _atom_site_fract_z
 _atom_site_occupancy
  Li  Li0  1  0.54371900  0.68550700  0.57987500  1
  Li  Li1  1  0.79348200  0.98460700  0.41594900  1
  Li  Li2  1  0.01539300  0.80887500  0.41594900  1
  Li  Li3  1  0.31449300  0.85821200  0.57987500  1
  Li  Li4  1  0.19112500  0.20651800  0.41594900  1
  Li  Li5  1  0.14178800  0.45628100  0.57987500  1
  Li  Li6  1  0.21038567  0.01884033  0.91320833  1
  Li  Li7  1  0.46014867  0.31794033  0.74928233  1
  Li  Li8  1  0.68205967  0.14220833  0.74928233  1
  Li  Li9  1  0.98115967  0.19154533  0.91320833  1
  Li  Li10  1  0.85779167  0.53985133  0.74928233  1
  Li  Li11  1  0.80845467  0.78961433  0.91320833  1
  Li  Li12  1  0.87705233  0.35217367  0.24654167  1
  Li  Li13  1  0.12681533  0.65127367  0.08261567  1
  Li  Li14  1  0.34872633  0.47554167  0.08261567  1
  Li  Li15  1  0.64782633  0.52487867  0.24654167  1
  Li  Li16  1  0.52445833  0.87318467  0.08261567  1
  Li  Li17  1  0.47512133  0.12294767  0.24654167  1
  Co  Co18  1  0.80510900  0.79056200  0.24771000  1
  Co  Co19  1  0.78593500  0.98086200  0.74852600  1
  Co  Co20  1  0.01913800  0.80507300  0.74852600  1
  Co  Co21  1  0.98545300  0.19489100  0.24771000  1
  Co  Co22  1  0.20943800  0.01454700  0.24771000  1
  Co  Co23  1  0.19492700  0.21406500  0.74852600  1
  Co  Co24  1  0.47177567  0.12389533  0.58104333  1
  Co  Co25  1  0.45260167  0.31419533  0.08185933  1
  Co  Co26  1  0.68580467  0.13840633  0.08185933  1
  Co  Co27  1  0.65211967  0.52822433  0.58104333  1
  Co  Co28  1  0.87610467  0.34788033  0.58104333  1
  Co  Co29  1  0.86159367  0.54739833  0.08185933  1
  Co  Co30  1  0.13844233  0.45722867  0.91437667  1
  Co  Co31  1  0.11926833  0.64752867  0.41519267  1
  Co  Co32  1  0.35247133  0.47173967  0.41519267  1
  Co  Co33  1  0.31878633  0.86155767  0.91437667  1
  Co  Co34  1  0.54277133  0.68121367  0.91437667  1
  Co  Co35  1  0.52826033  0.88073167  0.41519267  1
  Si  Si36  1  0.86326067  0.54127833  0.41686933  1
  Si  Si37  1  0.80386300  0.78889000  0.58356500  1
  Si  Si38  1  0.67801767  0.13673933  0.41686933  1
  Si  Si39  1  0.98502700  0.19613700  0.58356500  1
  Si  Si40  1  0.21111000  0.01497300  0.58356500  1
  Si  Si41  1  0.45872167  0.32198233  0.41686933  1
  Si  Si42  1  0.52992733  0.87461167  0.75020267  1
  Si  Si43  1  0.47052967  0.12222333  0.91689833  1
  Si  Si44  1  0.34468433  0.47007267  0.75020267  1
  Si  Si45  1  0.65169367  0.52947033  0.91689833  1
  Si  Si46  1  0.87777667  0.34830633  0.91689833  1
  Si  Si47  1  0.12538833  0.65531567  0.75020267  1
  Si  Si48  1  0.19659400  0.20794500  0.08353600  1
  Si  Si49  1  0.13719633  0.45555667  0.25023167  1
  Si  Si50  1  0.01135100  0.80340600  0.08353600  1
  Si  Si51  1  0.31836033  0.86280367  0.25023167  1
  Si  Si52  1  0.54444333  0.68163967  0.25023167  1
  Si  Si53  1  0.79205500  0.98864900  0.08353600  1
  O  O54  1  0.54910100  0.76577100  0.75612100  1
  O  O55  1  0.79965633  0.53932167  0.26576967  1
  O  O56  1  0.67992333  0.67459167  0.58778867  1
  O  O57  1  0.98801667  0.65424633  0.42046633  1
  O  O58  1  0.87924700  0.79345200  0.72283600  1
  O  O59  1  0.86554667  0.79400033  0.42967433  1
  O  O60  1  0.78412700  0.89709400  0.59027700  1
  O  O61  1  0.66622967  0.01198333  0.42046633  1
  O  O62  1  0.79796667  0.92165633  0.22537733  1
  O  O63  1  0.07834367  0.87631033  0.22537733  1
  O  O64  1  0.73966533  0.20034367  0.26576967  1
  O  O65  1  0.10290600  0.88703300  0.59027700  1
  O  O66  1  0.23422900  0.78333000  0.75612100  1
  O  O67  1  0.91420500  0.12075300  0.72283600  1
  O  O68  1  0.92845367  0.13445333  0.42967433  1
  O  O69  1  0.20599967  0.07154633  0.42967433  1
  O  O70  1  0.20654800  0.08579500  0.72283600  1
  O  O71  1  0.99466833  0.32007667  0.58778867  1
  O  O72  1  0.32540833  0.00533167  0.58778867  1
  O  O73  1  0.11296700  0.21587300  0.59027700  1
  O  O74  1  0.12368967  0.20203333  0.22537733  1
  O  O75  1  0.21667000  0.45089900  0.75612100  1
  O  O76  1  0.34575367  0.33377033  0.42046633  1
  O  O77  1  0.46067833  0.26033467  0.26576967  1
  O  O78  1  0.21576767  0.09910433  0.08945433  1
  O  O79  1  0.46632300  0.87265500  0.59910300  1
  O  O80  1  0.34659000  0.00792500  0.92112200  1
  O  O81  1  0.65468333  0.98757967  0.75379967  1
  O  O82  1  0.54591367  0.12678533  0.05616933  1
  O  O83  1  0.53221333  0.12733367  0.76300767  1
  O  O84  1  0.45079367  0.23042733  0.92361033  1
  O  O85  1  0.33289633  0.34531667  0.75379967  1
  O  O86  1  0.46463333  0.25498967  0.55871067  1
  O  O87  1  0.74501033  0.20964367  0.55871067  1
  O  O88  1  0.40633200  0.53367700  0.59910300  1
  O  O89  1  0.76957267  0.22036633  0.92361033  1
  O  O90  1  0.90089567  0.11666333  0.08945433  1
  O  O91  1  0.58087167  0.45408633  0.05616933  1
  O  O92  1  0.59512033  0.46778667  0.76300767  1
  O  O93  1  0.87266633  0.40487967  0.76300767  1
  O  O94  1  0.87321467  0.41912833  0.05616933  1
  O  O95  1  0.66133500  0.65341000  0.92112200  1
  O  O96  1  0.99207500  0.33866500  0.92112200  1
  O  O97  1  0.77963367  0.54920633  0.92361033  1
  O  O98  1  0.79035633  0.53536667  0.55871067  1
  O  O99  1  0.88333667  0.78423233  0.08945433  1
  O  O100  1  0.01242033  0.66710367  0.75379967  1
  O  O101  1  0.12734500  0.59366800  0.59910300  1
  O  O102  1  0.88243433  0.43243767  0.42278767  1
  O  O103  1  0.13298967  0.20598833  0.93243633  1
  O  O104  1  0.01325667  0.34125833  0.25445533  1
  O  O105  1  0.32135000  0.32091300  0.08713300  1
  O  O106  1  0.21258033  0.46011867  0.38950267  1
  O  O107  1  0.19888000  0.46066700  0.09634100  1
  O  O108  1  0.11746033  0.56376067  0.25694367  1
  O  O109  1  0.99956300  0.67865000  0.08713300  1
  O  O110  1  0.13130000  0.58832300  0.89204400  1
  O  O111  1  0.41167700  0.54297700  0.89204400  1
  O  O112  1  0.07299867  0.86701033  0.93243633  1
  O  O113  1  0.43623933  0.55369967  0.25694367  1
  O  O114  1  0.56756233  0.44999667  0.42278767  1
  O  O115  1  0.24753833  0.78741967  0.38950267  1
  O  O116  1  0.26178700  0.80112000  0.09634100  1
  O  O117  1  0.53933300  0.73821300  0.09634100  1
  O  O118  1  0.53988133  0.75246167  0.38950267  1
  O  O119  1  0.32800167  0.98674333  0.25445533  1
  O  O120  1  0.65874167  0.67199833  0.25445533  1
  O  O121  1  0.44630033  0.88253967  0.25694367  1
  O  O122  1  0.45702300  0.86870000  0.89204400  1
  O  O123  1  0.55000333  0.11756567  0.42278767  1
  O  O124  1  0.67908700  0.00043700  0.08713300  1
  O  O125  1  0.79401167  0.92700133  0.93243633  1
