# generated using pymatgen
data_Cu2O3
_symmetry_space_group_name_H-M   'P 1'
_cell_length_a   3.60871200
_cell_length_b   9.72776800
_cell_length_c   11.92010400
_cell_angle_alpha   90.00000000
_cell_angle_beta   90.00000000
_cell_angle_gamma   90.00000000
_symmetry_Int_Tables_number   1
_chemical_formula_structural   Cu2O3
_chemical_formula_sum   'Cu16 O24'
_cell_volume   418.45183122
_cell_formula_units_Z   8
loop_
 _symmetry_equiv_pos_site_id
 _symmetry_equiv_pos_as_xyz
  1  'x, y, z'
loop_
 _atom_site_type_symbol
 _atom_site_label
 _atom_site_symmetry_multiplicity
 _atom_site_fract_x
 _atom_site_fract_y
 _atom_site_fract_z
 _atom_site_occupancy
  Cu  Cu0  1  0.49475250  0.88486350  0.20291900  1
  Cu  Cu1  1  0.24475250  0.63486350  0.04708100  1
  Cu  Cu2  1  0.24475250  0.86513650  0.45291900  1
  Cu  Cu3  1  0.49475250  0.61513650  0.29708100  1
  Cu  Cu4  1  0.99475250  0.88486350  0.70291900  1
  Cu  Cu5  1  0.74475250  0.63486350  0.54708100  1
  Cu  Cu6  1  0.74475250  0.86513650  0.95291900  1
  Cu  Cu7  1  0.99475250  0.61513650  0.79708100  1
  Cu  Cu8  1  0.99475250  0.38486350  0.20291900  1
  Cu  Cu9  1  0.74475250  0.13486350  0.04708100  1
  Cu  Cu10  1  0.74475250  0.36513650  0.45291900  1
  Cu  Cu11  1  0.99475250  0.11513650  0.29708100  1
  Cu  Cu12  1  0.49475250  0.38486350  0.70291900  1
  Cu  Cu13  1  0.24475250  0.13486350  0.54708100  1
  Cu  Cu14  1  0.24475250  0.36513650  0.95291900  1
  Cu  Cu15  1  0.49475250  0.11513650  0.79708100  1
  O  O16  1  0.17740200  0.75000000  0.25000000  1
  O  O17  1  0.37143800  0.51608800  0.16861000  1
  O  O18  1  0.62143800  0.76608800  0.08139000  1
  O  O19  1  0.92740200  0.50000000  0.00000000  1
  O  O20  1  0.62143800  0.73391200  0.41861000  1
  O  O21  1  0.37143800  0.98391200  0.33139000  1
  O  O22  1  0.67740200  0.75000000  0.75000000  1
  O  O23  1  0.87143800  0.51608800  0.66861000  1
  O  O24  1  0.12143800  0.76608800  0.58139000  1
  O  O25  1  0.42740200  0.50000000  0.50000000  1
  O  O26  1  0.12143800  0.73391200  0.91861000  1
  O  O27  1  0.87143800  0.98391200  0.83139000  1
  O  O28  1  0.67740200  0.25000000  0.25000000  1
  O  O29  1  0.87143800  0.01608800  0.16861000  1
  O  O30  1  0.12143800  0.26608800  0.08139000  1
  O  O31  1  0.42740200  0.00000000  0.00000000  1
  O  O32  1  0.12143800  0.23391200  0.41861000  1
  O  O33  1  0.87143800  0.48391200  0.33139000  1
  O  O34  1  0.17740200  0.25000000  0.75000000  1
  O  O35  1  0.37143800  0.01608800  0.66861000  1
  O  O36  1  0.62143800  0.26608800  0.58139000  1
  O  O37  1  0.92740200  0.00000000  0.50000000  1
  O  O38  1  0.62143800  0.23391200  0.91861000  1
  O  O39  1  0.37143800  0.48391200  0.83139000  1
