# generated using pymatgen
data_BiOF
_symmetry_space_group_name_H-M   'P 1'
_cell_length_a   3.98061202
_cell_length_b   3.98061202
_cell_length_c   23.73947119
_cell_angle_alpha   90.00000000
_cell_angle_beta   90.00000000
_cell_angle_gamma   120.00000000
_symmetry_Int_Tables_number   1
_chemical_formula_structural   BiOF
_chemical_formula_sum   'Bi6 O6 F6'
_cell_volume   325.76271250
_cell_formula_units_Z   6
loop_
 _symmetry_equiv_pos_site_id
 _symmetry_equiv_pos_as_xyz
  1  'x, y, z'
loop_
 _atom_site_type_symbol
 _atom_site_label
 _atom_site_symmetry_multiplicity
 _atom_site_fract_x
 _atom_site_fract_y
 _atom_site_fract_z
 _atom_site_occupancy
  Bi  Bi0  1  0.33333333  0.66666667  0.06248267  1
  Bi  Bi1  1  0.33333333  0.66666667  0.27085067  1
  Bi  Bi2  1  0.00000000  0.00000000  0.39581600  1
  Bi  Bi3  1  0.00000000  0.00000000  0.60418400  1
  Bi  Bi4  1  0.66666667  0.33333333  0.72914933  1
  Bi  Bi5  1  0.66666667  0.33333333  0.93751733  1
  O  O6  1  0.66666667  0.33333333  0.03190933  1
  O  O7  1  0.00000000  0.00000000  0.30142400  1
  O  O8  1  0.33333333  0.66666667  0.36524267  1
  O  O9  1  0.66666667  0.33333333  0.63475733  1
  O  O10  1  0.00000000  0.00000000  0.69857600  1
  O  O11  1  0.33333333  0.66666667  0.96809067  1
  F  F12  1  0.66666667  0.33333333  0.22971633  1
  F  F13  1  0.00000000  0.00000000  0.10361700  1
  F  F14  1  0.33333333  0.66666667  0.56304967  1
  F  F15  1  0.66666667  0.33333333  0.43695033  1
  F  F16  1  0.00000000  0.00000000  0.89638300  1
  F  F17  1  0.33333333  0.66666667  0.77028367  1
