# generated using pymatgen
data_V(TeO3)4
_symmetry_space_group_name_H-M   'P 1'
_cell_length_a   5.15272677
_cell_length_b   5.84184238
_cell_length_c   8.13899795
_cell_angle_alpha   79.14195815
_cell_angle_beta   89.33192951
_cell_angle_gamma   88.19588802
_symmetry_Int_Tables_number   1
_chemical_formula_structural   V(TeO3)4
_chemical_formula_sum   'V1 Te4 O12'
_cell_volume   240.48584037
_cell_formula_units_Z   1
loop_
 _symmetry_equiv_pos_site_id
 _symmetry_equiv_pos_as_xyz
  1  'x, y, z'
loop_
 _atom_site_type_symbol
 _atom_site_label
 _atom_site_symmetry_multiplicity
 _atom_site_fract_x
 _atom_site_fract_y
 _atom_site_fract_z
 _atom_site_occupancy
  V  V0  1  0.98397500  0.63833350  0.29473350  1
  Te  Te1  1  0.02484150  0.95538600  0.96699700  1
  Te  Te2  1  0.48381800  0.48150500  0.50322700  1
  Te  Te3  1  0.04205100  0.03149350  0.52143050  1
  Te  Te4  1  0.49196950  0.42271300  0.95554700  1
  O  O5  1  0.68189650  0.75209300  0.40105100  1
  O  O6  1  0.87554950  0.98033250  0.73482350  1
  O  O7  1  0.70618100  0.12105550  0.01190350  1
  O  O8  1  0.79701400  0.33113950  0.42642750  1
  O  O9  1  0.18078650  0.26671300  0.91035700  1
  O  O10  1  0.62133550  0.49259000  0.72377900  1
  O  O11  1  0.29315950  0.45271400  0.29739000  1
  O  O12  1  0.86810450  0.64840200  0.07590100  1
  O  O13  1  0.17204800  0.66186800  0.53429700  1
  O  O14  1  0.31038400  0.78229750  0.89691450  1
  O  O15  1  0.11967250  0.92826200  0.20539100  1
  O  O16  1  0.34721650  0.17170450  0.59912850  1
