# generated using pymatgen
data_Fe3P2(HO)16
_symmetry_space_group_name_H-M   'P 1'
_cell_length_a   10.24931600
_cell_length_b   13.37256400
_cell_length_c   4.78610890
_cell_angle_alpha   90.00000000
_cell_angle_beta   104.30091206
_cell_angle_gamma   90.00000000
_symmetry_Int_Tables_number   1
_chemical_formula_structural   Fe3P2(HO)16
_chemical_formula_sum   'Fe6 P4 H32 O32'
_cell_volume   635.65462310
_cell_formula_units_Z   2
loop_
 _symmetry_equiv_pos_site_id
 _symmetry_equiv_pos_as_xyz
  1  'x, y, z'
loop_
 _atom_site_type_symbol
 _atom_site_label
 _atom_site_symmetry_multiplicity
 _atom_site_fract_x
 _atom_site_fract_y
 _atom_site_fract_z
 _atom_site_occupancy
  Fe  Fe0  1  0.00000000  0.00000000  0.00000000  1
  Fe  Fe1  1  0.50000000  0.11011700  0.00000000  1
  Fe  Fe2  1  0.50000000  0.88988300  0.00000000  1
  Fe  Fe3  1  0.50000000  0.50000000  0.00000000  1
  Fe  Fe4  1  0.00000000  0.61011700  0.00000000  1
  Fe  Fe5  1  0.00000000  0.38988300  0.00000000  1
  P  P6  1  0.68841400  0.00000000  0.62608400  1
  P  P7  1  0.31158600  0.00000000  0.37391600  1
  P  P8  1  0.18841400  0.50000000  0.62608400  1
  P  P9  1  0.81158600  0.50000000  0.37391600  1
  H  H10  1  0.18969750  0.87079550  0.94293300  1
  H  H11  1  0.81030250  0.87079550  0.05706700  1
  H  H12  1  0.81030250  0.12920450  0.05706700  1
  H  H13  1  0.18969750  0.12920450  0.94293300  1
  H  H14  1  0.12684800  0.91675000  0.63391900  1
  H  H15  1  0.87315200  0.91675000  0.36608100  1
  H  H16  1  0.87315200  0.08325000  0.36608100  1
  H  H17  1  0.12684800  0.08325000  0.63391900  1
  H  H18  1  0.63063350  0.80295850  0.48490100  1
  H  H19  1  0.36936650  0.80295850  0.51509900  1
  H  H20  1  0.36936650  0.19704150  0.51509900  1
  H  H21  1  0.63063350  0.19704150  0.48490100  1
  H  H22  1  0.54345100  0.71875200  0.28510200  1
  H  H23  1  0.45654900  0.71875200  0.71489800  1
  H  H24  1  0.45654900  0.28124800  0.71489800  1
  H  H25  1  0.54345100  0.28124800  0.28510200  1
  H  H26  1  0.68969750  0.37079550  0.94293300  1
  H  H27  1  0.31030250  0.37079550  0.05706700  1
  H  H28  1  0.31030250  0.62920450  0.05706700  1
  H  H29  1  0.68969750  0.62920450  0.94293300  1
  H  H30  1  0.62684800  0.41675000  0.63391900  1
  H  H31  1  0.37315200  0.41675000  0.36608100  1
  H  H32  1  0.37315200  0.58325000  0.36608100  1
  H  H33  1  0.62684800  0.58325000  0.63391900  1
  H  H34  1  0.13063350  0.30295850  0.48490100  1
  H  H35  1  0.86936650  0.30295850  0.51509900  1
  H  H36  1  0.86936650  0.69704150  0.51509900  1
  H  H37  1  0.13063350  0.69704150  0.48490100  1
  H  H38  1  0.04345100  0.21875200  0.28510200  1
  H  H39  1  0.95654900  0.21875200  0.71489800  1
  H  H40  1  0.95654900  0.78124800  0.71489800  1
  H  H41  1  0.04345100  0.78124800  0.28510200  1
  O  O42  1  0.84305800  0.00000000  0.63208400  1
  O  O43  1  0.15694200  0.00000000  0.36791600  1
  O  O44  1  0.61071200  0.00000000  0.30567200  1
  O  O45  1  0.38928800  0.00000000  0.69432800  1
  O  O46  1  0.65851200  0.09711100  0.78098000  1
  O  O47  1  0.34148800  0.09711100  0.21902000  1
  O  O48  1  0.34148800  0.90288900  0.21902000  1
  O  O49  1  0.65851200  0.90288900  0.78098000  1
  O  O50  1  0.39800000  0.38262700  0.20115000  1
  O  O51  1  0.60200000  0.38262700  0.79885000  1
  O  O52  1  0.60200000  0.61737300  0.79885000  1
  O  O53  1  0.39800000  0.61737300  0.20115000  1
  O  O54  1  0.60355800  0.77630800  0.28664000  1
  O  O55  1  0.39644200  0.77630800  0.71336000  1
  O  O56  1  0.39644200  0.22369200  0.71336000  1
  O  O57  1  0.60355800  0.22369200  0.28664000  1
  O  O58  1  0.34305800  0.50000000  0.63208400  1
  O  O59  1  0.65694200  0.50000000  0.36791600  1
  O  O60  1  0.11071200  0.50000000  0.30567200  1
  O  O61  1  0.88928800  0.50000000  0.69432800  1
  O  O62  1  0.15851200  0.59711100  0.78098000  1
  O  O63  1  0.84148800  0.59711100  0.21902000  1
  O  O64  1  0.84148800  0.40288900  0.21902000  1
  O  O65  1  0.15851200  0.40288900  0.78098000  1
  O  O66  1  0.89800000  0.88262700  0.20115000  1
  O  O67  1  0.10200000  0.88262700  0.79885000  1
  O  O68  1  0.10200000  0.11737300  0.79885000  1
  O  O69  1  0.89800000  0.11737300  0.20115000  1
  O  O70  1  0.10355800  0.27630800  0.28664000  1
  O  O71  1  0.89644200  0.27630800  0.71336000  1
  O  O72  1  0.89644200  0.72369200  0.71336000  1
  O  O73  1  0.10355800  0.72369200  0.28664000  1
