# generated using pymatgen
data_TeH14C2(NO2)4
_symmetry_space_group_name_H-M   'P 1'
_cell_length_a   15.01155000
_cell_length_b   9.02466000
_cell_length_c   9.99927131
_cell_angle_alpha   90.00000000
_cell_angle_beta   129.21671650
_cell_angle_gamma   90.00000000
_symmetry_Int_Tables_number   1
_chemical_formula_structural   TeH14C2(NO2)4
_chemical_formula_sum   'Te4 H56 C8 N16 O32'
_cell_volume   1049.52299954
_cell_formula_units_Z   4
loop_
 _symmetry_equiv_pos_site_id
 _symmetry_equiv_pos_as_xyz
  1  'x, y, z'
loop_
 _atom_site_type_symbol
 _atom_site_label
 _atom_site_symmetry_multiplicity
 _atom_site_fract_x
 _atom_site_fract_y
 _atom_site_fract_z
 _atom_site_occupancy
  Te  Te0  1  0.00000000  0.43377500  0.25000000  1
  Te  Te1  1  0.50000000  0.06622500  0.75000000  1
  Te  Te2  1  0.50000000  0.93377500  0.25000000  1
  Te  Te3  1  0.00000000  0.56622500  0.75000000  1
  H  H4  1  0.84844150  0.81983050  0.41087100  1
  H  H5  1  0.89816450  0.56737550  0.33710700  1
  H  H6  1  0.11273150  0.79669650  0.80217600  1
  H  H7  1  0.88113050  0.76920550  0.10238900  1
  H  H8  1  0.13343300  0.03062700  0.68133900  1
  H  H9  1  0.10126450  0.79109050  0.55335400  1
  H  H10  1  0.30452900  0.95693500  0.96639600  1
  H  H11  1  0.11886950  0.76920550  0.39761100  1
  H  H12  1  0.19547100  0.45693500  0.53360400  1
  H  H13  1  0.34844150  0.68016950  0.91087100  1
  H  H14  1  0.11273150  0.20330350  0.30217600  1
  H  H15  1  0.39873550  0.29109050  0.94664600  1
  H  H16  1  0.36656700  0.53062700  0.81866100  1
  H  H17  1  0.10183550  0.56737550  0.16289300  1
  H  H18  1  0.39816450  0.93262450  0.83710700  1
  H  H19  1  0.13343300  0.96937300  0.18133900  1
  H  H20  1  0.10126450  0.20890950  0.05335400  1
  H  H21  1  0.38726850  0.29669650  0.69782400  1
  H  H22  1  0.15155850  0.81983050  0.08912900  1
  H  H23  1  0.30452900  0.04306500  0.46639600  1
  H  H24  1  0.38113050  0.73079450  0.60238900  1
  H  H25  1  0.19547100  0.54306500  0.03360400  1
  H  H26  1  0.39873550  0.70890950  0.44664600  1
  H  H27  1  0.36656700  0.46937300  0.31866100  1
  H  H28  1  0.61886950  0.73079450  0.89761100  1
  H  H29  1  0.38726850  0.70330350  0.19782400  1
  H  H30  1  0.60183550  0.93262450  0.66289300  1
  H  H31  1  0.65155850  0.68016950  0.58912900  1
  H  H32  1  0.34844150  0.31983050  0.41087100  1
  H  H33  1  0.39816450  0.06737550  0.33710700  1
  H  H34  1  0.61273150  0.29669650  0.80217600  1
  H  H35  1  0.38113050  0.26920550  0.10238900  1
  H  H36  1  0.63343300  0.53062700  0.68133900  1
  H  H37  1  0.60126450  0.29109050  0.55335400  1
  H  H38  1  0.80452900  0.45693500  0.96639600  1
  H  H39  1  0.61886950  0.26920550  0.39761100  1
  H  H40  1  0.69547100  0.95693500  0.53360400  1
  H  H41  1  0.84844150  0.18016950  0.91087100  1
  H  H42  1  0.61273150  0.70330350  0.30217600  1
  H  H43  1  0.89873550  0.79109050  0.94664600  1
  H  H44  1  0.86656700  0.03062700  0.81866100  1
  H  H45  1  0.60183550  0.06737550  0.16289300  1
  H  H46  1  0.89816450  0.43262450  0.83710700  1
  H  H47  1  0.63343300  0.46937300  0.18133900  1
  H  H48  1  0.60126450  0.70890950  0.05335400  1
  H  H49  1  0.88726850  0.79669650  0.69782400  1
  H  H50  1  0.65155850  0.31983050  0.08912900  1
  H  H51  1  0.80452900  0.54306500  0.46639600  1
  H  H52  1  0.88113050  0.23079450  0.60238900  1
  H  H53  1  0.69547100  0.04306500  0.03360400  1
  H  H54  1  0.89873550  0.20890950  0.44664600  1
  H  H55  1  0.86656700  0.96937300  0.31866100  1
  H  H56  1  0.11886950  0.23079450  0.89761100  1
  H  H57  1  0.88726850  0.20330350  0.19782400  1
  H  H58  1  0.10183550  0.43262450  0.66289300  1
  H  H59  1  0.15155850  0.18016950  0.58912900  1
  C  C60  1  0.14301100  0.01934200  0.98683300  1
  C  C61  1  0.14301100  0.98065800  0.48683300  1
  C  C62  1  0.35698900  0.51934200  0.51316700  1
  C  C63  1  0.35698900  0.48065800  0.01316700  1
  C  C64  1  0.64301100  0.51934200  0.98683300  1
  C  C65  1  0.64301100  0.48065800  0.48683300  1
  C  C66  1  0.85698900  0.01934200  0.51316700  1
  C  C67  1  0.85698900  0.98065800  0.01316700  1
  N  N68  1  0.87416650  0.83481750  0.01323300  1
  N  N69  1  0.14116850  0.06972250  0.59293200  1
  N  N70  1  0.12583350  0.83481750  0.48676700  1
  N  N71  1  0.35883150  0.56972250  0.90706800  1
  N  N72  1  0.14116850  0.93027750  0.09293200  1
  N  N73  1  0.37416650  0.66518250  0.51323300  1
  N  N74  1  0.35883150  0.43027750  0.40706800  1
  N  N75  1  0.62583350  0.66518250  0.98676700  1
  N  N76  1  0.37416650  0.33481750  0.01323300  1
  N  N77  1  0.64116850  0.56972250  0.59293200  1
  N  N78  1  0.62583350  0.33481750  0.48676700  1
  N  N79  1  0.85883150  0.06972250  0.90706800  1
  N  N80  1  0.64116850  0.43027750  0.09293200  1
  N  N81  1  0.87416650  0.16518250  0.51323300  1
  N  N82  1  0.85883150  0.93027750  0.40706800  1
  N  N83  1  0.12583350  0.16518250  0.98676700  1
  O  O84  1  0.08181000  0.71047900  0.71901900  1
  O  O85  1  0.16182050  0.96480150  0.88747000  1
  O  O86  1  0.91822900  0.59317200  0.26206900  1
  O  O87  1  0.37987950  0.92909850  0.99611000  1
  O  O88  1  0.12012050  0.42909850  0.50389000  1
  O  O89  1  0.08177100  0.59317200  0.23793100  1
  O  O90  1  0.08181000  0.28952100  0.21901900  1
  O  O91  1  0.16182050  0.03519850  0.38747000  1
  O  O92  1  0.33817950  0.46480150  0.61253000  1
  O  O93  1  0.41819000  0.21047900  0.78098100  1
  O  O94  1  0.41822900  0.90682800  0.76206900  1
  O  O95  1  0.37987950  0.07090150  0.49611000  1
  O  O96  1  0.12012050  0.57090150  0.00389000  1
  O  O97  1  0.58177100  0.90682800  0.73793100  1
  O  O98  1  0.33817950  0.53519850  0.11253000  1
  O  O99  1  0.41819000  0.78952100  0.28098100  1
  O  O100  1  0.58181000  0.21047900  0.71901900  1
  O  O101  1  0.66182050  0.46480150  0.88747000  1
  O  O102  1  0.41822900  0.09317200  0.26206900  1
  O  O103  1  0.87987950  0.42909850  0.99611000  1
  O  O104  1  0.62012050  0.92909850  0.50389000  1
  O  O105  1  0.58177100  0.09317200  0.23793100  1
  O  O106  1  0.58181000  0.78952100  0.21901900  1
  O  O107  1  0.66182050  0.53519850  0.38747000  1
  O  O108  1  0.83817950  0.96480150  0.61253000  1
  O  O109  1  0.91819000  0.71047900  0.78098100  1
  O  O110  1  0.91822900  0.40682800  0.76206900  1
  O  O111  1  0.87987950  0.57090150  0.49611000  1
  O  O112  1  0.62012050  0.07090150  0.00389000  1
  O  O113  1  0.08177100  0.40682800  0.73793100  1
  O  O114  1  0.83817950  0.03519850  0.11253000  1
  O  O115  1  0.91819000  0.28952100  0.28098100  1
