# generated using pymatgen
data_Y2GeO5
_symmetry_space_group_name_H-M   'P 1'
_cell_length_a   3.72970300
_cell_length_b   10.36176900
_cell_length_c   11.14399000
_cell_angle_alpha   90.00000000
_cell_angle_beta   90.00000000
_cell_angle_gamma   90.00000000
_symmetry_Int_Tables_number   1
_chemical_formula_structural   Y2GeO5
_chemical_formula_sum   'Y8 Ge4 O20'
_cell_volume   430.67421392
_cell_formula_units_Z   4
loop_
 _symmetry_equiv_pos_site_id
 _symmetry_equiv_pos_as_xyz
  1  'x, y, z'
loop_
 _atom_site_type_symbol
 _atom_site_label
 _atom_site_symmetry_multiplicity
 _atom_site_fract_x
 _atom_site_fract_y
 _atom_site_fract_z
 _atom_site_occupancy
  Y  Y0  1  0.25000000  0.11012100  0.77677100  1
  Y  Y1  1  0.25000000  0.13581000  0.44282300  1
  Y  Y2  1  0.75000000  0.36419000  0.94282300  1
  Y  Y3  1  0.75000000  0.38987900  0.27677100  1
  Y  Y4  1  0.25000000  0.61012100  0.72322900  1
  Y  Y5  1  0.25000000  0.63581000  0.05717700  1
  Y  Y6  1  0.75000000  0.86419000  0.55717700  1
  Y  Y7  1  0.75000000  0.88987900  0.22322900  1
  Ge  Ge8  1  0.25000000  0.17460700  0.11909000  1
  Ge  Ge9  1  0.75000000  0.32539300  0.61909000  1
  Ge  Ge10  1  0.25000000  0.67460700  0.38091000  1
  Ge  Ge11  1  0.75000000  0.82539300  0.88091000  1
  O  O12  1  0.75000000  0.00724700  0.39647300  1
  O  O13  1  0.25000000  0.00926200  0.15797000  1
  O  O14  1  0.25000000  0.22277700  0.96130000  1
  O  O15  1  0.75000000  0.23101100  0.11607500  1
  O  O16  1  0.75000000  0.24195700  0.76604000  1
  O  O17  1  0.25000000  0.25804300  0.26604000  1
  O  O18  1  0.25000000  0.26898900  0.61607500  1
  O  O19  1  0.75000000  0.27722300  0.46130000  1
  O  O20  1  0.75000000  0.49073800  0.65797000  1
  O  O21  1  0.25000000  0.49275300  0.89647300  1
  O  O22  1  0.75000000  0.50724700  0.10352700  1
  O  O23  1  0.25000000  0.50926200  0.34203000  1
  O  O24  1  0.25000000  0.72277700  0.53870000  1
  O  O25  1  0.75000000  0.73101100  0.38392500  1
  O  O26  1  0.75000000  0.74195700  0.73396000  1
  O  O27  1  0.25000000  0.75804300  0.23396000  1
  O  O28  1  0.25000000  0.76898900  0.88392500  1
  O  O29  1  0.75000000  0.77722300  0.03870000  1
  O  O30  1  0.75000000  0.99073800  0.84203000  1
  O  O31  1  0.25000000  0.99275300  0.60352700  1
