# generated using pymatgen
data_Gd3TaO7
_symmetry_space_group_name_H-M   'P 1'
_cell_length_a   7.56963500
_cell_length_b   10.68886600
_cell_length_c   7.58986900
_cell_angle_alpha   90.00000000
_cell_angle_beta   90.00000000
_cell_angle_gamma   90.00000000
_symmetry_Int_Tables_number   1
_chemical_formula_structural   Gd3TaO7
_chemical_formula_sum   'Gd12 Ta4 O28'
_cell_volume   614.10248034
_cell_formula_units_Z   4
loop_
 _symmetry_equiv_pos_site_id
 _symmetry_equiv_pos_as_xyz
  1  'x, y, z'
loop_
 _atom_site_type_symbol
 _atom_site_label
 _atom_site_symmetry_multiplicity
 _atom_site_fract_x
 _atom_site_fract_y
 _atom_site_fract_z
 _atom_site_occupancy
  Gd  Gd0  1  0.23322500  0.76706400  0.25264900  1
  Gd  Gd1  1  0.76677500  0.76706400  0.24735100  1
  Gd  Gd2  1  0.48091900  0.00000000  0.00000000  1
  Gd  Gd3  1  0.51908100  0.00000000  0.50000000  1
  Gd  Gd4  1  0.76677500  0.23293600  0.75264900  1
  Gd  Gd5  1  0.23322500  0.23293600  0.74735100  1
  Gd  Gd6  1  0.73322500  0.26706400  0.25264900  1
  Gd  Gd7  1  0.26677500  0.26706400  0.24735100  1
  Gd  Gd8  1  0.98091900  0.50000000  0.00000000  1
  Gd  Gd9  1  0.01908100  0.50000000  0.50000000  1
  Gd  Gd10  1  0.26677500  0.73293600  0.75264900  1
  Gd  Gd11  1  0.73322500  0.73293600  0.74735100  1
  Ta  Ta12  1  0.00144900  0.00000000  0.50000000  1
  Ta  Ta13  1  0.99855100  0.00000000  0.00000000  1
  Ta  Ta14  1  0.50144900  0.50000000  0.50000000  1
  Ta  Ta15  1  0.49855100  0.50000000  0.00000000  1
  O  O16  1  0.50000000  0.56271700  0.75000000  1
  O  O17  1  0.50000000  0.86246600  0.75000000  1
  O  O18  1  0.18668450  0.87413550  0.53560900  1
  O  O19  1  0.81331550  0.87413550  0.96439100  1
  O  O20  1  0.50000000  0.87131400  0.25000000  1
  O  O21  1  0.79963750  0.87745050  0.52831100  1
  O  O22  1  0.20036250  0.87745050  0.97168900  1
  O  O23  1  0.20036250  0.12254950  0.02831100  1
  O  O24  1  0.79963750  0.12254950  0.47168900  1
  O  O25  1  0.50000000  0.12868600  0.75000000  1
  O  O26  1  0.81331550  0.12586450  0.03560900  1
  O  O27  1  0.18668450  0.12586450  0.46439100  1
  O  O28  1  0.50000000  0.13753400  0.25000000  1
  O  O29  1  0.50000000  0.43728300  0.25000000  1
  O  O30  1  0.00000000  0.06271700  0.75000000  1
  O  O31  1  0.00000000  0.36246600  0.75000000  1
  O  O32  1  0.68668450  0.37413550  0.53560900  1
  O  O33  1  0.31331550  0.37413550  0.96439100  1
  O  O34  1  0.00000000  0.37131400  0.25000000  1
  O  O35  1  0.29963750  0.37745050  0.52831100  1
  O  O36  1  0.70036250  0.37745050  0.97168900  1
  O  O37  1  0.70036250  0.62254950  0.02831100  1
  O  O38  1  0.29963750  0.62254950  0.47168900  1
  O  O39  1  0.00000000  0.62868600  0.75000000  1
  O  O40  1  0.31331550  0.62586450  0.03560900  1
  O  O41  1  0.68668450  0.62586450  0.46439100  1
  O  O42  1  0.00000000  0.63753400  0.25000000  1
  O  O43  1  0.00000000  0.93728300  0.25000000  1
