# generated using pymatgen
data_Li3Ti(PO4)2
_symmetry_space_group_name_H-M   'P 1'
_cell_length_a   8.30936400
_cell_length_b   5.49746800
_cell_length_c   6.25105805
_cell_angle_alpha   90.00000000
_cell_angle_beta   90.47525995
_cell_angle_gamma   90.00000000
_symmetry_Int_Tables_number   1
_chemical_formula_structural   Li3Ti(PO4)2
_chemical_formula_sum   'Li6 Ti2 P4 O16'
_cell_volume   285.54140044
_cell_formula_units_Z   2
loop_
 _symmetry_equiv_pos_site_id
 _symmetry_equiv_pos_as_xyz
  1  'x, y, z'
loop_
 _atom_site_type_symbol
 _atom_site_label
 _atom_site_symmetry_multiplicity
 _atom_site_fract_x
 _atom_site_fract_y
 _atom_site_fract_z
 _atom_site_occupancy
  Li  Li0  1  0.32957500  0.00000000  0.77808700  1
  Li  Li1  1  0.00000000  0.00000000  0.00000000  1
  Li  Li2  1  0.67042500  0.00000000  0.22191300  1
  Li  Li3  1  0.82957500  0.50000000  0.77808700  1
  Li  Li4  1  0.50000000  0.50000000  0.00000000  1
  Li  Li5  1  0.17042500  0.50000000  0.22191300  1
  Ti  Ti6  1  0.00000000  0.00000000  0.50000000  1
  Ti  Ti7  1  0.50000000  0.50000000  0.50000000  1
  P  P8  1  0.34989100  0.00000000  0.26748500  1
  P  P9  1  0.65010900  0.00000000  0.73251500  1
  P  P10  1  0.84989100  0.50000000  0.26748500  1
  P  P11  1  0.15010900  0.50000000  0.73251500  1
  O  O12  1  0.75715500  0.00000000  0.93330400  1
  O  O13  1  0.75567800  0.00000000  0.52860700  1
  O  O14  1  0.46639750  0.77723750  0.27171200  1
  O  O15  1  0.46639750  0.22276250  0.27171200  1
  O  O16  1  0.53360250  0.77723750  0.72828800  1
  O  O17  1  0.53360250  0.22276250  0.72828800  1
  O  O18  1  0.24432200  0.00000000  0.47139300  1
  O  O19  1  0.24284500  0.00000000  0.06669600  1
  O  O20  1  0.25715500  0.50000000  0.93330400  1
  O  O21  1  0.25567800  0.50000000  0.52860700  1
  O  O22  1  0.96639750  0.27723750  0.27171200  1
  O  O23  1  0.96639750  0.72276250  0.27171200  1
  O  O24  1  0.03360250  0.27723750  0.72828800  1
  O  O25  1  0.03360250  0.72276250  0.72828800  1
  O  O26  1  0.74432200  0.50000000  0.47139300  1
  O  O27  1  0.74284500  0.50000000  0.06669600  1
