# generated using pymatgen
data_Zr2N2O
_symmetry_space_group_name_H-M   'P 1'
_cell_length_a   13.68158800
_cell_length_b   3.35567000
_cell_length_c   16.67824352
_cell_angle_alpha   90.00000000
_cell_angle_beta   100.75434543
_cell_angle_gamma   90.00000000
_symmetry_Int_Tables_number   1
_chemical_formula_structural   Zr2N2O
_chemical_formula_sum   'Zr24 N24 O12'
_cell_volume   752.26428310
_cell_formula_units_Z   12
loop_
 _symmetry_equiv_pos_site_id
 _symmetry_equiv_pos_as_xyz
  1  'x, y, z'
loop_
 _atom_site_type_symbol
 _atom_site_label
 _atom_site_symmetry_multiplicity
 _atom_site_fract_x
 _atom_site_fract_y
 _atom_site_fract_z
 _atom_site_occupancy
  Zr  Zr0  1  0.96982600  0.00000000  0.84545300  1
  Zr  Zr1  1  0.96338000  0.00000000  0.34782000  1
  Zr  Zr2  1  0.87156600  0.50000000  0.01250400  1
  Zr  Zr3  1  0.80467300  0.50000000  0.18285900  1
  Zr  Zr4  1  0.86540900  0.50000000  0.50349900  1
  Zr  Zr5  1  0.69532700  0.00000000  0.81714100  1
  Zr  Zr6  1  0.80296000  0.50000000  0.68464200  1
  Zr  Zr7  1  0.62843400  0.00000000  0.98749600  1
  Zr  Zr8  1  0.69704000  0.00000000  0.31535800  1
  Zr  Zr9  1  0.63459100  0.00000000  0.49650100  1
  Zr  Zr10  1  0.53017400  0.50000000  0.15454700  1
  Zr  Zr11  1  0.53662000  0.50000000  0.65218000  1
  Zr  Zr12  1  0.46982600  0.50000000  0.84545300  1
  Zr  Zr13  1  0.46338000  0.50000000  0.34782000  1
  Zr  Zr14  1  0.37156600  0.00000000  0.01250400  1
  Zr  Zr15  1  0.30467300  0.00000000  0.18285900  1
  Zr  Zr16  1  0.36540900  0.00000000  0.50349900  1
  Zr  Zr17  1  0.19532700  0.50000000  0.81714100  1
  Zr  Zr18  1  0.30296000  0.00000000  0.68464200  1
  Zr  Zr19  1  0.12843400  0.50000000  0.98749600  1
  Zr  Zr20  1  0.19704000  0.50000000  0.31535800  1
  Zr  Zr21  1  0.13459100  0.50000000  0.49650100  1
  Zr  Zr22  1  0.03017400  0.00000000  0.15454700  1
  Zr  Zr23  1  0.03662000  0.00000000  0.65218000  1
  N  N24  1  0.96622400  0.50000000  0.92107800  1
  N  N25  1  0.97438500  0.50000000  0.42212200  1
  N  N26  1  0.82654700  0.00000000  0.76602300  1
  N  N27  1  0.87236100  0.00000000  0.10559100  1
  N  N28  1  0.82835200  0.00000000  0.26443700  1
  N  N29  1  0.79591000  0.00000000  0.43757500  1
  N  N30  1  0.62763900  0.50000000  0.89440900  1
  N  N31  1  0.67345300  0.50000000  0.23397700  1
  N  N32  1  0.70409000  0.50000000  0.56242500  1
  N  N33  1  0.67164800  0.50000000  0.73556300  1
  N  N34  1  0.53377600  0.00000000  0.07892200  1
  N  N35  1  0.52561500  0.00000000  0.57787800  1
  N  N36  1  0.46622400  0.00000000  0.92107800  1
  N  N37  1  0.47438500  0.00000000  0.42212200  1
  N  N38  1  0.32654700  0.50000000  0.76602300  1
  N  N39  1  0.37236100  0.50000000  0.10559100  1
  N  N40  1  0.32835200  0.50000000  0.26443700  1
  N  N41  1  0.29591000  0.50000000  0.43757500  1
  N  N42  1  0.12763900  0.00000000  0.89440900  1
  N  N43  1  0.17345300  0.00000000  0.23397700  1
  N  N44  1  0.20409000  0.00000000  0.56242500  1
  N  N45  1  0.17164800  0.00000000  0.73556300  1
  N  N46  1  0.03377600  0.50000000  0.07892200  1
  N  N47  1  0.02561500  0.50000000  0.57787800  1
  O  O48  1  0.79197900  0.00000000  0.94022000  1
  O  O49  1  0.87424000  0.00000000  0.61304000  1
  O  O50  1  0.70802100  0.50000000  0.05978000  1
  O  O51  1  0.62576000  0.50000000  0.38696000  1
  O  O52  1  0.99977300  0.50000000  0.25015400  1
  O  O53  1  0.50022700  0.00000000  0.74984600  1
  O  O54  1  0.29197900  0.50000000  0.94022000  1
  O  O55  1  0.37424000  0.50000000  0.61304000  1
  O  O56  1  0.20802100  0.00000000  0.05978000  1
  O  O57  1  0.12576000  0.00000000  0.38696000  1
  O  O58  1  0.49977300  0.00000000  0.25015400  1
  O  O59  1  0.00022700  0.50000000  0.74984600  1
