# generated using pymatgen
data_LiFe5O5F
_symmetry_space_group_name_H-M   'P 1'
_cell_length_a   3.58851400
_cell_length_b   6.14566400
_cell_length_c   13.45052800
_cell_angle_alpha   90.00000000
_cell_angle_beta   90.00000000
_cell_angle_gamma   90.00000000
_symmetry_Int_Tables_number   1
_chemical_formula_structural   LiFe5O5F
_chemical_formula_sum   'Li2 Fe10 O10 F2'
_cell_volume   296.63527194
_cell_formula_units_Z   2
loop_
 _symmetry_equiv_pos_site_id
 _symmetry_equiv_pos_as_xyz
  1  'x, y, z'
loop_
 _atom_site_type_symbol
 _atom_site_label
 _atom_site_symmetry_multiplicity
 _atom_site_fract_x
 _atom_site_fract_y
 _atom_site_fract_z
 _atom_site_occupancy
  Li  Li0  1  0.50000000  0.16641400  0.00000000  1
  Li  Li1  1  0.00000000  0.66641400  0.00000000  1
  Fe  Fe2  1  0.50000000  0.15882100  0.33100700  1
  Fe  Fe3  1  0.50000000  0.15882100  0.66899300  1
  Fe  Fe4  1  0.50000000  0.82831400  0.50000000  1
  Fe  Fe5  1  0.50000000  0.82683800  0.16632300  1
  Fe  Fe6  1  0.50000000  0.82683800  0.83367700  1
  Fe  Fe7  1  0.00000000  0.65882100  0.33100700  1
  Fe  Fe8  1  0.00000000  0.65882100  0.66899300  1
  Fe  Fe9  1  0.00000000  0.32831400  0.50000000  1
  Fe  Fe10  1  0.00000000  0.32683800  0.16632300  1
  Fe  Fe11  1  0.00000000  0.32683800  0.83367700  1
  O  O12  1  0.50000000  0.17701100  0.50000000  1
  O  O13  1  0.50000000  0.17641300  0.83776600  1
  O  O14  1  0.50000000  0.17641300  0.16223400  1
  O  O15  1  0.50000000  0.83381700  0.33196100  1
  O  O16  1  0.50000000  0.83381700  0.66803900  1
  O  O17  1  0.00000000  0.67701100  0.50000000  1
  O  O18  1  0.00000000  0.67641300  0.83776600  1
  O  O19  1  0.00000000  0.67641300  0.16223400  1
  O  O20  1  0.00000000  0.33381700  0.33196100  1
  O  O21  1  0.00000000  0.33381700  0.66803900  1
  F  F22  1  0.50000000  0.83493800  0.00000000  1
  F  F23  1  0.00000000  0.33493800  0.00000000  1
