# generated using pymatgen
data_Mn(PO3)3
_symmetry_space_group_name_H-M   'P 1'
_cell_length_a   6.81070842
_cell_length_b   7.25270985
_cell_length_c   7.30005695
_cell_angle_alpha   95.01628238
_cell_angle_beta   100.26201971
_cell_angle_gamma   93.14173241
_symmetry_Int_Tables_number   1
_chemical_formula_structural   Mn(PO3)3
_chemical_formula_sum   'Mn2 P6 O18'
_cell_volume   352.55461484
_cell_formula_units_Z   2
loop_
 _symmetry_equiv_pos_site_id
 _symmetry_equiv_pos_as_xyz
  1  'x, y, z'
loop_
 _atom_site_type_symbol
 _atom_site_label
 _atom_site_symmetry_multiplicity
 _atom_site_fract_x
 _atom_site_fract_y
 _atom_site_fract_z
 _atom_site_occupancy
  Mn  Mn0  1  0.08717650  0.18209250  0.84089350  1
  Mn  Mn1  1  0.91282350  0.81790750  0.15910650  1
  P  P2  1  0.19264850  0.14652050  0.43077050  1
  P  P3  1  0.80735150  0.85347950  0.56922950  1
  P  P4  1  0.88196050  0.33358550  0.19128800  1
  P  P5  1  0.11803950  0.66641450  0.80871200  1
  P  P6  1  0.43695400  0.32566900  0.18596150  1
  P  P7  1  0.56304600  0.67433100  0.81403850  1
  O  O8  1  0.85671600  0.04182300  0.68015100  1
  O  O9  1  0.14328400  0.95817700  0.31984900  1
  O  O10  1  0.23838650  0.14328150  0.64119400  1
  O  O11  1  0.76161350  0.85671850  0.35880600  1
  O  O12  1  0.92747850  0.19498150  0.03738400  1
  O  O13  1  0.07252150  0.80501850  0.96261600  1
  O  O14  1  0.33184150  0.18809750  0.02267650  1
  O  O15  1  0.66815850  0.81190250  0.97732350  1
  O  O16  1  0.01434650  0.28121550  0.38507800  1
  O  O17  1  0.98565350  0.71878450  0.61492200  1
  O  O18  1  0.38324650  0.24519450  0.37703700  1
  O  O19  1  0.61675350  0.75480550  0.62296300  1
  O  O20  1  0.58911550  0.47464150  0.81117350  1
  O  O21  1  0.41088450  0.52535850  0.18882650  1
  O  O22  1  0.66647400  0.26951600  0.22381950  1
  O  O23  1  0.33352600  0.73048400  0.77618050  1
  O  O24  1  0.08357400  0.46438600  0.81762300  1
  O  O25  1  0.91642600  0.53561400  0.18237700  1
