# generated using pymatgen
data_Li5Nb3OF18
_symmetry_space_group_name_H-M   'P 1'
_cell_length_a   12.93084200
_cell_length_b   12.93084200
_cell_length_c   8.25249000
_cell_angle_alpha   90.00000000
_cell_angle_beta   90.00000000
_cell_angle_gamma   90.00000000
_symmetry_Int_Tables_number   1
_chemical_formula_structural   Li5Nb3OF18
_chemical_formula_sum   'Li20 Nb12 O4 F72'
_cell_volume   1379.87141196
_cell_formula_units_Z   4
loop_
 _symmetry_equiv_pos_site_id
 _symmetry_equiv_pos_as_xyz
  1  'x, y, z'
loop_
 _atom_site_type_symbol
 _atom_site_label
 _atom_site_symmetry_multiplicity
 _atom_site_fract_x
 _atom_site_fract_y
 _atom_site_fract_z
 _atom_site_occupancy
  Li  Li0  1  0.76010500  0.91670500  0.00858200  1
  Li  Li1  1  0.76010500  0.08329500  0.50858200  1
  Li  Li2  1  0.58329500  0.73989500  0.00858200  1
  Li  Li3  1  0.58329500  0.26010500  0.50858200  1
  Li  Li4  1  0.50000000  0.00000000  0.63038800  1
  Li  Li5  1  0.50000000  0.00000000  0.13038800  1
  Li  Li6  1  0.41670500  0.73989500  0.50858200  1
  Li  Li7  1  0.41670500  0.26010500  0.00858200  1
  Li  Li8  1  0.23989500  0.91670500  0.50858200  1
  Li  Li9  1  0.23989500  0.08329500  0.00858200  1
  Li  Li10  1  0.26010500  0.41670500  0.50858200  1
  Li  Li11  1  0.26010500  0.58329500  0.00858200  1
  Li  Li12  1  0.08329500  0.23989500  0.50858200  1
  Li  Li13  1  0.08329500  0.76010500  0.00858200  1
  Li  Li14  1  0.00000000  0.50000000  0.13038800  1
  Li  Li15  1  0.00000000  0.50000000  0.63038800  1
  Li  Li16  1  0.91670500  0.23989500  0.00858200  1
  Li  Li17  1  0.91670500  0.76010500  0.50858200  1
  Li  Li18  1  0.73989500  0.41670500  0.00858200  1
  Li  Li19  1  0.73989500  0.58329500  0.50858200  1
  Nb  Nb20  1  0.00000000  0.00000000  0.75463100  1
  Nb  Nb21  1  0.00000000  0.00000000  0.25463100  1
  Nb  Nb22  1  0.66788900  0.83211100  0.51942900  1
  Nb  Nb23  1  0.66788900  0.16788900  0.01942900  1
  Nb  Nb24  1  0.33211100  0.16788900  0.51942900  1
  Nb  Nb25  1  0.33211100  0.83211100  0.01942900  1
  Nb  Nb26  1  0.50000000  0.50000000  0.25463100  1
  Nb  Nb27  1  0.50000000  0.50000000  0.75463100  1
  Nb  Nb28  1  0.16788900  0.33211100  0.01942900  1
  Nb  Nb29  1  0.16788900  0.66788900  0.51942900  1
  Nb  Nb30  1  0.83211100  0.66788900  0.01942900  1
  Nb  Nb31  1  0.83211100  0.33211100  0.51942900  1
  O  O32  1  0.00000000  0.00000000  0.97181800  1
  O  O33  1  0.00000000  0.00000000  0.47181800  1
  O  O34  1  0.50000000  0.50000000  0.47181800  1
  O  O35  1  0.50000000  0.50000000  0.97181800  1
  F  F36  1  0.85169550  0.97674950  0.71669450  1
  F  F37  1  0.85169550  0.02325050  0.21669450  1
  F  F38  1  0.80013450  0.87990450  0.43745750  1
  F  F39  1  0.80013450  0.12009550  0.93745750  1
  F  F40  1  0.27804850  0.22195150  0.08225250  1
  F  F41  1  0.27804850  0.77804850  0.58225250  1
  F  F42  1  0.66294300  0.83705700  0.75641600  1
  F  F43  1  0.66294300  0.16294300  0.25641600  1
  F  F44  1  0.65022550  0.98819250  0.55934450  1
  F  F45  1  0.65022550  0.01180750  0.05934450  1
  F  F46  1  0.61897350  0.88102650  0.31190250  1
  F  F47  1  0.61897350  0.11897350  0.81190250  1
  F  F48  1  0.62009550  0.69986550  0.43745750  1
  F  F49  1  0.62009550  0.30013450  0.93745750  1
  F  F50  1  0.52325050  0.35169550  0.21669450  1
  F  F51  1  0.52325050  0.64830450  0.71669450  1
  F  F52  1  0.51180750  0.84977450  0.55934450  1
  F  F53  1  0.51180750  0.15022550  0.05934450  1
  F  F54  1  0.48819250  0.15022550  0.55934450  1
  F  F55  1  0.48819250  0.84977450  0.05934450  1
  F  F56  1  0.47674950  0.35169550  0.71669450  1
  F  F57  1  0.47674950  0.64830450  0.21669450  1
  F  F58  1  0.37990450  0.69986550  0.93745750  1
  F  F59  1  0.37990450  0.30013450  0.43745750  1
  F  F60  1  0.38102650  0.11897350  0.31190250  1
  F  F61  1  0.38102650  0.88102650  0.81190250  1
  F  F62  1  0.34977450  0.98819250  0.05934450  1
  F  F63  1  0.34977450  0.01180750  0.55934450  1
  F  F64  1  0.33705700  0.16294300  0.75641600  1
  F  F65  1  0.33705700  0.83705700  0.25641600  1
  F  F66  1  0.72195150  0.77804850  0.08225250  1
  F  F67  1  0.72195150  0.22195150  0.58225250  1
  F  F68  1  0.19986550  0.12009550  0.43745750  1
  F  F69  1  0.19986550  0.87990450  0.93745750  1
  F  F70  1  0.14830450  0.97674950  0.21669450  1
  F  F71  1  0.14830450  0.02325050  0.71669450  1
  F  F72  1  0.35169550  0.47674950  0.21669450  1
  F  F73  1  0.35169550  0.52325050  0.71669450  1
  F  F74  1  0.30013450  0.37990450  0.93745750  1
  F  F75  1  0.30013450  0.62009550  0.43745750  1
  F  F76  1  0.77804850  0.72195150  0.58225250  1
  F  F77  1  0.77804850  0.27804850  0.08225250  1
  F  F78  1  0.16294300  0.33705700  0.25641600  1
  F  F79  1  0.16294300  0.66294300  0.75641600  1
  F  F80  1  0.15022550  0.48819250  0.05934450  1
  F  F81  1  0.15022550  0.51180750  0.55934450  1
  F  F82  1  0.11897350  0.38102650  0.81190250  1
  F  F83  1  0.11897350  0.61897350  0.31190250  1
  F  F84  1  0.12009550  0.19986550  0.93745750  1
  F  F85  1  0.12009550  0.80013450  0.43745750  1
  F  F86  1  0.02325050  0.85169550  0.71669450  1
  F  F87  1  0.02325050  0.14830450  0.21669450  1
  F  F88  1  0.01180750  0.34977450  0.05934450  1
  F  F89  1  0.01180750  0.65022550  0.55934450  1
  F  F90  1  0.98819250  0.65022550  0.05934450  1
  F  F91  1  0.98819250  0.34977450  0.55934450  1
  F  F92  1  0.97674950  0.85169550  0.21669450  1
  F  F93  1  0.97674950  0.14830450  0.71669450  1
  F  F94  1  0.87990450  0.19986550  0.43745750  1
  F  F95  1  0.87990450  0.80013450  0.93745750  1
  F  F96  1  0.88102650  0.61897350  0.81190250  1
  F  F97  1  0.88102650  0.38102650  0.31190250  1
  F  F98  1  0.84977450  0.48819250  0.55934450  1
  F  F99  1  0.84977450  0.51180750  0.05934450  1
  F  F100  1  0.83705700  0.66294300  0.25641600  1
  F  F101  1  0.83705700  0.33705700  0.75641600  1
  F  F102  1  0.22195150  0.27804850  0.58225250  1
  F  F103  1  0.22195150  0.72195150  0.08225250  1
  F  F104  1  0.69986550  0.62009550  0.93745750  1
  F  F105  1  0.69986550  0.37990450  0.43745750  1
  F  F106  1  0.64830450  0.47674950  0.71669450  1
  F  F107  1  0.64830450  0.52325050  0.21669450  1
