# generated using pymatgen
data_Na3SrPCO7
_symmetry_space_group_name_H-M   'P 1'
_cell_length_a   5.24345200
_cell_length_b   7.31761200
_cell_length_c   9.41329899
_cell_angle_alpha   90.00000000
_cell_angle_beta   90.44818540
_cell_angle_gamma   90.00000000
_symmetry_Int_Tables_number   1
_chemical_formula_structural   Na3SrPCO7
_chemical_formula_sum   'Na6 Sr2 P2 C2 O14'
_cell_volume   361.17297058
_cell_formula_units_Z   2
loop_
 _symmetry_equiv_pos_site_id
 _symmetry_equiv_pos_as_xyz
  1  'x, y, z'
loop_
 _atom_site_type_symbol
 _atom_site_label
 _atom_site_symmetry_multiplicity
 _atom_site_fract_x
 _atom_site_fract_y
 _atom_site_fract_z
 _atom_site_occupancy
  Na  Na0  1  0.24111600  0.25000000  0.08282800  1
  Na  Na1  1  0.76199000  0.01224900  0.24958700  1
  Na  Na2  1  0.76199000  0.48775100  0.24958700  1
  Na  Na3  1  0.23801000  0.51224900  0.75041300  1
  Na  Na4  1  0.23801000  0.98775100  0.75041300  1
  Na  Na5  1  0.75888400  0.75000000  0.91717200  1
  Sr  Sr6  1  0.23916600  0.75000000  0.36889300  1
  Sr  Sr7  1  0.76083400  0.25000000  0.63110700  1
  P  P8  1  0.29936800  0.25000000  0.39969000  1
  P  P9  1  0.70063200  0.75000000  0.60031000  1
  C  C10  1  0.26674600  0.75000000  0.05190200  1
  C  C11  1  0.73325400  0.25000000  0.94809800  1
  O  O12  1  0.71682900  0.25000000  0.08605700  1
  O  O13  1  0.04318000  0.75000000  0.11193300  1
  O  O14  1  0.47488600  0.75000000  0.12918900  1
  O  O15  1  0.19013400  0.07919100  0.32172600  1
  O  O16  1  0.19013400  0.42080900  0.32172600  1
  O  O17  1  0.59568500  0.25000000  0.38859800  1
  O  O18  1  0.76383700  0.75000000  0.43700300  1
  O  O19  1  0.23616300  0.25000000  0.56299700  1
  O  O20  1  0.40431500  0.75000000  0.61140200  1
  O  O21  1  0.80986600  0.57919100  0.67827400  1
  O  O22  1  0.80986600  0.92080900  0.67827400  1
  O  O23  1  0.52511400  0.25000000  0.87081100  1
  O  O24  1  0.95682000  0.25000000  0.88806700  1
  O  O25  1  0.28317100  0.75000000  0.91394300  1
