# generated using pymatgen
data_La(ClO4)3
_symmetry_space_group_name_H-M   'P 1'
_cell_length_a   8.56709815
_cell_length_b   8.56709815
_cell_length_c   25.59055974
_cell_angle_alpha   90.00000000
_cell_angle_beta   90.00000000
_cell_angle_gamma   120.00000000
_symmetry_Int_Tables_number   1
_chemical_formula_structural   La(ClO4)3
_chemical_formula_sum   'La6 Cl18 O72'
_cell_volume   1626.58926631
_cell_formula_units_Z   6
loop_
 _symmetry_equiv_pos_site_id
 _symmetry_equiv_pos_as_xyz
  1  'x, y, z'
loop_
 _atom_site_type_symbol
 _atom_site_label
 _atom_site_symmetry_multiplicity
 _atom_site_fract_x
 _atom_site_fract_y
 _atom_site_fract_z
 _atom_site_occupancy
  La  La0  1  0.66666667  0.33333333  0.27451633  1
  La  La1  1  0.33333333  0.66666667  0.10784967  1
  La  La2  1  0.33333333  0.66666667  0.60784967  1
  La  La3  1  0.00000000  0.00000000  0.44118300  1
  La  La4  1  0.00000000  0.00000000  0.94118300  1
  La  La5  1  0.66666667  0.33333333  0.77451633  1
  Cl  Cl6  1  0.36554933  0.35322167  0.16633367  1
  Cl  Cl7  1  0.64677833  0.01232767  0.16633367  1
  Cl  Cl8  1  0.32100567  0.01988833  0.33300033  1
  Cl  Cl9  1  0.98767233  0.63445067  0.16633367  1
  Cl  Cl10  1  0.69888267  0.67899433  0.33300033  1
  Cl  Cl11  1  0.98011167  0.30111733  0.33300033  1
  Cl  Cl12  1  0.03221600  0.68655500  0.49966700  1
  Cl  Cl13  1  0.31344500  0.34566100  0.49966700  1
  Cl  Cl14  1  0.98767233  0.35322167  0.66633367  1
  Cl  Cl15  1  0.65433900  0.96778400  0.49966700  1
  Cl  Cl16  1  0.36554933  0.01232767  0.66633367  1
  Cl  Cl17  1  0.64677833  0.63445067  0.66633367  1
  Cl  Cl18  1  0.69888267  0.01988833  0.83300033  1
  Cl  Cl19  1  0.98011167  0.67899433  0.83300033  1
  Cl  Cl20  1  0.65433900  0.68655500  0.99966700  1
  Cl  Cl21  1  0.32100567  0.30111733  0.83300033  1
  Cl  Cl22  1  0.03221600  0.34566100  0.99966700  1
  Cl  Cl23  1  0.31344500  0.96778400  0.99966700  1
  O  O24  1  0.91135367  0.15334833  0.01315033  1
  O  O25  1  0.84665167  0.75800533  0.01315033  1
  O  O26  1  0.50168067  0.40920033  0.20809633  1
  O  O27  1  0.83681167  0.10646333  0.15994233  1
  O  O28  1  0.46010267  0.44852433  0.11791633  1
  O  O29  1  0.60298500  0.77313000  0.32660900  1
  O  O30  1  0.57418633  0.74253367  0.04142967  1
  O  O31  1  0.24199467  0.08864633  0.01315033  1
  O  O32  1  0.26965167  0.16318833  0.15994233  1
  O  O33  1  0.57532800  0.82001500  0.17981700  1
  O  O34  1  0.59079967  0.09248033  0.20809633  1
  O  O35  1  0.55147567  0.01157833  0.11791633  1
  O  O36  1  0.24468700  0.42467200  0.17981700  1
  O  O37  1  0.17014500  0.39701500  0.32660900  1
  O  O38  1  0.16834733  0.42581367  0.04142967  1
  O  O39  1  0.25746633  0.83165267  0.04142967  1
  O  O40  1  0.22687000  0.82985500  0.32660900  1
  O  O41  1  0.17998500  0.75531300  0.17981700  1
  O  O42  1  0.32175500  0.11519100  0.28458300  1
  O  O43  1  0.98842167  0.53989733  0.11791633  1
  O  O44  1  0.90751967  0.49831933  0.20809633  1
  O  O45  1  0.89353667  0.73034833  0.15994233  1
  O  O46  1  0.79343600  0.67824500  0.28458300  1
  O  O47  1  0.88480900  0.20656400  0.28458300  1
  O  O48  1  0.57802033  0.48668167  0.34648367  1
  O  O49  1  0.51331833  0.09133867  0.34648367  1
  O  O50  1  0.16834733  0.74253367  0.54142967  1
  O  O51  1  0.50347833  0.43979667  0.49327567  1
  O  O52  1  0.12676933  0.78185767  0.45124967  1
  O  O53  1  0.26965167  0.10646333  0.65994233  1
  O  O54  1  0.24085300  0.07586700  0.37476300  1
  O  O55  1  0.90866133  0.42197967  0.34648367  1
  O  O56  1  0.93631833  0.49652167  0.49327567  1
  O  O57  1  0.24199467  0.15334833  0.51315033  1
  O  O58  1  0.25746633  0.42581367  0.54142967  1
  O  O59  1  0.21814233  0.34491167  0.45124967  1
  O  O60  1  0.91135367  0.75800533  0.51315033  1
  O  O61  1  0.83681167  0.73034833  0.65994233  1
  O  O62  1  0.83501400  0.75914700  0.37476300  1
  O  O63  1  0.92413300  0.16498600  0.37476300  1
  O  O64  1  0.89353667  0.16318833  0.65994233  1
  O  O65  1  0.84665167  0.08864633  0.51315033  1
  O  O66  1  0.98842167  0.44852433  0.61791633  1
  O  O67  1  0.65508833  0.87323067  0.45124967  1
  O  O68  1  0.57418633  0.83165267  0.54142967  1
  O  O69  1  0.56020333  0.06368167  0.49327567  1
  O  O70  1  0.46010267  0.01157833  0.61791633  1
  O  O71  1  0.55147567  0.53989733  0.61791633  1
  O  O72  1  0.24468700  0.82001500  0.67981700  1
  O  O73  1  0.17998500  0.42467200  0.67981700  1
  O  O74  1  0.83501400  0.07586700  0.87476300  1
  O  O75  1  0.17014500  0.77313000  0.82660900  1
  O  O76  1  0.79343600  0.11519100  0.78458300  1
  O  O77  1  0.93631833  0.43979667  0.99327567  1
  O  O78  1  0.90751967  0.40920033  0.70809633  1
  O  O79  1  0.57532800  0.75531300  0.67981700  1
  O  O80  1  0.60298500  0.82985500  0.82660900  1
  O  O81  1  0.90866133  0.48668167  0.84648367  1
  O  O82  1  0.92413300  0.75914700  0.87476300  1
  O  O83  1  0.88480900  0.67824500  0.78458300  1
  O  O84  1  0.57802033  0.09133867  0.84648367  1
  O  O85  1  0.50347833  0.06368167  0.99327567  1
  O  O86  1  0.50168067  0.09248033  0.70809633  1
  O  O87  1  0.59079967  0.49831933  0.70809633  1
  O  O88  1  0.56020333  0.49652167  0.99327567  1
  O  O89  1  0.51331833  0.42197967  0.84648367  1
  O  O90  1  0.65508833  0.78185767  0.95124967  1
  O  O91  1  0.32175500  0.20656400  0.78458300  1
  O  O92  1  0.24085300  0.16498600  0.87476300  1
  O  O93  1  0.22687000  0.39701500  0.82660900  1
  O  O94  1  0.12676933  0.34491167  0.95124967  1
  O  O95  1  0.21814233  0.87323067  0.95124967  1
