# generated using pymatgen
data_LiTa3O8
_symmetry_space_group_name_H-M   'P 1'
_cell_length_a   9.53247000
_cell_length_b   11.72547800
_cell_length_c   5.10594847
_cell_angle_alpha   90.00000000
_cell_angle_beta   91.06404981
_cell_angle_gamma   90.00000000
_symmetry_Int_Tables_number   1
_chemical_formula_structural   LiTa3O8
_chemical_formula_sum   'Li4 Ta12 O32'
_cell_volume   570.60757746
_cell_formula_units_Z   4
loop_
 _symmetry_equiv_pos_site_id
 _symmetry_equiv_pos_as_xyz
  1  'x, y, z'
loop_
 _atom_site_type_symbol
 _atom_site_label
 _atom_site_symmetry_multiplicity
 _atom_site_fract_x
 _atom_site_fract_y
 _atom_site_fract_z
 _atom_site_occupancy
  Li  Li0  1  0.50000000  0.65524400  0.75000000  1
  Li  Li1  1  0.50000000  0.34475600  0.25000000  1
  Li  Li2  1  0.00000000  0.15524400  0.75000000  1
  Li  Li3  1  0.00000000  0.84475600  0.25000000  1
  Ta  Ta4  1  0.50000000  0.17005200  0.75000000  1
  Ta  Ta5  1  0.50000000  0.82994800  0.25000000  1
  Ta  Ta6  1  0.24171350  0.91387750  0.74459300  1
  Ta  Ta7  1  0.75828650  0.91387750  0.75540700  1
  Ta  Ta8  1  0.75828650  0.08612250  0.25540700  1
  Ta  Ta9  1  0.24171350  0.08612250  0.24459300  1
  Ta  Ta10  1  0.00000000  0.67005200  0.75000000  1
  Ta  Ta11  1  0.00000000  0.32994800  0.25000000  1
  Ta  Ta12  1  0.74171350  0.41387750  0.74459300  1
  Ta  Ta13  1  0.25828650  0.41387750  0.75540700  1
  Ta  Ta14  1  0.25828650  0.58612250  0.25540700  1
  Ta  Ta15  1  0.74171350  0.58612250  0.24459300  1
  O  O16  1  0.61702750  0.30355150  0.60856900  1
  O  O17  1  0.38297250  0.30355150  0.89143100  1
  O  O18  1  0.38297250  0.69644850  0.39143100  1
  O  O19  1  0.61702750  0.69644850  0.10856900  1
  O  O20  1  0.85274500  0.95168300  0.43858200  1
  O  O21  1  0.14725500  0.95168300  0.06141800  1
  O  O22  1  0.14725500  0.04831700  0.56141800  1
  O  O23  1  0.85274500  0.04831700  0.93858200  1
  O  O24  1  0.38395450  0.17643150  0.42488200  1
  O  O25  1  0.61604550  0.17643150  0.07511800  1
  O  O26  1  0.61604550  0.82356850  0.57511800  1
  O  O27  1  0.38395450  0.82356850  0.92488200  1
  O  O28  1  0.63255750  0.93512850  0.08292800  1
  O  O29  1  0.36744250  0.93512850  0.41707200  1
  O  O30  1  0.36744250  0.06487150  0.91707200  1
  O  O31  1  0.63255750  0.06487150  0.58292800  1
  O  O32  1  0.11702750  0.80355150  0.60856900  1
  O  O33  1  0.88297250  0.80355150  0.89143100  1
  O  O34  1  0.88297250  0.19644850  0.39143100  1
  O  O35  1  0.11702750  0.19644850  0.10856900  1
  O  O36  1  0.35274500  0.45168300  0.43858200  1
  O  O37  1  0.64725500  0.45168300  0.06141800  1
  O  O38  1  0.64725500  0.54831700  0.56141800  1
  O  O39  1  0.35274500  0.54831700  0.93858200  1
  O  O40  1  0.88395450  0.67643150  0.42488200  1
  O  O41  1  0.11604550  0.67643150  0.07511800  1
  O  O42  1  0.11604550  0.32356850  0.57511800  1
  O  O43  1  0.88395450  0.32356850  0.92488200  1
  O  O44  1  0.13255750  0.43512850  0.08292800  1
  O  O45  1  0.86744250  0.43512850  0.41707200  1
  O  O46  1  0.86744250  0.56487150  0.91707200  1
  O  O47  1  0.13255750  0.56487150  0.58292800  1
