# generated using pymatgen
data_AsH6NO4
_symmetry_space_group_name_H-M   'P 1'
_cell_length_a   7.63252400
_cell_length_b   7.63252400
_cell_length_c   8.01030800
_cell_angle_alpha   90.00000000
_cell_angle_beta   90.00000000
_cell_angle_gamma   90.00000000
_symmetry_Int_Tables_number   1
_chemical_formula_structural   AsH6NO4
_chemical_formula_sum   'As4 H24 N4 O16'
_cell_volume   466.64387778
_cell_formula_units_Z   4
loop_
 _symmetry_equiv_pos_site_id
 _symmetry_equiv_pos_as_xyz
  1  'x, y, z'
loop_
 _atom_site_type_symbol
 _atom_site_label
 _atom_site_symmetry_multiplicity
 _atom_site_fract_x
 _atom_site_fract_y
 _atom_site_fract_z
 _atom_site_occupancy
  As  As0  1  0.00000000  0.50000000  0.25000000  1
  As  As1  1  0.00000000  0.00000000  0.00000000  1
  As  As2  1  0.50000000  0.00000000  0.75000000  1
  As  As3  1  0.50000000  0.50000000  0.50000000  1
  H  H4  1  0.48448550  0.88857750  0.32300350  1
  H  H5  1  0.51551450  0.38857750  0.92699650  1
  H  H6  1  0.51551450  0.11142250  0.32300350  1
  H  H7  1  0.98448550  0.11142250  0.42699650  1
  H  H8  1  0.61142250  0.98448550  0.17699650  1
  H  H9  1  0.38857750  0.48448550  0.07300350  1
  H  H10  1  0.38857750  0.01551450  0.17699650  1
  H  H11  1  0.11142250  0.01551450  0.57300350  1
  H  H12  1  0.75000000  0.34282700  0.37500000  1
  H  H13  1  0.75000000  0.15717300  0.87500000  1
  H  H14  1  0.15717300  0.25000000  0.12500000  1
  H  H15  1  0.34282700  0.25000000  0.62500000  1
  H  H16  1  0.98448550  0.38857750  0.82300350  1
  H  H17  1  0.01551450  0.88857750  0.42699650  1
  H  H18  1  0.01551450  0.61142250  0.82300350  1
  H  H19  1  0.48448550  0.61142250  0.92699650  1
  H  H20  1  0.11142250  0.48448550  0.67699650  1
  H  H21  1  0.88857750  0.98448550  0.57300350  1
  H  H22  1  0.88857750  0.51551450  0.67699650  1
  H  H23  1  0.61142250  0.51551450  0.07300350  1
  H  H24  1  0.25000000  0.84282700  0.87500000  1
  H  H25  1  0.25000000  0.65717300  0.37500000  1
  H  H26  1  0.65717300  0.75000000  0.62500000  1
  H  H27  1  0.84282700  0.75000000  0.12500000  1
  N  N28  1  0.50000000  0.00000000  0.25000000  1
  N  N29  1  0.00000000  0.00000000  0.50000000  1
  N  N30  1  0.00000000  0.50000000  0.75000000  1
  N  N31  1  0.50000000  0.50000000  0.00000000  1
  O  O32  1  0.90865050  0.33564450  0.36928850  1
  O  O33  1  0.59134950  0.33564450  0.38071150  1
  O  O34  1  0.59134950  0.16435550  0.86928850  1
  O  O35  1  0.40865050  0.66435550  0.38071150  1
  O  O36  1  0.16435550  0.40865050  0.13071150  1
  O  O37  1  0.83564450  0.90865050  0.11928850  1
  O  O38  1  0.33564450  0.09134950  0.63071150  1
  O  O39  1  0.16435550  0.09134950  0.11928850  1
  O  O40  1  0.40865050  0.83564450  0.86928850  1
  O  O41  1  0.09134950  0.83564450  0.88071150  1
  O  O42  1  0.09134950  0.66435550  0.36928850  1
  O  O43  1  0.90865050  0.16435550  0.88071150  1
  O  O44  1  0.66435550  0.90865050  0.63071150  1
  O  O45  1  0.33564450  0.40865050  0.61928850  1
  O  O46  1  0.83564450  0.59134950  0.13071150  1
  O  O47  1  0.66435550  0.59134950  0.61928850  1
