# generated using pymatgen
data_Y2O3
_symmetry_space_group_name_H-M   'P 1'
_cell_length_a   5.82385900
_cell_length_b   5.99344200
_cell_length_c   16.84120800
_cell_angle_alpha   90.00000000
_cell_angle_beta   90.00000000
_cell_angle_gamma   90.00000000
_symmetry_Int_Tables_number   1
_chemical_formula_structural   Y2O3
_chemical_formula_sum   'Y16 O24'
_cell_volume   587.84171067
_cell_formula_units_Z   8
loop_
 _symmetry_equiv_pos_site_id
 _symmetry_equiv_pos_as_xyz
  1  'x, y, z'
loop_
 _atom_site_type_symbol
 _atom_site_label
 _atom_site_symmetry_multiplicity
 _atom_site_fract_x
 _atom_site_fract_y
 _atom_site_fract_z
 _atom_site_occupancy
  Y  Y0  1  0.00013400  0.21111600  0.07012100  1
  Y  Y1  1  0.99663500  0.76544300  0.18181000  1
  Y  Y2  1  0.00013400  0.28888400  0.57012100  1
  Y  Y3  1  0.99663500  0.73455700  0.68181000  1
  Y  Y4  1  0.50336500  0.26544300  0.18181000  1
  Y  Y5  1  0.50336500  0.23455700  0.68181000  1
  Y  Y6  1  0.49986600  0.71111600  0.07012100  1
  Y  Y7  1  0.49986600  0.78888400  0.57012100  1
  Y  Y8  1  0.50013400  0.21111600  0.42987900  1
  Y  Y9  1  0.50013400  0.28888400  0.92987900  1
  Y  Y10  1  0.49663500  0.76544300  0.31819000  1
  Y  Y11  1  0.49663500  0.73455700  0.81819000  1
  Y  Y12  1  0.99986600  0.71111600  0.42987900  1
  Y  Y13  1  0.00336500  0.26544300  0.31819000  1
  Y  Y14  1  0.00336500  0.23455700  0.81819000  1
  Y  Y15  1  0.99986600  0.78888400  0.92987900  1
  O  O16  1  0.14265800  0.13148500  0.20049700  1
  O  O17  1  0.14265800  0.36851500  0.70049700  1
  O  O18  1  0.14425200  0.84631900  0.05294100  1
  O  O19  1  0.14425200  0.65368100  0.55294100  1
  O  O20  1  0.20699500  0.98666500  0.37517700  1
  O  O21  1  0.20699500  0.51333500  0.87517700  1
  O  O22  1  0.29300500  0.48666500  0.37517700  1
  O  O23  1  0.29300500  0.01333500  0.87517700  1
  O  O24  1  0.35574800  0.15368100  0.55294100  1
  O  O25  1  0.35574800  0.34631900  0.05294100  1
  O  O26  1  0.35734200  0.63148500  0.20049700  1
  O  O27  1  0.35734200  0.86851500  0.70049700  1
  O  O28  1  0.64265800  0.36851500  0.79950300  1
  O  O29  1  0.64265800  0.13148500  0.29950300  1
  O  O30  1  0.64425200  0.84631900  0.44705900  1
  O  O31  1  0.64425200  0.65368100  0.94705900  1
  O  O32  1  0.70699500  0.98666500  0.12482300  1
  O  O33  1  0.70699500  0.51333500  0.62482300  1
  O  O34  1  0.79300500  0.48666500  0.12482300  1
  O  O35  1  0.79300500  0.01333500  0.62482300  1
  O  O36  1  0.85574800  0.34631900  0.44705900  1
  O  O37  1  0.85574800  0.15368100  0.94705900  1
  O  O38  1  0.85734200  0.86851500  0.79950300  1
  O  O39  1  0.85734200  0.63148500  0.29950300  1
