# generated using pymatgen
data_V3OF11
_symmetry_space_group_name_H-M   'P 1'
_cell_length_a   5.19886400
_cell_length_b   5.35095559
_cell_length_c   15.02917655
_cell_angle_alpha   79.74537819
_cell_angle_beta   89.69311193
_cell_angle_gamma   88.36610182
_symmetry_Int_Tables_number   1
_chemical_formula_structural   V3OF11
_chemical_formula_sum   'V6 O2 F22'
_cell_volume   411.24921725
_cell_formula_units_Z   2
loop_
 _symmetry_equiv_pos_site_id
 _symmetry_equiv_pos_as_xyz
  1  'x, y, z'
loop_
 _atom_site_type_symbol
 _atom_site_label
 _atom_site_symmetry_multiplicity
 _atom_site_fract_x
 _atom_site_fract_y
 _atom_site_fract_z
 _atom_site_occupancy
  V  V0  1  0.00000000  0.00000000  0.00000000  1
  V  V1  1  0.50008400  0.16625900  0.66675900  1
  V  V2  1  0.00014400  0.33369600  0.33322400  1
  V  V3  1  0.50000000  0.50000000  0.00000000  1
  V  V4  1  0.99985600  0.66630400  0.66677600  1
  V  V5  1  0.49991600  0.83374100  0.33324100  1
  O  O6  1  0.23155400  0.72641800  0.01269400  1
  O  O7  1  0.76844600  0.27358200  0.98730600  1
  F  F8  1  0.18666400  0.00964900  0.36239900  1
  F  F9  1  0.27303600  0.21504600  0.02677200  1
  F  F10  1  0.69022300  0.15230200  0.30992800  1
  F  F11  1  0.07481600  0.07188000  0.88232900  1
  F  F12  1  0.40706800  0.21088300  0.55165300  1
  F  F13  1  0.09176700  0.36201400  0.21887100  1
  F  F14  1  0.59091900  0.11884500  0.78143100  1
  F  F15  1  0.90796600  0.30474100  0.44814800  1
  F  F16  1  0.57391600  0.46774800  0.11744400  1
  F  F17  1  0.18650300  0.34256200  0.69499000  1
  F  F18  1  0.31031300  0.51538000  0.35707900  1
  F  F19  1  0.68968700  0.48462000  0.64292100  1
  F  F20  1  0.81349700  0.65743800  0.30501000  1
  F  F21  1  0.42608400  0.53225200  0.88255600  1
  F  F22  1  0.09203400  0.69525900  0.55185200  1
  F  F23  1  0.40908100  0.88115500  0.21856900  1
  F  F24  1  0.90823300  0.63798600  0.78112900  1
  F  F25  1  0.59293200  0.78911700  0.44834700  1
  F  F26  1  0.92518400  0.92812000  0.11767100  1
  F  F27  1  0.30977700  0.84769800  0.69007200  1
  F  F28  1  0.72696400  0.78495400  0.97322800  1
  F  F29  1  0.81333600  0.99035100  0.63760100  1
