# generated using pymatgen
data_K4I2O
_symmetry_space_group_name_H-M   'P 1'
_cell_length_a   5.35591600
_cell_length_b   5.35591600
_cell_length_c   17.67264600
_cell_angle_alpha   90.00000000
_cell_angle_beta   90.00000000
_cell_angle_gamma   90.00000000
_symmetry_Int_Tables_number   1
_chemical_formula_structural   K4I2O
_chemical_formula_sum   'K8 I4 O2'
_cell_volume   506.95462836
_cell_formula_units_Z   2
loop_
 _symmetry_equiv_pos_site_id
 _symmetry_equiv_pos_as_xyz
  1  'x, y, z'
loop_
 _atom_site_type_symbol
 _atom_site_label
 _atom_site_symmetry_multiplicity
 _atom_site_fract_x
 _atom_site_fract_y
 _atom_site_fract_z
 _atom_site_occupancy
  K  K0  1  0.00000000  0.50000000  0.00000000  1
  K  K1  1  0.00000000  0.00000000  0.14711700  1
  K  K2  1  0.50000000  0.50000000  0.35288300  1
  K  K3  1  0.50000000  0.00000000  0.00000000  1
  K  K4  1  0.50000000  0.00000000  0.50000000  1
  K  K5  1  0.50000000  0.50000000  0.64711700  1
  K  K6  1  0.00000000  0.00000000  0.85288300  1
  K  K7  1  0.00000000  0.50000000  0.50000000  1
  I  I8  1  0.00000000  0.00000000  0.35291300  1
  I  I9  1  0.50000000  0.50000000  0.14708700  1
  I  I10  1  0.50000000  0.50000000  0.85291300  1
  I  I11  1  0.00000000  0.00000000  0.64708700  1
  O  O12  1  0.00000000  0.00000000  0.00000000  1
  O  O13  1  0.50000000  0.50000000  0.50000000  1
