# generated using pymatgen
data_LiVGeO5
_symmetry_space_group_name_H-M   'P 1'
_cell_length_a   9.14296800
_cell_length_b   9.32801000
_cell_length_c   4.64482700
_cell_angle_alpha   90.00000000
_cell_angle_beta   90.00000000
_cell_angle_gamma   90.00000000
_symmetry_Int_Tables_number   1
_chemical_formula_structural   LiVGeO5
_chemical_formula_sum   'Li4 V4 Ge4 O20'
_cell_volume   396.13730783
_cell_formula_units_Z   4
loop_
 _symmetry_equiv_pos_site_id
 _symmetry_equiv_pos_as_xyz
  1  'x, y, z'
loop_
 _atom_site_type_symbol
 _atom_site_label
 _atom_site_symmetry_multiplicity
 _atom_site_fract_x
 _atom_site_fract_y
 _atom_site_fract_z
 _atom_site_occupancy
  Li  Li0  1  0.25000000  0.75000000  0.00000000  1
  Li  Li1  1  0.25000000  0.25000000  0.00000000  1
  Li  Li2  1  0.75000000  0.25000000  0.00000000  1
  Li  Li3  1  0.75000000  0.75000000  0.00000000  1
  V  V4  1  0.50000000  0.75000000  0.61454600  1
  V  V5  1  0.50000000  0.25000000  0.38545400  1
  V  V6  1  0.00000000  0.25000000  0.61454600  1
  V  V7  1  0.00000000  0.75000000  0.38545400  1
  Ge  Ge8  1  0.25000000  0.00000000  0.50000000  1
  Ge  Ge9  1  0.75000000  0.00000000  0.50000000  1
  Ge  Ge10  1  0.75000000  0.50000000  0.50000000  1
  Ge  Ge11  1  0.25000000  0.50000000  0.50000000  1
  O  O12  1  0.14434800  0.88713000  0.27395800  1
  O  O13  1  0.50000000  0.75000000  0.26335300  1
  O  O14  1  0.35565200  0.88713000  0.72604200  1
  O  O15  1  0.14434800  0.11287000  0.72604200  1
  O  O16  1  0.35565200  0.11287000  0.27395800  1
  O  O17  1  0.64434800  0.88713000  0.72604200  1
  O  O18  1  0.85565200  0.88713000  0.27395800  1
  O  O19  1  0.64434800  0.11287000  0.27395800  1
  O  O20  1  0.50000000  0.25000000  0.73664700  1
  O  O21  1  0.85565200  0.11287000  0.72604200  1
  O  O22  1  0.64434800  0.38713000  0.27395800  1
  O  O23  1  0.00000000  0.25000000  0.26335300  1
  O  O24  1  0.85565200  0.38713000  0.72604200  1
  O  O25  1  0.64434800  0.61287000  0.72604200  1
  O  O26  1  0.85565200  0.61287000  0.27395800  1
  O  O27  1  0.14434800  0.38713000  0.72604200  1
  O  O28  1  0.35565200  0.38713000  0.27395800  1
  O  O29  1  0.14434800  0.61287000  0.27395800  1
  O  O30  1  0.00000000  0.75000000  0.73664700  1
  O  O31  1  0.35565200  0.61287000  0.72604200  1
