# generated using pymatgen
data_BeAlSiHO5
_symmetry_space_group_name_H-M   'P 1'
_cell_length_a   4.67872400
_cell_length_b   14.49403700
_cell_length_c   4.82858314
_cell_angle_alpha   90.00000000
_cell_angle_beta   100.31384119
_cell_angle_gamma   90.00000000
_symmetry_Int_Tables_number   1
_chemical_formula_structural   BeAlSiHO5
_chemical_formula_sum   'Be4 Al4 Si4 H4 O20'
_cell_volume   322.15270539
_cell_formula_units_Z   4
loop_
 _symmetry_equiv_pos_site_id
 _symmetry_equiv_pos_as_xyz
  1  'x, y, z'
loop_
 _atom_site_type_symbol
 _atom_site_label
 _atom_site_symmetry_multiplicity
 _atom_site_fract_x
 _atom_site_fract_y
 _atom_site_fract_z
 _atom_site_occupancy
  Be  Be0  1  0.45727500  0.69910100  0.17505500  1
  Be  Be1  1  0.54272500  0.19910100  0.32494500  1
  Be  Be2  1  0.45727500  0.80089900  0.67505500  1
  Be  Be3  1  0.54272500  0.30089900  0.82494500  1
  Al  Al4  1  0.95816900  0.55525400  0.24940900  1
  Al  Al5  1  0.04183100  0.05525400  0.25059100  1
  Al  Al6  1  0.95816900  0.94474600  0.74940900  1
  Al  Al7  1  0.04183100  0.44474600  0.75059100  1
  Si  Si8  1  0.53750000  0.89954200  0.17721700  1
  Si  Si9  1  0.46250000  0.39954200  0.32278300  1
  Si  Si10  1  0.53750000  0.60045800  0.67721700  1
  Si  Si11  1  0.46250000  0.10045800  0.82278300  1
  H  H12  1  0.98595000  0.70511400  0.03262200  1
  H  H13  1  0.01405000  0.20511400  0.46737800  1
  H  H14  1  0.98595000  0.79488600  0.53262200  1
  H  H15  1  0.01405000  0.29488600  0.96737800  1
  O  O16  1  0.34619500  0.12398100  0.11983600  1
  O  O17  1  0.21335900  0.94765900  0.10026700  1
  O  O18  1  0.47391100  0.29987600  0.15523000  1
  O  O19  1  0.23471900  0.46697100  0.11752900  1
  O  O20  1  0.12373700  0.66784500  0.16189100  1
  O  O21  1  0.87626300  0.16784500  0.33810900  1
  O  O22  1  0.76528100  0.96697100  0.38247100  1
  O  O23  1  0.52608900  0.79987600  0.34477000  1
  O  O24  1  0.78664100  0.44765900  0.39973300  1
  O  O25  1  0.65380500  0.62398100  0.38016400  1
  O  O26  1  0.34619500  0.37601900  0.61983600  1
  O  O27  1  0.21335900  0.55234100  0.60026700  1
  O  O28  1  0.47391100  0.20012400  0.65523000  1
  O  O29  1  0.23471900  0.03302900  0.61752900  1
  O  O30  1  0.12373700  0.83215500  0.66189100  1
  O  O31  1  0.87626300  0.33215500  0.83810900  1
  O  O32  1  0.76528100  0.53302900  0.88247100  1
  O  O33  1  0.52608900  0.70012400  0.84477000  1
  O  O34  1  0.78664100  0.05234100  0.89973300  1
  O  O35  1  0.65380500  0.87601900  0.88016400  1
