# generated using pymatgen
data_FeH8(ClO2)2
_symmetry_space_group_name_H-M   'P 1'
_cell_length_a   5.88573958
_cell_length_b   7.48173308
_cell_length_c   8.51375951
_cell_angle_alpha   90.00000000
_cell_angle_beta   111.20875410
_cell_angle_gamma   90.00000000
_symmetry_Int_Tables_number   1
_chemical_formula_structural   FeH8(ClO2)2
_chemical_formula_sum   'Fe2 H16 Cl4 O8'
_cell_volume   349.51487157
_cell_formula_units_Z   2
loop_
 _symmetry_equiv_pos_site_id
 _symmetry_equiv_pos_as_xyz
  1  'x, y, z'
loop_
 _atom_site_type_symbol
 _atom_site_label
 _atom_site_symmetry_multiplicity
 _atom_site_fract_x
 _atom_site_fract_y
 _atom_site_fract_z
 _atom_site_occupancy
  Fe  Fe0  1  0.50000000  0.50000000  0.00000000  1
  Fe  Fe1  1  0.50000000  0.00000000  0.50000000  1
  H  H2  1  0.39307550  0.57447100  0.65243750  1
  H  H3  1  0.60692450  0.07447100  0.84756250  1
  H  H4  1  0.60692450  0.42552900  0.34756250  1
  H  H5  1  0.39307550  0.92552900  0.15243750  1
  H  H6  1  0.59700750  0.42568900  0.70306900  1
  H  H7  1  0.40299250  0.92568900  0.79693100  1
  H  H8  1  0.40299250  0.57431100  0.29693100  1
  H  H9  1  0.59700750  0.07431100  0.20306900  1
  H  H10  1  0.10839050  0.29703600  0.81112100  1
  H  H11  1  0.89160950  0.79703600  0.68887900  1
  H  H12  1  0.89160950  0.70296400  0.18887900  1
  H  H13  1  0.10839050  0.20296400  0.31112100  1
  H  H14  1  0.11031550  0.29107300  0.99519450  1
  H  H15  1  0.88968450  0.79107300  0.50480550  1
  H  H16  1  0.88968450  0.70892700  0.00480550  1
  H  H17  1  0.11031550  0.20892700  0.49519450  1
  Cl  Cl18  1  0.19555050  0.76414050  0.92550000  1
  Cl  Cl19  1  0.80444950  0.26414050  0.57450000  1
  Cl  Cl20  1  0.80444950  0.23585950  0.07450000  1
  Cl  Cl21  1  0.19555050  0.73585950  0.42550000  1
  O  O22  1  0.49530550  0.49983400  0.74718250  1
  O  O23  1  0.50469450  0.99983400  0.75281750  1
  O  O24  1  0.50469450  0.50016600  0.25281750  1
  O  O25  1  0.49530550  0.00016600  0.24718250  1
  O  O26  1  0.21779750  0.30821450  0.93017250  1
  O  O27  1  0.78220250  0.80821450  0.56982750  1
  O  O28  1  0.78220250  0.69178550  0.06982750  1
  O  O29  1  0.21779750  0.19178550  0.43017250  1
