# generated using pymatgen
data_Na6Sn2O7
_symmetry_space_group_name_H-M   'P 1'
_cell_length_a   8.82804800
_cell_length_b   8.90545800
_cell_length_c   12.33010895
_cell_angle_alpha   90.00000000
_cell_angle_beta   107.24462385
_cell_angle_gamma   90.00000000
_symmetry_Int_Tables_number   1
_chemical_formula_structural   Na6Sn2O7
_chemical_formula_sum   'Na24 Sn8 O28'
_cell_volume   925.79099564
_cell_formula_units_Z   4
loop_
 _symmetry_equiv_pos_site_id
 _symmetry_equiv_pos_as_xyz
  1  'x, y, z'
loop_
 _atom_site_type_symbol
 _atom_site_label
 _atom_site_symmetry_multiplicity
 _atom_site_fract_x
 _atom_site_fract_y
 _atom_site_fract_z
 _atom_site_occupancy
  Na  Na0  1  0.43728650  0.64310250  0.41161800  1
  Na  Na1  1  0.24423000  0.77007400  0.12908900  1
  Na  Na2  1  0.50000000  0.00000000  0.50000000  1
  Na  Na3  1  0.50000000  0.04492000  0.25000000  1
  Na  Na4  1  0.43728650  0.35689750  0.91161800  1
  Na  Na5  1  0.24423000  0.22992600  0.62908900  1
  Na  Na6  1  0.75577000  0.77007400  0.37091100  1
  Na  Na7  1  0.56271350  0.64310250  0.08838200  1
  Na  Na8  1  0.50000000  0.95508000  0.75000000  1
  Na  Na9  1  0.75577000  0.22992600  0.87091100  1
  Na  Na10  1  0.56271350  0.35689750  0.58838200  1
  Na  Na11  1  0.50000000  0.00000000  0.00000000  1
  Na  Na12  1  0.93728650  0.14310250  0.41161800  1
  Na  Na13  1  0.74423000  0.27007400  0.12908900  1
  Na  Na14  1  0.00000000  0.50000000  0.50000000  1
  Na  Na15  1  0.00000000  0.54492000  0.25000000  1
  Na  Na16  1  0.93728650  0.85689750  0.91161800  1
  Na  Na17  1  0.74423000  0.72992600  0.62908900  1
  Na  Na18  1  0.25577000  0.27007400  0.37091100  1
  Na  Na19  1  0.06271350  0.14310250  0.08838200  1
  Na  Na20  1  0.00000000  0.45508000  0.75000000  1
  Na  Na21  1  0.25577000  0.72992600  0.87091100  1
  Na  Na22  1  0.06271350  0.85689750  0.58838200  1
  Na  Na23  1  0.00000000  0.50000000  0.00000000  1
  Sn  Sn24  1  0.83979700  0.89930000  0.13211100  1
  Sn  Sn25  1  0.16020300  0.89930000  0.36788900  1
  Sn  Sn26  1  0.83979700  0.10070000  0.63211100  1
  Sn  Sn27  1  0.16020300  0.10070000  0.86788900  1
  Sn  Sn28  1  0.33979700  0.39930000  0.13211100  1
  Sn  Sn29  1  0.66020300  0.39930000  0.36788900  1
  Sn  Sn30  1  0.33979700  0.60070000  0.63211100  1
  Sn  Sn31  1  0.66020300  0.60070000  0.86788900  1
  O  O32  1  0.46450900  0.22981800  0.10021800  1
  O  O33  1  0.46450900  0.77018200  0.60021800  1
  O  O34  1  0.34801600  0.86509800  0.31576600  1
  O  O35  1  0.79087200  0.05317100  0.01098300  1
  O  O36  1  0.50000000  0.52688500  0.25000000  1
  O  O37  1  0.20912800  0.05317100  0.48901700  1
  O  O38  1  0.34801600  0.13490200  0.81576600  1
  O  O39  1  0.65198400  0.86509800  0.18423400  1
  O  O40  1  0.79087200  0.94682900  0.51098300  1
  O  O41  1  0.50000000  0.47311500  0.75000000  1
  O  O42  1  0.20912800  0.94682900  0.98901700  1
  O  O43  1  0.65198400  0.13490200  0.68423400  1
  O  O44  1  0.53549100  0.22981800  0.39978200  1
  O  O45  1  0.53549100  0.77018200  0.89978200  1
  O  O46  1  0.96450900  0.72981800  0.10021800  1
  O  O47  1  0.96450900  0.27018200  0.60021800  1
  O  O48  1  0.84801600  0.36509800  0.31576600  1
  O  O49  1  0.29087200  0.55317100  0.01098300  1
  O  O50  1  0.00000000  0.02688500  0.25000000  1
  O  O51  1  0.70912800  0.55317100  0.48901700  1
  O  O52  1  0.84801600  0.63490200  0.81576600  1
  O  O53  1  0.15198400  0.36509800  0.18423400  1
  O  O54  1  0.29087200  0.44682900  0.51098300  1
  O  O55  1  0.00000000  0.97311500  0.75000000  1
  O  O56  1  0.70912800  0.44682900  0.98901700  1
  O  O57  1  0.15198400  0.63490200  0.68423400  1
  O  O58  1  0.03549100  0.72981800  0.39978200  1
  O  O59  1  0.03549100  0.27018200  0.89978200  1
