# generated using pymatgen
data_VOF
_symmetry_space_group_name_H-M   'P 1'
_cell_length_a   4.74585600
_cell_length_b   3.10187900
_cell_length_c   18.93661900
_cell_angle_alpha   90.00000000
_cell_angle_beta   91.26688978
_cell_angle_gamma   90.00000000
_symmetry_Int_Tables_number   1
_chemical_formula_structural   VOF
_chemical_formula_sum   'V8 O8 F8'
_cell_volume   278.69917016
_cell_formula_units_Z   8
loop_
 _symmetry_equiv_pos_site_id
 _symmetry_equiv_pos_as_xyz
  1  'x, y, z'
loop_
 _atom_site_type_symbol
 _atom_site_label
 _atom_site_symmetry_multiplicity
 _atom_site_fract_x
 _atom_site_fract_y
 _atom_site_fract_z
 _atom_site_occupancy
  V  V0  1  0.08948200  0.00000000  0.24939800  1
  V  V1  1  0.97326000  0.00000000  0.00027500  1
  V  V2  1  0.01417900  0.00000000  0.50012700  1
  V  V3  1  0.95872100  0.00000000  0.75015300  1
  V  V4  1  0.52310100  0.50000000  0.12505100  1
  V  V5  1  0.40997300  0.50000000  0.87479300  1
  V  V6  1  0.54444300  0.50000000  0.37504800  1
  V  V7  1  0.48627100  0.50000000  0.62508700  1
  O  O8  1  0.24663300  0.50000000  0.19918300  1
  O  O9  1  0.16217900  0.50000000  0.95170000  1
  O  O10  1  0.24656700  0.00000000  0.82401300  1
  O  O11  1  0.29729800  0.00000000  0.57520800  1
  O  O12  1  0.34853700  0.00000000  0.32681300  1
  O  O13  1  0.73150500  0.00000000  0.42513500  1
  O  O14  1  0.67567400  0.00000000  0.67519600  1
  O  O15  1  0.79319300  0.50000000  0.05046100  1
  F  F16  1  0.22033400  0.50000000  0.45151200  1
  F  F17  1  0.16580100  0.50000000  0.70147200  1
  F  F18  1  0.30850800  0.00000000  0.07677700  1
  F  F19  1  0.73495100  0.00000000  0.17563000  1
  F  F20  1  0.65812200  0.00000000  0.92121300  1
  F  F21  1  0.84760300  0.50000000  0.29601600  1
  F  F22  1  0.80808400  0.50000000  0.54902400  1
  F  F23  1  0.75557900  0.50000000  0.80070900  1
