# generated using pymatgen
data_ZnFeH4O2F5
_symmetry_space_group_name_H-M   'P 1'
_cell_length_a   6.51500800
_cell_length_b   7.61132400
_cell_length_c   11.01248800
_cell_angle_alpha   90.00000000
_cell_angle_beta   90.00000000
_cell_angle_gamma   90.00000000
_symmetry_Int_Tables_number   1
_chemical_formula_structural   ZnFeH4O2F5
_chemical_formula_sum   'Zn4 Fe4 H16 O8 F20'
_cell_volume   546.08545716
_cell_formula_units_Z   4
loop_
 _symmetry_equiv_pos_site_id
 _symmetry_equiv_pos_as_xyz
  1  'x, y, z'
loop_
 _atom_site_type_symbol
 _atom_site_label
 _atom_site_symmetry_multiplicity
 _atom_site_fract_x
 _atom_site_fract_y
 _atom_site_fract_z
 _atom_site_occupancy
  Zn  Zn0  1  0.74016500  0.50000000  0.24781300  1
  Zn  Zn1  1  0.74016500  0.50000000  0.75218700  1
  Zn  Zn2  1  0.24016500  0.00000000  0.74781300  1
  Zn  Zn3  1  0.24016500  0.00000000  0.25218700  1
  Fe  Fe4  1  0.99176600  0.24945800  0.00000000  1
  Fe  Fe5  1  0.99176600  0.75054200  0.00000000  1
  Fe  Fe6  1  0.49176600  0.74945800  0.50000000  1
  Fe  Fe7  1  0.49176600  0.25054200  0.50000000  1
  H  H8  1  0.11040500  0.39570900  0.33958600  1
  H  H9  1  0.11040500  0.39570900  0.66041400  1
  H  H10  1  0.36252400  0.39563000  0.16661400  1
  H  H11  1  0.36252400  0.39563000  0.83338600  1
  H  H12  1  0.36252400  0.60437000  0.83338600  1
  H  H13  1  0.36252400  0.60437000  0.16661400  1
  H  H14  1  0.11040500  0.60429100  0.33958600  1
  H  H15  1  0.11040500  0.60429100  0.66041400  1
  H  H16  1  0.61040500  0.89570900  0.83958600  1
  H  H17  1  0.61040500  0.89570900  0.16041400  1
  H  H18  1  0.86252400  0.89563000  0.66661400  1
  H  H19  1  0.86252400  0.89563000  0.33338600  1
  H  H20  1  0.86252400  0.10437000  0.33338600  1
  H  H21  1  0.86252400  0.10437000  0.66661400  1
  H  H22  1  0.61040500  0.10429100  0.83958600  1
  H  H23  1  0.61040500  0.10429100  0.16041400  1
  O  O24  1  0.03809200  0.50000000  0.69167900  1
  O  O25  1  0.44583150  0.50000000  0.18528250  1
  O  O26  1  0.44583150  0.50000000  0.81471750  1
  O  O27  1  0.03809200  0.50000000  0.30832100  1
  O  O28  1  0.53809200  0.00000000  0.19167900  1
  O  O29  1  0.94583150  0.00000000  0.68528250  1
  O  O30  1  0.94583150  0.00000000  0.31471750  1
  O  O31  1  0.53809200  0.00000000  0.80832100  1
  F  F32  1  0.90630100  0.00000000  0.00000000  1
  F  F33  1  0.19582100  0.20761700  0.12700700  1
  F  F34  1  0.19582100  0.20761700  0.87299300  1
  F  F35  1  0.78479000  0.29054500  0.12556400  1
  F  F36  1  0.78479000  0.29054500  0.87443600  1
  F  F37  1  0.07123100  0.50000000  0.00000000  1
  F  F38  1  0.78479000  0.70945500  0.12556400  1
  F  F39  1  0.78479000  0.70945500  0.87443600  1
  F  F40  1  0.19582100  0.79238300  0.12700700  1
  F  F41  1  0.19582100  0.79238300  0.87299300  1
  F  F42  1  0.40630100  0.50000000  0.50000000  1
  F  F43  1  0.69582100  0.70761700  0.62700700  1
  F  F44  1  0.69582100  0.70761700  0.37299300  1
  F  F45  1  0.28479000  0.79054500  0.62556400  1
  F  F46  1  0.28479000  0.79054500  0.37443600  1
  F  F47  1  0.57123100  0.00000000  0.50000000  1
  F  F48  1  0.28479000  0.20945500  0.62556400  1
  F  F49  1  0.28479000  0.20945500  0.37443600  1
  F  F50  1  0.69582100  0.29238300  0.62700700  1
  F  F51  1  0.69582100  0.29238300  0.37299300  1
