# generated using pymatgen
data_LiAgF2
_symmetry_space_group_name_H-M   'P 1'
_cell_length_a   3.13061800
_cell_length_b   11.46434400
_cell_length_c   5.72708300
_cell_angle_alpha   90.00000000
_cell_angle_beta   90.00000000
_cell_angle_gamma   90.00000000
_symmetry_Int_Tables_number   1
_chemical_formula_structural   LiAgF2
_chemical_formula_sum   'Li4 Ag4 F8'
_cell_volume   205.54776752
_cell_formula_units_Z   4
loop_
 _symmetry_equiv_pos_site_id
 _symmetry_equiv_pos_as_xyz
  1  'x, y, z'
loop_
 _atom_site_type_symbol
 _atom_site_label
 _atom_site_symmetry_multiplicity
 _atom_site_fract_x
 _atom_site_fract_y
 _atom_site_fract_z
 _atom_site_occupancy
  Li  Li0  1  0.50000000  0.60640700  0.25000000  1
  Li  Li1  1  0.00000000  0.89359300  0.75000000  1
  Li  Li2  1  0.00000000  0.10640700  0.25000000  1
  Li  Li3  1  0.50000000  0.39359300  0.75000000  1
  Ag  Ag4  1  0.50000000  0.86957200  0.25000000  1
  Ag  Ag5  1  0.00000000  0.63042800  0.75000000  1
  Ag  Ag6  1  0.00000000  0.36957200  0.25000000  1
  Ag  Ag7  1  0.50000000  0.13042800  0.75000000  1
  F  F8  1  0.50000000  0.80201900  0.75000000  1
  F  F9  1  0.00000000  0.69798100  0.25000000  1
  F  F10  1  0.00000000  0.00000000  0.00000000  1
  F  F11  1  0.00000000  0.00000000  0.50000000  1
  F  F12  1  0.00000000  0.30201900  0.75000000  1
  F  F13  1  0.50000000  0.19798100  0.25000000  1
  F  F14  1  0.50000000  0.50000000  0.00000000  1
  F  F15  1  0.50000000  0.50000000  0.50000000  1
