# generated using pymatgen
data_Mg2MnH24(ClO2)6
_symmetry_space_group_name_H-M   'P 1'
_cell_length_a   9.94779236
_cell_length_b   9.94779236
_cell_length_c   11.59578000
_cell_angle_alpha   90.00000000
_cell_angle_beta   90.00000000
_cell_angle_gamma   120.00000000
_symmetry_Int_Tables_number   1
_chemical_formula_structural   Mg2MnH24(ClO2)6
_chemical_formula_sum   'Mg4 Mn2 H48 Cl12 O24'
_cell_volume   993.76574423
_cell_formula_units_Z   2
loop_
 _symmetry_equiv_pos_site_id
 _symmetry_equiv_pos_as_xyz
  1  'x, y, z'
loop_
 _atom_site_type_symbol
 _atom_site_label
 _atom_site_symmetry_multiplicity
 _atom_site_fract_x
 _atom_site_fract_y
 _atom_site_fract_z
 _atom_site_occupancy
  Mg  Mg0  1  0.33333333  0.66666667  0.99856000  1
  Mg  Mg1  1  0.66666667  0.33333333  0.49856000  1
  Mg  Mg2  1  0.00000000  0.00000000  0.60164600  1
  Mg  Mg3  1  0.00000000  0.00000000  0.10164600  1
  Mn  Mn4  1  0.33333333  0.66666667  0.50257900  1
  Mn  Mn5  1  0.66666667  0.33333333  0.00257900  1
  H  H6  1  0.46524333  0.50375467  0.90842100  1
  H  H7  1  0.49624533  0.96148867  0.90842100  1
  H  H8  1  0.03851133  0.53475667  0.90842100  1
  H  H9  1  0.50375467  0.46524333  0.40842100  1
  H  H10  1  0.96148867  0.49624533  0.40842100  1
  H  H11  1  0.53475667  0.03851133  0.40842100  1
  H  H12  1  0.47547433  0.61824167  0.81288200  1
  H  H13  1  0.38175833  0.85723267  0.81288200  1
  H  H14  1  0.14276733  0.52452567  0.81288200  1
  H  H15  1  0.61824167  0.47547433  0.31288200  1
  H  H16  1  0.85723267  0.38175833  0.31288200  1
  H  H17  1  0.52452567  0.14276733  0.31288200  1
  H  H18  1  0.53816333  0.91661367  0.11343400  1
  H  H19  1  0.08338633  0.62154967  0.11343400  1
  H  H20  1  0.37845033  0.46183667  0.11343400  1
  H  H21  1  0.91661367  0.53816333  0.61343400  1
  H  H22  1  0.62154967  0.08338633  0.61343400  1
  H  H23  1  0.46183667  0.37845033  0.61343400  1
  H  H24  1  0.53263533  0.78367467  0.18698000  1
  H  H25  1  0.21632533  0.74896067  0.18698000  1
  H  H26  1  0.25103933  0.46736467  0.18698000  1
  H  H27  1  0.78367467  0.53263533  0.68698000  1
  H  H28  1  0.74896067  0.21632533  0.68698000  1
  H  H29  1  0.46736467  0.25103933  0.68698000  1
  H  H30  1  0.88763533  0.18045767  0.51911600  1
  H  H31  1  0.81954233  0.70717767  0.51911600  1
  H  H32  1  0.29282233  0.11236467  0.51911600  1
  H  H33  1  0.18045767  0.88763533  0.01911600  1
  H  H34  1  0.70717767  0.81954233  0.01911600  1
  H  H35  1  0.11236467  0.29282233  0.01911600  1
  H  H36  1  0.04274033  0.22399567  0.45210900  1
  H  H37  1  0.77600433  0.81874467  0.45210900  1
  H  H38  1  0.18125533  0.95725967  0.45210900  1
  H  H39  1  0.22399567  0.04274033  0.95210900  1
  H  H40  1  0.81874467  0.77600433  0.95210900  1
  H  H41  1  0.95725967  0.18125533  0.95210900  1
  H  H42  1  0.70578633  0.83433667  0.69241800  1
  H  H43  1  0.16566333  0.87144967  0.69241800  1
  H  H44  1  0.12855033  0.29421367  0.69241800  1
  H  H45  1  0.83433667  0.70578633  0.19241800  1
  H  H46  1  0.87144967  0.16566333  0.19241800  1
  H  H47  1  0.29421367  0.12855033  0.19241800  1
  H  H48  1  0.79290333  0.98643067  0.77082800  1
  H  H49  1  0.01356933  0.80647267  0.77082800  1
  H  H50  1  0.19352733  0.20709667  0.77082800  1
  H  H51  1  0.98643067  0.79290333  0.27082800  1
  H  H52  1  0.80647267  0.01356933  0.27082800  1
  H  H53  1  0.20709667  0.19352733  0.27082800  1
  Cl  Cl54  1  0.50528133  0.61127567  0.63525700  1
  Cl  Cl55  1  0.38872433  0.89400567  0.63525700  1
  Cl  Cl56  1  0.10599433  0.49471867  0.63525700  1
  Cl  Cl57  1  0.61127567  0.50528133  0.13525700  1
  Cl  Cl58  1  0.89400567  0.38872433  0.13525700  1
  Cl  Cl59  1  0.49471867  0.10599433  0.13525700  1
  Cl  Cl60  1  0.25573733  0.42641167  0.37517800  1
  Cl  Cl61  1  0.57358833  0.82932567  0.37517800  1
  Cl  Cl62  1  0.17067433  0.74426267  0.37517800  1
  Cl  Cl63  1  0.42641167  0.25573733  0.87517800  1
  Cl  Cl64  1  0.82932567  0.57358833  0.87517800  1
  Cl  Cl65  1  0.74426267  0.17067433  0.87517800  1
  O  O66  1  0.46429233  0.60149967  0.89773400  1
  O  O67  1  0.39850033  0.86279267  0.89773400  1
  O  O68  1  0.13720733  0.53570767  0.89773400  1
  O  O69  1  0.60149967  0.46429233  0.39773400  1
  O  O70  1  0.86279267  0.39850033  0.39773400  1
  O  O71  1  0.53570767  0.13720733  0.39773400  1
  O  O72  1  0.52608933  0.81159367  0.10578100  1
  O  O73  1  0.18840633  0.71449567  0.10578100  1
  O  O74  1  0.28550433  0.47391067  0.10578100  1
  O  O75  1  0.81159367  0.52608933  0.60578100  1
  O  O76  1  0.71449567  0.18840633  0.60578100  1
  O  O77  1  0.47391067  0.28550433  0.60578100  1
  O  O78  1  0.95361133  0.13889167  0.49254100  1
  O  O79  1  0.86110833  0.81471967  0.49254100  1
  O  O80  1  0.18528033  0.04638867  0.49254100  1
  O  O81  1  0.13889167  0.95361133  0.99254100  1
  O  O82  1  0.81471967  0.86110833  0.99254100  1
  O  O83  1  0.04638867  0.18528033  0.99254100  1
  O  O84  1  0.80633933  0.92887167  0.70769600  1
  O  O85  1  0.07112833  0.87746767  0.70769600  1
  O  O86  1  0.12253233  0.19366067  0.70769600  1
  O  O87  1  0.92887167  0.80633933  0.20769600  1
  O  O88  1  0.87746767  0.07112833  0.20769600  1
  O  O89  1  0.19366067  0.12253233  0.20769600  1
