# generated using pymatgen
data_NaTm(SO4)2
_symmetry_space_group_name_H-M   'P 1'
_cell_length_a   4.75945800
_cell_length_b   6.85033500
_cell_length_c   9.89676935
_cell_angle_alpha   90.00000000
_cell_angle_beta   97.21814771
_cell_angle_gamma   90.00000000
_symmetry_Int_Tables_number   1
_chemical_formula_structural   NaTm(SO4)2
_chemical_formula_sum   'Na2 Tm2 S4 O16'
_cell_volume   320.11589822
_cell_formula_units_Z   2
loop_
 _symmetry_equiv_pos_site_id
 _symmetry_equiv_pos_as_xyz
  1  'x, y, z'
loop_
 _atom_site_type_symbol
 _atom_site_label
 _atom_site_symmetry_multiplicity
 _atom_site_fract_x
 _atom_site_fract_y
 _atom_site_fract_z
 _atom_site_occupancy
  Na  Na0  1  0.11591300  0.25000000  0.36290000  1
  Na  Na1  1  0.88408700  0.75000000  0.63710000  1
  Tm  Tm2  1  0.85390200  0.75000000  0.17532100  1
  Tm  Tm3  1  0.14609800  0.25000000  0.82467900  1
  S  S4  1  0.64927700  0.25000000  0.07083200  1
  S  S5  1  0.35072300  0.75000000  0.92916800  1
  S  S6  1  0.33472000  0.75000000  0.39632800  1
  S  S7  1  0.66528000  0.25000000  0.60367200  1
  O  O8  1  0.33969600  0.75000000  0.54403600  1
  O  O9  1  0.66030400  0.25000000  0.45596400  1
  O  O10  1  0.63145800  0.75000000  0.36187000  1
  O  O11  1  0.36854200  0.25000000  0.63813000  1
  O  O12  1  0.23961000  0.92475400  0.85223800  1
  O  O13  1  0.76039000  0.42475400  0.14776200  1
  O  O14  1  0.76039000  0.07524600  0.14776200  1
  O  O15  1  0.23961000  0.57524600  0.85223800  1
  O  O16  1  0.33433400  0.25000000  0.05180300  1
  O  O17  1  0.66566600  0.75000000  0.94819700  1
  O  O18  1  0.73686000  0.25000000  0.93005300  1
  O  O19  1  0.26314000  0.75000000  0.06994700  1
  O  O20  1  0.82362800  0.42146900  0.67078300  1
  O  O21  1  0.17637200  0.92146900  0.32921700  1
  O  O22  1  0.17637200  0.57853100  0.32921700  1
  O  O23  1  0.82362800  0.07853100  0.67078300  1
