# generated using pymatgen
data_Dy2WO6
_symmetry_space_group_name_H-M   'P 1'
_cell_length_a   16.36560400
_cell_length_b   11.12356200
_cell_length_c   5.40824738
_cell_angle_alpha   90.00000000
_cell_angle_beta   107.23270446
_cell_angle_gamma   90.00000000
_symmetry_Int_Tables_number   1
_chemical_formula_structural   Dy2WO6
_chemical_formula_sum   'Dy16 W8 O48'
_cell_volume   940.34147909
_cell_formula_units_Z   8
loop_
 _symmetry_equiv_pos_site_id
 _symmetry_equiv_pos_as_xyz
  1  'x, y, z'
loop_
 _atom_site_type_symbol
 _atom_site_label
 _atom_site_symmetry_multiplicity
 _atom_site_fract_x
 _atom_site_fract_y
 _atom_site_fract_z
 _atom_site_occupancy
  Dy  Dy0  1  0.82952250  0.88548950  0.61720200  1
  Dy  Dy1  1  0.82952250  0.11451050  0.11720200  1
  Dy  Dy2  1  0.50000000  0.13396200  0.75000000  1
  Dy  Dy3  1  0.50000000  0.60543200  0.75000000  1
  Dy  Dy4  1  0.50000000  0.39456800  0.25000000  1
  Dy  Dy5  1  0.50000000  0.86603800  0.25000000  1
  Dy  Dy6  1  0.17047750  0.88548950  0.88279800  1
  Dy  Dy7  1  0.17047750  0.11451050  0.38279800  1
  Dy  Dy8  1  0.32952250  0.38548950  0.61720200  1
  Dy  Dy9  1  0.32952250  0.61451050  0.11720200  1
  Dy  Dy10  1  0.00000000  0.63396200  0.75000000  1
  Dy  Dy11  1  0.00000000  0.10543200  0.75000000  1
  Dy  Dy12  1  0.00000000  0.89456800  0.25000000  1
  Dy  Dy13  1  0.00000000  0.36603800  0.25000000  1
  Dy  Dy14  1  0.67047750  0.38548950  0.88279800  1
  Dy  Dy15  1  0.67047750  0.61451050  0.38279800  1
  W  W16  1  0.65309250  0.85273350  0.93359700  1
  W  W17  1  0.65309250  0.14726650  0.43359700  1
  W  W18  1  0.34690750  0.85273350  0.56640300  1
  W  W19  1  0.34690750  0.14726650  0.06640300  1
  W  W20  1  0.15309250  0.35273350  0.93359700  1
  W  W21  1  0.15309250  0.64726650  0.43359700  1
  W  W22  1  0.84690750  0.35273350  0.56640300  1
  W  W23  1  0.84690750  0.64726650  0.06640300  1
  O  O24  1  0.90857250  0.01594850  0.92181800  1
  O  O25  1  0.90857250  0.98405150  0.42181800  1
  O  O26  1  0.73285850  0.20628950  0.73864200  1
  O  O27  1  0.73396750  0.94966350  0.85285600  1
  O  O28  1  0.73285850  0.79371050  0.23864200  1
  O  O29  1  0.73396750  0.05033650  0.35285600  1
  O  O30  1  0.60186700  0.77790900  0.61486700  1
  O  O31  1  0.60186700  0.22209100  0.11486700  1
  O  O32  1  0.57793900  0.96661100  0.97966900  1
  O  O33  1  0.57617400  0.26410300  0.57897500  1
  O  O34  1  0.57793900  0.03338900  0.47966900  1
  O  O35  1  0.57617400  0.73589700  0.07897500  1
  O  O36  1  0.42382600  0.26410300  0.92102500  1
  O  O37  1  0.42206100  0.96661100  0.52033100  1
  O  O38  1  0.42382600  0.73589700  0.42102500  1
  O  O39  1  0.42206100  0.03338900  0.02033100  1
  O  O40  1  0.39813300  0.77790900  0.88513300  1
  O  O41  1  0.39813300  0.22209100  0.38513300  1
  O  O42  1  0.26603250  0.94966350  0.64714400  1
  O  O43  1  0.26714150  0.20628950  0.76135800  1
  O  O44  1  0.26603250  0.05033650  0.14714400  1
  O  O45  1  0.26714150  0.79371050  0.26135800  1
  O  O46  1  0.09142750  0.01594850  0.57818200  1
  O  O47  1  0.09142750  0.98405150  0.07818200  1
  O  O48  1  0.40857250  0.51594850  0.92181800  1
  O  O49  1  0.40857250  0.48405150  0.42181800  1
  O  O50  1  0.23285850  0.70628950  0.73864200  1
  O  O51  1  0.23396750  0.44966350  0.85285600  1
  O  O52  1  0.23285850  0.29371050  0.23864200  1
  O  O53  1  0.23396750  0.55033650  0.35285600  1
  O  O54  1  0.10186700  0.27790900  0.61486700  1
  O  O55  1  0.10186700  0.72209100  0.11486700  1
  O  O56  1  0.07793900  0.46661100  0.97966900  1
  O  O57  1  0.07617400  0.76410300  0.57897500  1
  O  O58  1  0.07793900  0.53338900  0.47966900  1
  O  O59  1  0.07617400  0.23589700  0.07897500  1
  O  O60  1  0.92382600  0.76410300  0.92102500  1
  O  O61  1  0.92206100  0.46661100  0.52033100  1
  O  O62  1  0.92382600  0.23589700  0.42102500  1
  O  O63  1  0.92206100  0.53338900  0.02033100  1
  O  O64  1  0.89813300  0.27790900  0.88513300  1
  O  O65  1  0.89813300  0.72209100  0.38513300  1
  O  O66  1  0.76603250  0.44966350  0.64714400  1
  O  O67  1  0.76714150  0.70628950  0.76135800  1
  O  O68  1  0.76603250  0.55033650  0.14714400  1
  O  O69  1  0.76714150  0.29371050  0.26135800  1
  O  O70  1  0.59142750  0.51594850  0.57818200  1
  O  O71  1  0.59142750  0.48405150  0.07818200  1
