# generated using pymatgen
data_Li2Fe2Si8O19
_symmetry_space_group_name_H-M   'P 1'
_cell_length_a   13.54274400
_cell_length_b   4.96698600
_cell_length_c   12.54388197
_cell_angle_alpha   90.00000000
_cell_angle_beta   108.37636496
_cell_angle_gamma   90.00000000
_symmetry_Int_Tables_number   1
_chemical_formula_structural   Li2Fe2Si8O19
_chemical_formula_sum   'Li4 Fe4 Si16 O38'
_cell_volume   800.75670861
_cell_formula_units_Z   2
loop_
 _symmetry_equiv_pos_site_id
 _symmetry_equiv_pos_as_xyz
  1  'x, y, z'
loop_
 _atom_site_type_symbol
 _atom_site_label
 _atom_site_symmetry_multiplicity
 _atom_site_fract_x
 _atom_site_fract_y
 _atom_site_fract_z
 _atom_site_occupancy
  Li  Li0  1  0.90004050  0.66286850  0.36124500  1
  Li  Li1  1  0.09995950  0.66286850  0.63875500  1
  Li  Li2  1  0.40004050  0.16286850  0.36124500  1
  Li  Li3  1  0.59995950  0.16286850  0.63875500  1
  Fe  Fe4  1  0.80133100  0.49021600  0.59732300  1
  Fe  Fe5  1  0.19866900  0.49021600  0.40267700  1
  Fe  Fe6  1  0.30133100  0.99021600  0.59732300  1
  Fe  Fe7  1  0.69866900  0.99021600  0.40267700  1
  Si  Si8  1  0.87936450  0.34291450  0.07252600  1
  Si  Si9  1  0.99140050  0.85590250  0.83076100  1
  Si  Si10  1  0.93307200  0.01718900  0.58079000  1
  Si  Si11  1  0.71977450  0.04712950  0.16854500  1
  Si  Si12  1  0.28022550  0.04712950  0.83145500  1
  Si  Si13  1  0.06692800  0.01718900  0.41921000  1
  Si  Si14  1  0.00859950  0.85590250  0.16923900  1
  Si  Si15  1  0.12063550  0.34291450  0.92747400  1
  Si  Si16  1  0.37936450  0.84291450  0.07252600  1
  Si  Si17  1  0.49140050  0.35590250  0.83076100  1
  Si  Si18  1  0.43307200  0.51718900  0.58079000  1
  Si  Si19  1  0.21977450  0.54712950  0.16854500  1
  Si  Si20  1  0.78022550  0.54712950  0.83145500  1
  Si  Si21  1  0.56692800  0.51718900  0.41921000  1
  Si  Si22  1  0.50859950  0.35590250  0.16923900  1
  Si  Si23  1  0.62063550  0.84291450  0.92747400  1
  O  O24  1  0.98308800  0.14915100  0.10836300  1
  O  O25  1  0.91682150  0.65250450  0.10199000  1
  O  O26  1  0.00048900  0.87770300  0.70345000  1
  O  O27  1  0.93379850  0.33905250  0.58265200  1
  O  O28  1  0.80596450  0.25562350  0.14750700  1
  O  O29  1  0.81897000  0.87599200  0.54327600  1
  O  O30  1  0.76621700  0.89089800  0.28688700  1
  O  O31  1  0.37840700  0.24068400  0.82705500  1
  O  O32  1  0.68288300  0.83724900  0.06168400  1
  O  O33  1  0.31711700  0.83724900  0.93831600  1
  O  O34  1  0.62159300  0.24068400  0.17294500  1
  O  O35  1  0.23378300  0.89089800  0.71311300  1
  O  O36  1  0.18103000  0.87599200  0.45672400  1
  O  O37  1  0.19403550  0.25562350  0.85249300  1
  O  O38  1  0.06620150  0.33905250  0.41734800  1
  O  O39  1  0.99951100  0.87770300  0.29655000  1
  O  O40  1  0.00000000  0.89046500  0.50000000  1
  O  O41  1  0.08317850  0.65250450  0.89801000  1
  O  O42  1  0.01691200  0.14915100  0.89163700  1
  O  O43  1  0.48308800  0.64915100  0.10836300  1
  O  O44  1  0.41682150  0.15250450  0.10199000  1
  O  O45  1  0.50048900  0.37770300  0.70345000  1
  O  O46  1  0.43379850  0.83905250  0.58265200  1
  O  O47  1  0.30596450  0.75562350  0.14750700  1
  O  O48  1  0.31897000  0.37599200  0.54327600  1
  O  O49  1  0.26621700  0.39089800  0.28688700  1
  O  O50  1  0.87840700  0.74068400  0.82705500  1
  O  O51  1  0.18288300  0.33724900  0.06168400  1
  O  O52  1  0.81711700  0.33724900  0.93831600  1
  O  O53  1  0.12159300  0.74068400  0.17294500  1
  O  O54  1  0.73378300  0.39089800  0.71311300  1
  O  O55  1  0.68103000  0.37599200  0.45672400  1
  O  O56  1  0.69403550  0.75562350  0.85249300  1
  O  O57  1  0.56620150  0.83905250  0.41734800  1
  O  O58  1  0.49951100  0.37770300  0.29655000  1
  O  O59  1  0.50000000  0.39046500  0.50000000  1
  O  O60  1  0.58317850  0.15250450  0.89801000  1
  O  O61  1  0.51691200  0.64915100  0.89163700  1
