# generated using pymatgen
data_Ba6YBr15
_symmetry_space_group_name_H-M   'P 1'
_cell_length_a   15.73465600
_cell_length_b   16.11711800
_cell_length_c   32.37402213
_cell_angle_alpha   90.00000000
_cell_angle_beta   91.46728281
_cell_angle_gamma   90.00000000
_symmetry_Int_Tables_number   1
_chemical_formula_structural   Ba6YBr15
_chemical_formula_sum   'Ba48 Y8 Br120'
_cell_volume   8207.27287483
_cell_formula_units_Z   8
loop_
 _symmetry_equiv_pos_site_id
 _symmetry_equiv_pos_as_xyz
  1  'x, y, z'
loop_
 _atom_site_type_symbol
 _atom_site_label
 _atom_site_symmetry_multiplicity
 _atom_site_fract_x
 _atom_site_fract_y
 _atom_site_fract_z
 _atom_site_occupancy
  Ba  Ba0  1  0.02092650  0.99460450  0.61745100  1
  Ba  Ba1  1  0.02092650  0.00539550  0.11745100  1
  Ba  Ba2  1  0.70515100  0.24244200  0.63888300  1
  Ba  Ba3  1  0.22542150  0.97353250  0.74583400  1
  Ba  Ba4  1  0.70515100  0.75755800  0.13888300  1
  Ba  Ba5  1  0.22542150  0.02646750  0.24583400  1
  Ba  Ba6  1  0.26655250  0.18205350  0.63067500  1
  Ba  Ba7  1  0.27389300  0.94748600  0.52477600  1
  Ba  Ba8  1  0.26655250  0.81794650  0.13067500  1
  Ba  Ba9  1  0.27389300  0.05251400  0.02477600  1
  Ba  Ba10  1  0.47399350  0.92352950  0.64561800  1
  Ba  Ba11  1  0.47399350  0.07647050  0.14561800  1
  Ba  Ba12  1  0.52600650  0.92352950  0.85438200  1
  Ba  Ba13  1  0.52600650  0.07647050  0.35438200  1
  Ba  Ba14  1  0.72610700  0.94748600  0.97522400  1
  Ba  Ba15  1  0.73344750  0.18205350  0.86932500  1
  Ba  Ba16  1  0.72610700  0.05251400  0.47522400  1
  Ba  Ba17  1  0.73344750  0.81794650  0.36932500  1
  Ba  Ba18  1  0.77457850  0.97353250  0.75416600  1
  Ba  Ba19  1  0.29484900  0.24244200  0.86111700  1
  Ba  Ba20  1  0.77457850  0.02646750  0.25416600  1
  Ba  Ba21  1  0.29484900  0.75755800  0.36111700  1
  Ba  Ba22  1  0.97907350  0.99460450  0.88254900  1
  Ba  Ba23  1  0.97907350  0.00539550  0.38254900  1
  Ba  Ba24  1  0.52092650  0.49460450  0.61745100  1
  Ba  Ba25  1  0.52092650  0.50539550  0.11745100  1
  Ba  Ba26  1  0.20515100  0.74244200  0.63888300  1
  Ba  Ba27  1  0.72542150  0.47353250  0.74583400  1
  Ba  Ba28  1  0.20515100  0.25755800  0.13888300  1
  Ba  Ba29  1  0.72542150  0.52646750  0.24583400  1
  Ba  Ba30  1  0.76655250  0.68205350  0.63067500  1
  Ba  Ba31  1  0.77389300  0.44748600  0.52477600  1
  Ba  Ba32  1  0.76655250  0.31794650  0.13067500  1
  Ba  Ba33  1  0.77389300  0.55251400  0.02477600  1
  Ba  Ba34  1  0.97399350  0.42352950  0.64561800  1
  Ba  Ba35  1  0.97399350  0.57647050  0.14561800  1
  Ba  Ba36  1  0.02600650  0.42352950  0.85438200  1
  Ba  Ba37  1  0.02600650  0.57647050  0.35438200  1
  Ba  Ba38  1  0.22610700  0.44748600  0.97522400  1
  Ba  Ba39  1  0.23344750  0.68205350  0.86932500  1
  Ba  Ba40  1  0.22610700  0.55251400  0.47522400  1
  Ba  Ba41  1  0.23344750  0.31794650  0.36932500  1
  Ba  Ba42  1  0.27457850  0.47353250  0.75416600  1
  Ba  Ba43  1  0.79484900  0.74244200  0.86111700  1
  Ba  Ba44  1  0.27457850  0.52646750  0.25416600  1
  Ba  Ba45  1  0.79484900  0.25755800  0.36111700  1
  Ba  Ba46  1  0.47907350  0.49460450  0.88254900  1
  Ba  Ba47  1  0.47907350  0.50539550  0.38254900  1
  Y  Y48  1  0.26364450  0.97656950  0.88770900  1
  Y  Y49  1  0.26364450  0.02343050  0.38770900  1
  Y  Y50  1  0.73635550  0.97656950  0.61229100  1
  Y  Y51  1  0.73635550  0.02343050  0.11229100  1
  Y  Y52  1  0.76364450  0.47656950  0.88770900  1
  Y  Y53  1  0.76364450  0.52343050  0.38770900  1
  Y  Y54  1  0.23635550  0.47656950  0.61229100  1
  Y  Y55  1  0.23635550  0.52343050  0.11229100  1
  Br  Br56  1  0.13983700  0.03509400  0.94657500  1
  Br  Br57  1  0.13983700  0.96490600  0.44657500  1
  Br  Br58  1  0.14928600  0.06812500  0.83136100  1
  Br  Br59  1  0.15043150  0.09814850  0.55965300  1
  Br  Br60  1  0.14928600  0.93187500  0.33136100  1
  Br  Br61  1  0.15043150  0.90185150  0.05965300  1
  Br  Br62  1  0.35047100  0.10711000  0.93442800  1
  Br  Br63  1  0.34006100  0.82638300  0.70431900  1
  Br  Br64  1  0.35047100  0.89289000  0.43442800  1
  Br  Br65  1  0.36887350  0.35022350  0.61157500  1
  Br  Br66  1  0.34006100  0.17361700  0.20431900  1
  Br  Br67  1  0.37643500  0.06293600  0.82753800  1
  Br  Br68  1  0.36887350  0.64977650  0.11157500  1
  Br  Br69  1  0.36454050  0.80480050  0.58272600  1
  Br  Br70  1  0.37071550  0.07050450  0.69877500  1
  Br  Br71  1  0.37728200  0.87713000  0.93131900  1
  Br  Br72  1  0.38255950  0.35249650  0.93342100  1
  Br  Br73  1  0.88238850  0.10897950  0.81209500  1
  Br  Br74  1  0.37643500  0.93706400  0.32753800  1
  Br  Br75  1  0.36454050  0.19519950  0.08272600  1
  Br  Br76  1  0.37071550  0.92949550  0.19877500  1
  Br  Br77  1  0.37728200  0.12287000  0.43131900  1
  Br  Br78  1  0.38255950  0.64750350  0.43342100  1
  Br  Br79  1  0.88238850  0.89102050  0.31209500  1
  Br  Br80  1  0.31317300  0.85500500  0.82221100  1
  Br  Br81  1  0.39933550  0.06008850  0.58074700  1
  Br  Br82  1  0.41556100  0.36505100  0.80741000  1
  Br  Br83  1  0.31317300  0.14499500  0.32221100  1
  Br  Br84  1  0.39933550  0.93991150  0.08074700  1
  Br  Br85  1  0.41556100  0.63494900  0.30741000  1
  Br  Br86  1  0.58443900  0.36505100  0.69259000  1
  Br  Br87  1  0.60066450  0.06008850  0.91925300  1
  Br  Br88  1  0.68682700  0.85500500  0.67778900  1
  Br  Br89  1  0.58443900  0.63494900  0.19259000  1
  Br  Br90  1  0.60066450  0.93991150  0.41925300  1
  Br  Br91  1  0.68682700  0.14499500  0.17778900  1
  Br  Br92  1  0.11761150  0.10897950  0.68790500  1
  Br  Br93  1  0.61744050  0.35249650  0.56657900  1
  Br  Br94  1  0.62271800  0.87713000  0.56868100  1
  Br  Br95  1  0.62928450  0.07050450  0.80122500  1
  Br  Br96  1  0.63545950  0.80480050  0.91727400  1
  Br  Br97  1  0.62356500  0.06293600  0.67246200  1
  Br  Br98  1  0.11761150  0.89102050  0.18790500  1
  Br  Br99  1  0.61744050  0.64750350  0.06657900  1
  Br  Br100  1  0.62271800  0.12287000  0.06868100  1
  Br  Br101  1  0.62928450  0.92949550  0.30122500  1
  Br  Br102  1  0.63545950  0.19519950  0.41727400  1
  Br  Br103  1  0.63112650  0.35022350  0.88842500  1
  Br  Br104  1  0.62356500  0.93706400  0.17246200  1
  Br  Br105  1  0.65993900  0.82638300  0.79568100  1
  Br  Br106  1  0.63112650  0.64977650  0.38842500  1
  Br  Br107  1  0.64952900  0.10711000  0.56557200  1
  Br  Br108  1  0.65993900  0.17361700  0.29568100  1
  Br  Br109  1  0.64952900  0.89289000  0.06557200  1
  Br  Br110  1  0.84956850  0.09814850  0.94034700  1
  Br  Br111  1  0.85071400  0.06812500  0.66863900  1
  Br  Br112  1  0.84956850  0.90185150  0.44034700  1
  Br  Br113  1  0.85071400  0.93187500  0.16863900  1
  Br  Br114  1  0.86016300  0.03509400  0.55342500  1
  Br  Br115  1  0.86016300  0.96490600  0.05342500  1
  Br  Br116  1  0.63983700  0.53509400  0.94657500  1
  Br  Br117  1  0.63983700  0.46490600  0.44657500  1
  Br  Br118  1  0.64928600  0.56812500  0.83136100  1
  Br  Br119  1  0.65043150  0.59814850  0.55965300  1
  Br  Br120  1  0.64928600  0.43187500  0.33136100  1
  Br  Br121  1  0.65043150  0.40185150  0.05965300  1
  Br  Br122  1  0.85047100  0.60711000  0.93442800  1
  Br  Br123  1  0.84006100  0.32638300  0.70431900  1
  Br  Br124  1  0.85047100  0.39289000  0.43442800  1
  Br  Br125  1  0.86887350  0.85022350  0.61157500  1
  Br  Br126  1  0.84006100  0.67361700  0.20431900  1
  Br  Br127  1  0.87643500  0.56293600  0.82753800  1
  Br  Br128  1  0.86887350  0.14977650  0.11157500  1
  Br  Br129  1  0.86454050  0.30480050  0.58272600  1
  Br  Br130  1  0.87071550  0.57050450  0.69877500  1
  Br  Br131  1  0.87728200  0.37713000  0.93131900  1
  Br  Br132  1  0.88255950  0.85249650  0.93342100  1
  Br  Br133  1  0.38238850  0.60897950  0.81209500  1
  Br  Br134  1  0.87643500  0.43706400  0.32753800  1
  Br  Br135  1  0.86454050  0.69519950  0.08272600  1
  Br  Br136  1  0.87071550  0.42949550  0.19877500  1
  Br  Br137  1  0.87728200  0.62287000  0.43131900  1
  Br  Br138  1  0.88255950  0.14750350  0.43342100  1
  Br  Br139  1  0.38238850  0.39102050  0.31209500  1
  Br  Br140  1  0.81317300  0.35500500  0.82221100  1
  Br  Br141  1  0.89933550  0.56008850  0.58074700  1
  Br  Br142  1  0.91556100  0.86505100  0.80741000  1
  Br  Br143  1  0.81317300  0.64499500  0.32221100  1
  Br  Br144  1  0.89933550  0.43991150  0.08074700  1
  Br  Br145  1  0.91556100  0.13494900  0.30741000  1
  Br  Br146  1  0.08443900  0.86505100  0.69259000  1
  Br  Br147  1  0.10066450  0.56008850  0.91925300  1
  Br  Br148  1  0.18682700  0.35500500  0.67778900  1
  Br  Br149  1  0.08443900  0.13494900  0.19259000  1
  Br  Br150  1  0.10066450  0.43991150  0.41925300  1
  Br  Br151  1  0.18682700  0.64499500  0.17778900  1
  Br  Br152  1  0.61761150  0.60897950  0.68790500  1
  Br  Br153  1  0.11744050  0.85249650  0.56657900  1
  Br  Br154  1  0.12271800  0.37713000  0.56868100  1
  Br  Br155  1  0.12928450  0.57050450  0.80122500  1
  Br  Br156  1  0.13545950  0.30480050  0.91727400  1
  Br  Br157  1  0.12356500  0.56293600  0.67246200  1
  Br  Br158  1  0.61761150  0.39102050  0.18790500  1
  Br  Br159  1  0.11744050  0.14750350  0.06657900  1
  Br  Br160  1  0.12271800  0.62287000  0.06868100  1
  Br  Br161  1  0.12928450  0.42949550  0.30122500  1
  Br  Br162  1  0.13545950  0.69519950  0.41727400  1
  Br  Br163  1  0.13112650  0.85022350  0.88842500  1
  Br  Br164  1  0.12356500  0.43706400  0.17246200  1
  Br  Br165  1  0.15993900  0.32638300  0.79568100  1
  Br  Br166  1  0.13112650  0.14977650  0.38842500  1
  Br  Br167  1  0.14952900  0.60711000  0.56557200  1
  Br  Br168  1  0.15993900  0.67361700  0.29568100  1
  Br  Br169  1  0.14952900  0.39289000  0.06557200  1
  Br  Br170  1  0.34956850  0.59814850  0.94034700  1
  Br  Br171  1  0.35071400  0.56812500  0.66863900  1
  Br  Br172  1  0.34956850  0.40185150  0.44034700  1
  Br  Br173  1  0.35071400  0.43187500  0.16863900  1
  Br  Br174  1  0.36016300  0.53509400  0.55342500  1
  Br  Br175  1  0.36016300  0.46490600  0.05342500  1
