# generated using pymatgen
data_Fe21O23
_symmetry_space_group_name_H-M   'P 1'
_cell_length_a   6.89823300
_cell_length_b   8.11798556
_cell_length_c   9.75420340
_cell_angle_alpha   83.08563392
_cell_angle_beta   73.55589043
_cell_angle_gamma   64.97870668
_symmetry_Int_Tables_number   1
_chemical_formula_structural   Fe21O23
_chemical_formula_sum   'Fe21 O23'
_cell_volume   474.72320235
_cell_formula_units_Z   1
loop_
 _symmetry_equiv_pos_site_id
 _symmetry_equiv_pos_as_xyz
  1  'x, y, z'
loop_
 _atom_site_type_symbol
 _atom_site_label
 _atom_site_symmetry_multiplicity
 _atom_site_fract_x
 _atom_site_fract_y
 _atom_site_fract_z
 _atom_site_occupancy
  Fe  Fe0  1  0.12757000  0.29782500  0.03995100  1
  Fe  Fe1  1  0.25728100  0.61827200  0.08110300  1
  Fe  Fe2  1  0.37572400  0.91730400  0.12963900  1
  Fe  Fe3  1  0.52648500  0.21860300  0.17548100  1
  Fe  Fe4  1  0.64168300  0.52254800  0.22606600  1
  Fe  Fe5  1  0.79019200  0.82737400  0.24871600  1
  Fe  Fe6  1  0.90718900  0.13004200  0.29663700  1
  Fe  Fe7  1  0.05649400  0.42920400  0.35335400  1
  Fe  Fe8  1  0.18078900  0.73077700  0.39611400  1
  Fe  Fe9  1  0.31183300  0.04630700  0.43491600  1
  Fe  Fe10  1  0.56480000  0.64603300  0.52041800  1
  Fe  Fe11  1  0.68886100  0.96619900  0.56068800  1
  Fe  Fe12  1  0.81057500  0.26361900  0.60340000  1
  Fe  Fe13  1  0.96245300  0.55782100  0.65051200  1
  Fe  Fe14  1  0.08919000  0.87335700  0.70370400  1
  Fe  Fe15  1  0.21767000  0.17659500  0.73751800  1
  Fe  Fe16  1  0.34976500  0.47202300  0.77663400  1
  Fe  Fe17  1  0.46945000  0.78483200  0.82892300  1
  Fe  Fe18  1  0.61554500  0.08681000  0.87406500  1
  Fe  Fe19  1  0.74785200  0.38330700  0.91533100  1
  Fe  Fe20  1  0.87300600  0.69988800  0.95931300  1
  O  O21  1  0.57156600  0.64811200  0.02084900  1
  O  O22  1  0.66871700  0.96475400  0.06577300  1
  O  O23  1  0.82114800  0.26617600  0.12433300  1
  O  O24  1  0.96696800  0.55693800  0.15487200  1
  O  O25  1  0.08965900  0.87415400  0.21192300  1
  O  O26  1  0.19707400  0.18407400  0.24661800  1
  O  O27  1  0.33034700  0.47982500  0.27292400  1
  O  O28  1  0.47762600  0.79031900  0.32693900  1
  O  O29  1  0.63544400  0.07372200  0.36433300  1
  O  O30  1  0.77166600  0.38305000  0.40338000  1
  O  O31  1  0.87199700  0.67940800  0.45088900  1
  O  O32  1  0.00242800  0.99491900  0.50016200  1
  O  O33  1  0.11920900  0.30355800  0.54079700  1
  O  O34  1  0.24657600  0.63568900  0.59842300  1
  O  O35  1  0.37486200  0.91504200  0.63513400  1
  O  O36  1  0.52535700  0.20142400  0.69321900  1
  O  O37  1  0.64958800  0.52886700  0.71959200  1
  O  O38  1  0.78909500  0.83485300  0.75826600  1
  O  O39  1  0.90565300  0.12823900  0.79221500  1
  O  O40  1  0.04099100  0.43460600  0.84742800  1
  O  O41  1  0.17018800  0.73536100  0.88188200  1
  O  O42  1  0.32975000  0.04977400  0.92874500  1
  O  O43  1  0.44490100  0.34057000  0.97056100  1
