# generated using pymatgen
data_CaCd3O4
_symmetry_space_group_name_H-M   'P 1'
_cell_length_a   6.74186000
_cell_length_b   9.58698400
_cell_length_c   3.41191500
_cell_angle_alpha   90.00000000
_cell_angle_beta   90.00000000
_cell_angle_gamma   90.00000000
_symmetry_Int_Tables_number   1
_chemical_formula_structural   CaCd3O4
_chemical_formula_sum   'Ca2 Cd6 O8'
_cell_volume   220.52606878
_cell_formula_units_Z   2
loop_
 _symmetry_equiv_pos_site_id
 _symmetry_equiv_pos_as_xyz
  1  'x, y, z'
loop_
 _atom_site_type_symbol
 _atom_site_label
 _atom_site_symmetry_multiplicity
 _atom_site_fract_x
 _atom_site_fract_y
 _atom_site_fract_z
 _atom_site_occupancy
  Ca  Ca0  1  0.50000000  0.00000000  0.00000000  1
  Ca  Ca1  1  0.00000000  0.50000000  0.00000000  1
  Cd  Cd2  1  0.25000000  0.75000000  0.50000000  1
  Cd  Cd3  1  0.25000000  0.25000000  0.50000000  1
  Cd  Cd4  1  0.00000000  0.00000000  0.00000000  1
  Cd  Cd5  1  0.75000000  0.25000000  0.50000000  1
  Cd  Cd6  1  0.75000000  0.75000000  0.50000000  1
  Cd  Cd7  1  0.50000000  0.50000000  0.00000000  1
  O  O8  1  0.50000000  0.24985600  0.00000000  1
  O  O9  1  0.25236300  0.00000000  0.50000000  1
  O  O10  1  0.74763700  0.00000000  0.50000000  1
  O  O11  1  0.50000000  0.75014400  0.00000000  1
  O  O12  1  0.00000000  0.74985600  0.00000000  1
  O  O13  1  0.75236300  0.50000000  0.50000000  1
  O  O14  1  0.24763700  0.50000000  0.50000000  1
  O  O15  1  0.00000000  0.25014400  0.00000000  1
