# generated using pymatgen
data_K3Mo4H6O16F
_symmetry_space_group_name_H-M   'P 1'
_cell_length_a   8.12404700
_cell_length_b   10.60426600
_cell_length_c   10.71918718
_cell_angle_alpha   103.98709776
_cell_angle_beta   96.59669172
_cell_angle_gamma   106.42890167
_symmetry_Int_Tables_number   1
_chemical_formula_structural   K3Mo4H6O16F
_chemical_formula_sum   'K6 Mo8 H12 O32 F2'
_cell_volume   842.66591027
_cell_formula_units_Z   2
loop_
 _symmetry_equiv_pos_site_id
 _symmetry_equiv_pos_as_xyz
  1  'x, y, z'
loop_
 _atom_site_type_symbol
 _atom_site_label
 _atom_site_symmetry_multiplicity
 _atom_site_fract_x
 _atom_site_fract_y
 _atom_site_fract_z
 _atom_site_occupancy
  K  K0  1  0.81913900  0.14242200  0.46981200  1
  K  K1  1  0.18086100  0.85757800  0.53018800  1
  K  K2  1  0.68059100  0.10322300  0.83129500  1
  K  K3  1  0.31940900  0.89677700  0.16870500  1
  K  K4  1  0.91602600  0.52687100  0.17896100  1
  K  K5  1  0.08397400  0.47312900  0.82103900  1
  Mo  Mo6  1  0.27463400  0.47932800  0.48871700  1
  Mo  Mo7  1  0.72536600  0.52067200  0.51128300  1
  Mo  Mo8  1  0.14311300  0.24609200  0.17744200  1
  Mo  Mo9  1  0.85688700  0.75390800  0.82255800  1
  Mo  Mo10  1  0.60528900  0.78754800  0.49679200  1
  Mo  Mo11  1  0.39471100  0.21245200  0.50320800  1
  Mo  Mo12  1  0.40562500  0.56135800  0.20658800  1
  Mo  Mo13  1  0.59437500  0.43864200  0.79341200  1
  H  H14  1  0.08895100  0.17350400  0.69990800  1
  H  H15  1  0.91104900  0.82649600  0.30009200  1
  H  H16  1  0.04833600  0.18510300  0.83923300  1
  H  H17  1  0.95166400  0.81489700  0.16076700  1
  H  H18  1  0.70123100  0.26054400  0.08548000  1
  H  H19  1  0.29876900  0.73945600  0.91452000  1
  H  H20  1  0.52141000  0.24977000  0.12530000  1
  H  H21  1  0.47859000  0.75023000  0.87470000  1
  H  H22  1  0.31226700  0.02536200  0.89421300  1
  H  H23  1  0.68773300  0.97463800  0.10578700  1
  H  H24  1  0.37007600  0.17652100  0.89242000  1
  H  H25  1  0.62992400  0.82347900  0.10758000  1
  O  O26  1  0.09424100  0.41239800  0.55393500  1
  O  O27  1  0.90575900  0.58760200  0.44606500  1
  O  O28  1  0.99756000  0.26091800  0.05028600  1
  O  O29  1  0.00244000  0.73908200  0.94971400  1
  O  O30  1  0.17504600  0.08891500  0.11829800  1
  O  O31  1  0.82495400  0.91108500  0.88170200  1
  O  O32  1  0.79182800  0.85985500  0.43663400  1
  O  O33  1  0.20817200  0.14014500  0.56336600  1
  O  O34  1  0.56338500  0.92977600  0.59198900  1
  O  O35  1  0.43661500  0.07022400  0.40801100  1
  O  O36  1  0.60368600  0.60613000  0.15461900  1
  O  O37  1  0.39631400  0.39387000  0.84538100  1
  O  O38  1  0.25098600  0.58062100  0.08931000  1
  O  O39  1  0.74901400  0.41937900  0.91069000  1
  O  O40  1  0.34172800  0.66028800  0.55958100  1
  O  O41  1  0.65827200  0.33971200  0.44041900  1
  O  O42  1  0.36153400  0.36089500  0.15087800  1
  O  O43  1  0.63846600  0.63910500  0.84912200  1
  O  O44  1  0.42780400  0.73409200  0.33695200  1
  O  O45  1  0.57219600  0.26590800  0.66304800  1
  O  O46  1  0.29041100  0.28076700  0.37615700  1
  O  O47  1  0.70958900  0.71923300  0.62384300  1
  O  O48  1  0.18822700  0.46393900  0.30946600  1
  O  O49  1  0.81177300  0.53606100  0.69053400  1
  O  O50  1  0.54348700  0.55980500  0.40334200  1
  O  O51  1  0.45651300  0.44019500  0.59665800  1
  O  O52  1  0.00388700  0.19373800  0.75419900  1
  O  O53  1  0.99611300  0.80626200  0.24580100  1
  O  O54  1  0.59646400  0.19477800  0.09578200  1
  O  O55  1  0.40353600  0.80522200  0.90421800  1
  O  O56  1  0.32711700  0.08221900  0.83490500  1
  O  O57  1  0.67288300  0.91778100  0.16509500  1
  F  F58  1  0.95573700  0.19737900  0.27391500  1
  F  F59  1  0.04426300  0.80262100  0.72608500  1
