# generated using pymatgen
data_Li3SbO3
_symmetry_space_group_name_H-M   'P 1'
_cell_length_a   8.71368400
_cell_length_b   8.71368400
_cell_length_c   8.71368400
_cell_angle_alpha   90.00000000
_cell_angle_beta   90.00000000
_cell_angle_gamma   90.00000000
_symmetry_Int_Tables_number   1
_chemical_formula_structural   Li3SbO3
_chemical_formula_sum   'Li24 Sb8 O24'
_cell_volume   661.61511572
_cell_formula_units_Z   8
loop_
 _symmetry_equiv_pos_site_id
 _symmetry_equiv_pos_as_xyz
  1  'x, y, z'
loop_
 _atom_site_type_symbol
 _atom_site_label
 _atom_site_symmetry_multiplicity
 _atom_site_fract_x
 _atom_site_fract_y
 _atom_site_fract_z
 _atom_site_occupancy
  Li  Li0  1  0.87745750  0.12254250  0.41176750  1
  Li  Li1  1  0.87745750  0.41176750  0.12254250  1
  Li  Li2  1  0.08823250  0.37745750  0.37745750  1
  Li  Li3  1  0.12254250  0.41176750  0.87745750  1
  Li  Li4  1  0.12254250  0.87745750  0.41176750  1
  Li  Li5  1  0.12254250  0.58823250  0.12254250  1
  Li  Li6  1  0.12254250  0.12254250  0.58823250  1
  Li  Li7  1  0.37745750  0.08823250  0.37745750  1
  Li  Li8  1  0.37745750  0.37745750  0.08823250  1
  Li  Li9  1  0.41176750  0.87745750  0.12254250  1
  Li  Li10  1  0.41176750  0.12254250  0.87745750  1
  Li  Li11  1  0.58823250  0.12254250  0.12254250  1
  Li  Li12  1  0.37745750  0.62254250  0.91176750  1
  Li  Li13  1  0.37745750  0.91176750  0.62254250  1
  Li  Li14  1  0.58823250  0.87745750  0.87745750  1
  Li  Li15  1  0.62254250  0.91176750  0.37745750  1
  Li  Li16  1  0.62254250  0.37745750  0.91176750  1
  Li  Li17  1  0.62254250  0.08823250  0.62254250  1
  Li  Li18  1  0.62254250  0.62254250  0.08823250  1
  Li  Li19  1  0.87745750  0.58823250  0.87745750  1
  Li  Li20  1  0.87745750  0.87745750  0.58823250  1
  Li  Li21  1  0.91176750  0.37745750  0.62254250  1
  Li  Li22  1  0.91176750  0.62254250  0.37745750  1
  Li  Li23  1  0.08823250  0.62254250  0.62254250  1
  Sb  Sb24  1  0.64077400  0.35922600  0.35922600  1
  Sb  Sb25  1  0.14077400  0.14077400  0.14077400  1
  Sb  Sb26  1  0.35922600  0.64077400  0.35922600  1
  Sb  Sb27  1  0.35922600  0.35922600  0.64077400  1
  Sb  Sb28  1  0.14077400  0.85922600  0.85922600  1
  Sb  Sb29  1  0.64077400  0.64077400  0.64077400  1
  Sb  Sb30  1  0.85922600  0.14077400  0.85922600  1
  Sb  Sb31  1  0.85922600  0.85922600  0.14077400  1
  O  O32  1  0.86642650  0.37136150  0.37136150  1
  O  O33  1  0.87136150  0.12863850  0.63357350  1
  O  O34  1  0.87136150  0.63357350  0.12863850  1
  O  O35  1  0.12863850  0.12863850  0.36642650  1
  O  O36  1  0.12863850  0.87136150  0.63357350  1
  O  O37  1  0.12863850  0.36642650  0.12863850  1
  O  O38  1  0.12863850  0.63357350  0.87136150  1
  O  O39  1  0.36642650  0.12863850  0.12863850  1
  O  O40  1  0.37136150  0.37136150  0.86642650  1
  O  O41  1  0.37136150  0.86642650  0.37136150  1
  O  O42  1  0.63357350  0.12863850  0.87136150  1
  O  O43  1  0.63357350  0.87136150  0.12863850  1
  O  O44  1  0.36642650  0.87136150  0.87136150  1
  O  O45  1  0.37136150  0.62863850  0.13357350  1
  O  O46  1  0.37136150  0.13357350  0.62863850  1
  O  O47  1  0.62863850  0.62863850  0.86642650  1
  O  O48  1  0.62863850  0.37136150  0.13357350  1
  O  O49  1  0.62863850  0.86642650  0.62863850  1
  O  O50  1  0.62863850  0.13357350  0.37136150  1
  O  O51  1  0.86642650  0.62863850  0.62863850  1
  O  O52  1  0.87136150  0.87136150  0.36642650  1
  O  O53  1  0.87136150  0.36642650  0.87136150  1
  O  O54  1  0.13357350  0.62863850  0.37136150  1
  O  O55  1  0.13357350  0.37136150  0.62863850  1
