# generated using pymatgen
data_Sm(ClO4)3
_symmetry_space_group_name_H-M   'P 1'
_cell_length_a   8.39111998
_cell_length_b   8.39111998
_cell_length_c   25.01654241
_cell_angle_alpha   90.00000000
_cell_angle_beta   90.00000000
_cell_angle_gamma   120.00000000
_symmetry_Int_Tables_number   1
_chemical_formula_structural   Sm(ClO4)3
_chemical_formula_sum   'Sm6 Cl18 O72'
_cell_volume   1525.44929984
_cell_formula_units_Z   6
loop_
 _symmetry_equiv_pos_site_id
 _symmetry_equiv_pos_as_xyz
  1  'x, y, z'
loop_
 _atom_site_type_symbol
 _atom_site_label
 _atom_site_symmetry_multiplicity
 _atom_site_fract_x
 _atom_site_fract_y
 _atom_site_fract_z
 _atom_site_occupancy
  Sm  Sm0  1  0.00000000  0.00000000  0.05831400  1
  Sm  Sm1  1  0.33333333  0.66666667  0.22498067  1
  Sm  Sm2  1  0.66666667  0.33333333  0.39164733  1
  Sm  Sm3  1  0.00000000  0.00000000  0.55831400  1
  Sm  Sm4  1  0.33333333  0.66666667  0.72498067  1
  Sm  Sm5  1  0.66666667  0.33333333  0.89164733  1
  Cl  Cl6  1  0.67799333  0.97807667  0.16690967  1
  Cl  Cl7  1  0.30008333  0.32200667  0.16690967  1
  Cl  Cl8  1  0.96675000  0.31141000  0.00024300  1
  Cl  Cl9  1  0.02192333  0.69991667  0.16690967  1
  Cl  Cl10  1  0.68859000  0.65534000  0.00024300  1
  Cl  Cl11  1  0.34466000  0.03325000  0.00024300  1
  Cl  Cl12  1  0.34466000  0.31141000  0.50024300  1
  Cl  Cl13  1  0.96675000  0.65534000  0.50024300  1
  Cl  Cl14  1  0.63341667  0.64474333  0.33357633  1
  Cl  Cl15  1  0.68859000  0.03325000  0.50024300  1
  Cl  Cl16  1  0.35525667  0.98867333  0.33357633  1
  Cl  Cl17  1  0.01132667  0.36658333  0.33357633  1
  Cl  Cl18  1  0.01132667  0.64474333  0.83357633  1
  Cl  Cl19  1  0.63341667  0.98867333  0.83357633  1
  Cl  Cl20  1  0.30008333  0.97807667  0.66690967  1
  Cl  Cl21  1  0.35525667  0.36658333  0.83357633  1
  Cl  Cl22  1  0.02192333  0.32200667  0.66690967  1
  Cl  Cl23  1  0.67799333  0.69991667  0.66690967  1
  O  O24  1  0.42926833  0.18520867  0.32013867  1
  O  O25  1  0.75594033  0.57073167  0.32013867  1
  O  O26  1  0.76050900  0.92174400  0.12422500  1
  O  O27  1  0.39863967  0.22668633  0.17376833  1
  O  O28  1  0.67600800  0.87974000  0.21636000  1
  O  O29  1  0.49471333  0.56001967  0.00710167  1
  O  O30  1  0.49456833  0.58841067  0.29089167  1
  O  O31  1  0.81479133  0.24405967  0.32013867  1
  O  O32  1  0.77331367  0.17195333  0.17376833  1
  O  O33  1  0.42260700  0.51854200  0.15347200  1
  O  O34  1  0.16123500  0.23949100  0.12422500  1
  O  O35  1  0.20373200  0.32399200  0.21636000  1
  O  O36  1  0.48145800  0.90406500  0.15347200  1
  O  O37  1  0.43998033  0.93469367  0.00710167  1
  O  O38  1  0.41158933  0.90615767  0.29089167  1
  O  O39  1  0.09384233  0.50543167  0.29089167  1
  O  O40  1  0.06530633  0.50528667  0.00710167  1
  O  O41  1  0.09593500  0.57739300  0.15347200  1
  O  O42  1  0.87039867  0.21307333  0.04969333  1
  O  O43  1  0.12026000  0.79626800  0.21636000  1
  O  O44  1  0.07825600  0.83876500  0.12422500  1
  O  O45  1  0.82804667  0.60136033  0.17376833  1
  O  O46  1  0.78692667  0.65732533  0.04969333  1
  O  O47  1  0.34267467  0.12960133  0.04969333  1
  O  O48  1  0.09593500  0.51854200  0.65347200  1
  O  O49  1  0.42260700  0.90406500  0.65347200  1
  O  O50  1  0.42717567  0.25507733  0.45755833  1
  O  O51  1  0.06530633  0.56001967  0.50710167  1
  O  O52  1  0.34267467  0.21307333  0.54969333  1
  O  O53  1  0.16138000  0.89335300  0.34043500  1
  O  O54  1  0.16123500  0.92174400  0.62422500  1
  O  O55  1  0.48145800  0.57739300  0.65347200  1
  O  O56  1  0.43998033  0.50528667  0.50710167  1
  O  O57  1  0.08927367  0.85187533  0.48680533  1
  O  O58  1  0.82790167  0.57282433  0.45755833  1
  O  O59  1  0.87039867  0.65732533  0.54969333  1
  O  O60  1  0.14812467  0.23739833  0.48680533  1
  O  O61  1  0.10664700  0.26802700  0.34043500  1
  O  O62  1  0.07825600  0.23949100  0.62422500  1
  O  O63  1  0.76050900  0.83876500  0.62422500  1
  O  O64  1  0.73197300  0.83862000  0.34043500  1
  O  O65  1  0.76260167  0.91072633  0.48680533  1
  O  O66  1  0.53706533  0.54640667  0.38302667  1
  O  O67  1  0.78692667  0.12960133  0.54969333  1
  O  O68  1  0.74492267  0.17209833  0.45755833  1
  O  O69  1  0.49471333  0.93469367  0.50710167  1
  O  O70  1  0.45359333  0.99065867  0.38302667  1
  O  O71  1  0.00934133  0.46293467  0.38302667  1
  O  O72  1  0.76260167  0.85187533  0.98680533  1
  O  O73  1  0.08927367  0.23739833  0.98680533  1
  O  O74  1  0.09384233  0.58841067  0.79089167  1
  O  O75  1  0.73197300  0.89335300  0.84043500  1
  O  O76  1  0.00934133  0.54640667  0.88302667  1
  O  O77  1  0.82804667  0.22668633  0.67376833  1
  O  O78  1  0.82790167  0.25507733  0.95755833  1
  O  O79  1  0.14812467  0.91072633  0.98680533  1
  O  O80  1  0.10664700  0.83862000  0.84043500  1
  O  O81  1  0.75594033  0.18520867  0.82013867  1
  O  O82  1  0.49456833  0.90615767  0.79089167  1
  O  O83  1  0.53706533  0.99065867  0.88302667  1
  O  O84  1  0.81479133  0.57073167  0.82013867  1
  O  O85  1  0.77331367  0.60136033  0.67376833  1
  O  O86  1  0.74492267  0.57282433  0.95755833  1
  O  O87  1  0.42717567  0.17209833  0.95755833  1
  O  O88  1  0.39863967  0.17195333  0.67376833  1
  O  O89  1  0.42926833  0.24405967  0.82013867  1
  O  O90  1  0.20373200  0.87974000  0.71636000  1
  O  O91  1  0.45359333  0.46293467  0.88302667  1
  O  O92  1  0.41158933  0.50543167  0.79089167  1
  O  O93  1  0.16138000  0.26802700  0.84043500  1
  O  O94  1  0.12026000  0.32399200  0.71636000  1
  O  O95  1  0.67600800  0.79626800  0.71636000  1
