# generated using pymatgen
data_Mg(GaO2)2
_symmetry_space_group_name_H-M   'P 1'
_cell_length_a   5.96042039
_cell_length_b   5.96042039
_cell_length_c   14.54882051
_cell_angle_alpha   90.00000000
_cell_angle_beta   90.00000000
_cell_angle_gamma   120.00000000
_symmetry_Int_Tables_number   1
_chemical_formula_structural   Mg(GaO2)2
_chemical_formula_sum   'Mg6 Ga12 O24'
_cell_volume   447.62280152
_cell_formula_units_Z   6
loop_
 _symmetry_equiv_pos_site_id
 _symmetry_equiv_pos_as_xyz
  1  'x, y, z'
loop_
 _atom_site_type_symbol
 _atom_site_label
 _atom_site_symmetry_multiplicity
 _atom_site_fract_x
 _atom_site_fract_y
 _atom_site_fract_z
 _atom_site_occupancy
  Mg  Mg0  1  0.33333333  0.66666667  0.78796767  1
  Mg  Mg1  1  0.33333333  0.66666667  0.16475267  1
  Mg  Mg2  1  0.00000000  0.00000000  0.12130100  1
  Mg  Mg3  1  0.00000000  0.00000000  0.49808600  1
  Mg  Mg4  1  0.66666667  0.33333333  0.45463433  1
  Mg  Mg5  1  0.66666667  0.33333333  0.83141933  1
  Ga  Ga6  1  0.00878067  0.50439033  0.00145433  1
  Ga  Ga7  1  0.49560967  0.99121933  0.00145433  1
  Ga  Ga8  1  0.49560967  0.50439033  0.00145433  1
  Ga  Ga9  1  0.33333333  0.66666667  0.54678967  1
  Ga  Ga10  1  0.67544733  0.83772367  0.33478767  1
  Ga  Ga11  1  0.16227633  0.32455267  0.33478767  1
  Ga  Ga12  1  0.16227633  0.83772367  0.33478767  1
  Ga  Ga13  1  0.00000000  0.00000000  0.88012300  1
  Ga  Ga14  1  0.34211400  0.17105700  0.66812100  1
  Ga  Ga15  1  0.82894300  0.65788600  0.66812100  1
  Ga  Ga16  1  0.82894300  0.17105700  0.66812100  1
  Ga  Ga17  1  0.66666667  0.33333333  0.21345633  1
  O  O18  1  0.17885567  0.35771133  0.07606533  1
  O  O19  1  0.17885567  0.82114433  0.07606533  1
  O  O20  1  0.64228867  0.82114433  0.07606533  1
  O  O21  1  0.33333333  0.66666667  0.92473067  1
  O  O22  1  0.33333333  0.66666667  0.41159767  1
  O  O23  1  0.01779267  0.50889633  0.25498033  1
  O  O24  1  0.49110367  0.50889633  0.25498033  1
  O  O25  1  0.49110367  0.98220733  0.25498033  1
  O  O26  1  0.84552233  0.69104467  0.40939867  1
  O  O27  1  0.84552233  0.15447767  0.40939867  1
  O  O28  1  0.30895533  0.15447767  0.40939867  1
  O  O29  1  0.00000000  0.00000000  0.25806400  1
  O  O30  1  0.00000000  0.00000000  0.74493100  1
  O  O31  1  0.68445933  0.84222967  0.58831367  1
  O  O32  1  0.15777033  0.84222967  0.58831367  1
  O  O33  1  0.15777033  0.31554067  0.58831367  1
  O  O34  1  0.51218900  0.02437800  0.74273200  1
  O  O35  1  0.51218900  0.48781100  0.74273200  1
  O  O36  1  0.97562200  0.48781100  0.74273200  1
  O  O37  1  0.66666667  0.33333333  0.59139733  1
  O  O38  1  0.66666667  0.33333333  0.07826433  1
  O  O39  1  0.35112600  0.17556300  0.92164700  1
  O  O40  1  0.82443700  0.17556300  0.92164700  1
  O  O41  1  0.82443700  0.64887400  0.92164700  1
