# generated using pymatgen
data_TmBiO3
_symmetry_space_group_name_H-M   'P 1'
_cell_length_a   5.96712767
_cell_length_b   5.96712767
_cell_length_c   15.12076563
_cell_angle_alpha   90.00000000
_cell_angle_beta   90.00000000
_cell_angle_gamma   120.00000000
_symmetry_Int_Tables_number   1
_chemical_formula_structural   TmBiO3
_chemical_formula_sum   'Tm6 Bi6 O18'
_cell_volume   466.26742349
_cell_formula_units_Z   6
loop_
 _symmetry_equiv_pos_site_id
 _symmetry_equiv_pos_as_xyz
  1  'x, y, z'
loop_
 _atom_site_type_symbol
 _atom_site_label
 _atom_site_symmetry_multiplicity
 _atom_site_fract_x
 _atom_site_fract_y
 _atom_site_fract_z
 _atom_site_occupancy
  Tm  Tm0  1  0.66666667  0.33333333  0.11132133  1
  Tm  Tm1  1  0.00000000  0.00000000  0.27798800  1
  Tm  Tm2  1  0.33333333  0.66666667  0.44465467  1
  Tm  Tm3  1  0.66666667  0.33333333  0.61132133  1
  Tm  Tm4  1  0.00000000  0.00000000  0.77798800  1
  Tm  Tm5  1  0.33333333  0.66666667  0.94465467  1
  Bi  Bi6  1  0.66666667  0.33333333  0.32545933  1
  Bi  Bi7  1  0.33333333  0.66666667  0.15879267  1
  Bi  Bi8  1  0.33333333  0.66666667  0.65879267  1
  Bi  Bi9  1  0.00000000  0.00000000  0.49212600  1
  Bi  Bi10  1  0.00000000  0.00000000  0.99212600  1
  Bi  Bi11  1  0.66666667  0.33333333  0.82545933  1
  O  O12  1  0.36778733  0.07544967  0.21715867  1
  O  O13  1  0.59121700  0.96554600  0.05049200  1
  O  O14  1  0.03445400  0.62567100  0.05049200  1
  O  O15  1  0.92455033  0.29233767  0.21715867  1
  O  O16  1  0.70766233  0.63221267  0.21715867  1
  O  O17  1  0.37432900  0.40878300  0.05049200  1
  O  O18  1  0.03445400  0.40878300  0.55049200  1
  O  O19  1  0.25788367  0.29887933  0.38382533  1
  O  O20  1  0.70112067  0.95900433  0.38382533  1
  O  O21  1  0.59121700  0.62567100  0.55049200  1
  O  O22  1  0.37432900  0.96554600  0.55049200  1
  O  O23  1  0.04099567  0.74211633  0.38382533  1
  O  O24  1  0.70112067  0.74211633  0.88382533  1
  O  O25  1  0.92455033  0.63221267  0.71715867  1
  O  O26  1  0.36778733  0.29233767  0.71715867  1
  O  O27  1  0.25788367  0.95900433  0.88382533  1
  O  O28  1  0.04099567  0.29887933  0.88382533  1
  O  O29  1  0.70766233  0.07544967  0.71715867  1
