# generated using pymatgen
data_BaNb3NO7
_symmetry_space_group_name_H-M   'P 1'
_cell_length_a   21.20139000
_cell_length_b   3.89330400
_cell_length_c   9.13810439
_cell_angle_alpha   90.00000000
_cell_angle_beta   90.25903278
_cell_angle_gamma   90.00000000
_symmetry_Int_Tables_number   1
_chemical_formula_structural   BaNb3NO7
_chemical_formula_sum   'Ba4 Nb12 N4 O28'
_cell_volume   754.28301341
_cell_formula_units_Z   4
loop_
 _symmetry_equiv_pos_site_id
 _symmetry_equiv_pos_as_xyz
  1  'x, y, z'
loop_
 _atom_site_type_symbol
 _atom_site_label
 _atom_site_symmetry_multiplicity
 _atom_site_fract_x
 _atom_site_fract_y
 _atom_site_fract_z
 _atom_site_occupancy
  Ba  Ba0  1  0.51924000  0.50000000  0.75592600  1
  Ba  Ba1  1  0.98964600  0.00000000  0.24590900  1
  Ba  Ba2  1  0.01924000  0.00000000  0.75592600  1
  Ba  Ba3  1  0.48964600  0.50000000  0.24590900  1
  Nb  Nb4  1  0.87690400  0.50000000  0.94841800  1
  Nb  Nb5  1  0.77240500  0.00000000  0.77300300  1
  Nb  Nb6  1  0.87404100  0.50000000  0.56006600  1
  Nb  Nb7  1  0.64368700  0.00000000  0.45757300  1
  Nb  Nb8  1  0.74614000  0.50000000  0.25263600  1
  Nb  Nb9  1  0.63649600  0.00000000  0.06461400  1
  Nb  Nb10  1  0.37690400  0.00000000  0.94841800  1
  Nb  Nb11  1  0.27240500  0.50000000  0.77300300  1
  Nb  Nb12  1  0.37404100  0.00000000  0.56006600  1
  Nb  Nb13  1  0.14368700  0.50000000  0.45757300  1
  Nb  Nb14  1  0.24614000  0.00000000  0.25263600  1
  Nb  Nb15  1  0.13649600  0.50000000  0.06461400  1
  N  N16  1  0.84801300  0.00000000  0.90247900  1
  N  N17  1  0.94387300  0.50000000  0.06903800  1
  N  N18  1  0.34801300  0.50000000  0.90247900  1
  N  N19  1  0.44387300  0.00000000  0.06903800  1
  O  O20  1  0.57283000  0.00000000  0.93002900  1
  O  O21  1  0.70950200  0.00000000  0.91182200  1
  O  O22  1  0.78820100  0.50000000  0.72929100  1
  O  O23  1  0.92542300  0.50000000  0.74261300  1
  O  O24  1  0.70946700  0.00000000  0.59205000  1
  O  O25  1  0.85418200  0.00000000  0.58656900  1
  O  O26  1  0.57291400  0.00000000  0.57362100  1
  O  O27  1  0.93894700  0.50000000  0.43068900  1
  O  O28  1  0.65769400  0.50000000  0.40465800  1
  O  O29  1  0.80086300  0.50000000  0.40865300  1
  O  O30  1  0.71778200  0.00000000  0.25338500  1
  O  O31  1  0.58849600  0.00000000  0.24562800  1
  O  O32  1  0.80193300  0.50000000  0.10277600  1
  O  O33  1  0.65960900  0.50000000  0.09080600  1
  O  O34  1  0.07283000  0.50000000  0.93002900  1
  O  O35  1  0.20950200  0.50000000  0.91182200  1
  O  O36  1  0.28820100  0.00000000  0.72929100  1
  O  O37  1  0.42542300  0.00000000  0.74261300  1
  O  O38  1  0.20946700  0.50000000  0.59205000  1
  O  O39  1  0.35418200  0.50000000  0.58656900  1
  O  O40  1  0.07291400  0.50000000  0.57362100  1
  O  O41  1  0.43894700  0.00000000  0.43068900  1
  O  O42  1  0.15769400  0.00000000  0.40465800  1
  O  O43  1  0.30086300  0.00000000  0.40865300  1
  O  O44  1  0.21778200  0.50000000  0.25338500  1
  O  O45  1  0.08849600  0.50000000  0.24562800  1
  O  O46  1  0.30193300  0.00000000  0.10277600  1
  O  O47  1  0.15960900  0.00000000  0.09080600  1
