# generated using pymatgen
data_Er2(WO4)3
_symmetry_space_group_name_H-M   'P 1'
_cell_length_a   7.70713400
_cell_length_b   11.45812200
_cell_length_c   11.36317763
_cell_angle_alpha   90.00000000
_cell_angle_beta   109.63532533
_cell_angle_gamma   90.00000000
_symmetry_Int_Tables_number   1
_chemical_formula_structural   Er2(WO4)3
_chemical_formula_sum   'Er8 W12 O48'
_cell_volume   945.12249218
_cell_formula_units_Z   4
loop_
 _symmetry_equiv_pos_site_id
 _symmetry_equiv_pos_as_xyz
  1  'x, y, z'
loop_
 _atom_site_type_symbol
 _atom_site_label
 _atom_site_symmetry_multiplicity
 _atom_site_fract_x
 _atom_site_fract_y
 _atom_site_fract_z
 _atom_site_occupancy
  Er  Er0  1  0.16521700  0.87764500  0.09254400  1
  Er  Er1  1  0.16521700  0.12235500  0.59254400  1
  Er  Er2  1  0.83478300  0.87764500  0.40745600  1
  Er  Er3  1  0.83478300  0.12235500  0.90745600  1
  Er  Er4  1  0.66521700  0.37764500  0.09254400  1
  Er  Er5  1  0.66521700  0.62235500  0.59254400  1
  Er  Er6  1  0.33478300  0.37764500  0.40745600  1
  Er  Er7  1  0.33478300  0.62235500  0.90745600  1
  W  W8  1  0.50000000  0.63168100  0.25000000  1
  W  W9  1  0.35320800  0.89268200  0.45035800  1
  W  W10  1  0.35320800  0.10731800  0.95035800  1
  W  W11  1  0.64679200  0.89268200  0.04964200  1
  W  W12  1  0.64679200  0.10731800  0.54964200  1
  W  W13  1  0.50000000  0.36831900  0.75000000  1
  W  W14  1  0.00000000  0.13168100  0.25000000  1
  W  W15  1  0.85320800  0.39268200  0.45035800  1
  W  W16  1  0.85320800  0.60731800  0.95035800  1
  W  W17  1  0.14679200  0.39268200  0.04964200  1
  W  W18  1  0.14679200  0.60731800  0.54964200  1
  W  W19  1  0.00000000  0.86831900  0.75000000  1
  O  O20  1  0.63136700  0.70993200  0.39484700  1
  O  O21  1  0.36863300  0.70993200  0.10515300  1
  O  O22  1  0.43410300  0.03816100  0.57600800  1
  O  O23  1  0.56589700  0.03816100  0.92399200  1
  O  O24  1  0.16969850  0.03988050  0.21957200  1
  O  O25  1  0.83030150  0.03988050  0.28042800  1
  O  O26  1  0.13035050  0.95014250  0.46184300  1
  O  O27  1  0.86964950  0.95014250  0.03815700  1
  O  O28  1  0.27307750  0.82147750  0.29722700  1
  O  O29  1  0.45143800  0.78067400  0.56208300  1
  O  O30  1  0.27307750  0.17852250  0.79722700  1
  O  O31  1  0.54856200  0.78067400  0.93791700  1
  O  O32  1  0.45143800  0.21932600  0.06208300  1
  O  O33  1  0.72692250  0.82147750  0.20277300  1
  O  O34  1  0.54856200  0.21932600  0.43791700  1
  O  O35  1  0.72692250  0.17852250  0.70277300  1
  O  O36  1  0.13035050  0.04985750  0.96184300  1
  O  O37  1  0.86964950  0.04985750  0.53815700  1
  O  O38  1  0.16969850  0.96011950  0.71957200  1
  O  O39  1  0.83030150  0.96011950  0.78042800  1
  O  O40  1  0.43410300  0.96183900  0.07600800  1
  O  O41  1  0.56589700  0.96183900  0.42399200  1
  O  O42  1  0.63136700  0.29006800  0.89484700  1
  O  O43  1  0.36863300  0.29006800  0.60515300  1
  O  O44  1  0.13136700  0.20993200  0.39484700  1
  O  O45  1  0.86863300  0.20993200  0.10515300  1
  O  O46  1  0.93410300  0.53816100  0.57600800  1
  O  O47  1  0.06589700  0.53816100  0.92399200  1
  O  O48  1  0.66969850  0.53988050  0.21957200  1
  O  O49  1  0.33030150  0.53988050  0.28042800  1
  O  O50  1  0.63035050  0.45014250  0.46184300  1
  O  O51  1  0.36964950  0.45014250  0.03815700  1
  O  O52  1  0.77307750  0.32147750  0.29722700  1
  O  O53  1  0.95143800  0.28067400  0.56208300  1
  O  O54  1  0.77307750  0.67852250  0.79722700  1
  O  O55  1  0.04856200  0.28067400  0.93791700  1
  O  O56  1  0.95143800  0.71932600  0.06208300  1
  O  O57  1  0.22692250  0.32147750  0.20277300  1
  O  O58  1  0.04856200  0.71932600  0.43791700  1
  O  O59  1  0.22692250  0.67852250  0.70277300  1
  O  O60  1  0.63035050  0.54985750  0.96184300  1
  O  O61  1  0.36964950  0.54985750  0.53815700  1
  O  O62  1  0.66969850  0.46011950  0.71957200  1
  O  O63  1  0.33030150  0.46011950  0.78042800  1
  O  O64  1  0.93410300  0.46183900  0.07600800  1
  O  O65  1  0.06589700  0.46183900  0.42399200  1
  O  O66  1  0.13136700  0.79006800  0.89484700  1
  O  O67  1  0.86863300  0.79006800  0.60515300  1
