# generated using pymatgen
data_Fe3OF7
_symmetry_space_group_name_H-M   'P 1'
_cell_length_a   6.16719226
_cell_length_b   6.16719226
_cell_length_c   13.92316188
_cell_angle_alpha   90.00000000
_cell_angle_beta   90.00000000
_cell_angle_gamma   120.00000000
_symmetry_Int_Tables_number   1
_chemical_formula_structural   Fe3OF7
_chemical_formula_sum   'Fe9 O3 F21'
_cell_volume   458.60995633
_cell_formula_units_Z   3
loop_
 _symmetry_equiv_pos_site_id
 _symmetry_equiv_pos_as_xyz
  1  'x, y, z'
loop_
 _atom_site_type_symbol
 _atom_site_label
 _atom_site_symmetry_multiplicity
 _atom_site_fract_x
 _atom_site_fract_y
 _atom_site_fract_z
 _atom_site_occupancy
  Fe  Fe0  1  0.65383467  0.82691733  0.21280533  1
  Fe  Fe1  1  0.17308267  0.34616533  0.21280533  1
  Fe  Fe2  1  0.17308267  0.82691733  0.21280533  1
  Fe  Fe3  1  0.32050133  0.16025067  0.54613867  1
  Fe  Fe4  1  0.83974933  0.67949867  0.54613867  1
  Fe  Fe5  1  0.83974933  0.16025067  0.54613867  1
  Fe  Fe6  1  0.98716800  0.49358400  0.87947200  1
  Fe  Fe7  1  0.50641600  0.01283200  0.87947200  1
  Fe  Fe8  1  0.50641600  0.49358400  0.87947200  1
  O  O9  1  0.33333333  0.66666667  0.28163267  1
  O  O10  1  0.00000000  0.00000000  0.61496600  1
  O  O11  1  0.66666667  0.33333333  0.94829933  1
  F  F12  1  0.33333333  0.66666667  0.80137667  1
  F  F13  1  0.63606267  0.81803133  0.94575333  1
  F  F14  1  0.18196867  0.36393733  0.94575333  1
  F  F15  1  0.48626767  0.51373233  0.13574633  1
  F  F16  1  0.18196867  0.81803133  0.94575333  1
  F  F17  1  0.48626767  0.97253533  0.13574633  1
  F  F18  1  0.02746467  0.51373233  0.13574633  1
  F  F19  1  0.00000000  0.00000000  0.13471000  1
  F  F20  1  0.30272933  0.15136467  0.27908667  1
  F  F21  1  0.84863533  0.69727067  0.27908667  1
  F  F22  1  0.15293433  0.84706567  0.46907967  1
  F  F23  1  0.84863533  0.15136467  0.27908667  1
  F  F24  1  0.15293433  0.30586867  0.46907967  1
  F  F25  1  0.69413133  0.84706567  0.46907967  1
  F  F26  1  0.66666667  0.33333333  0.46804333  1
  F  F27  1  0.96939600  0.48469800  0.61242000  1
  F  F28  1  0.51530200  0.03060400  0.61242000  1
  F  F29  1  0.81960100  0.18039900  0.80241300  1
  F  F30  1  0.51530200  0.48469800  0.61242000  1
  F  F31  1  0.81960100  0.63920200  0.80241300  1
  F  F32  1  0.36079800  0.18039900  0.80241300  1
