# generated using pymatgen
data_Ba3Hf2O7
_symmetry_space_group_name_H-M   'P 1'
_cell_length_a   4.20171400
_cell_length_b   4.20171400
_cell_length_c   22.00279800
_cell_angle_alpha   90.00000000
_cell_angle_beta   90.00000000
_cell_angle_gamma   90.00000000
_symmetry_Int_Tables_number   1
_chemical_formula_structural   Ba3Hf2O7
_chemical_formula_sum   'Ba6 Hf4 O14'
_cell_volume   388.44620884
_cell_formula_units_Z   2
loop_
 _symmetry_equiv_pos_site_id
 _symmetry_equiv_pos_as_xyz
  1  'x, y, z'
loop_
 _atom_site_type_symbol
 _atom_site_label
 _atom_site_symmetry_multiplicity
 _atom_site_fract_x
 _atom_site_fract_y
 _atom_site_fract_z
 _atom_site_occupancy
  Ba  Ba0  1  0.50000000  0.50000000  0.00000000  1
  Ba  Ba1  1  0.50000000  0.50000000  0.18578900  1
  Ba  Ba2  1  0.00000000  0.00000000  0.31421100  1
  Ba  Ba3  1  0.00000000  0.00000000  0.50000000  1
  Ba  Ba4  1  0.00000000  0.00000000  0.68578900  1
  Ba  Ba5  1  0.50000000  0.50000000  0.81421100  1
  Hf  Hf6  1  0.50000000  0.50000000  0.40340800  1
  Hf  Hf7  1  0.00000000  0.00000000  0.09659200  1
  Hf  Hf8  1  0.00000000  0.00000000  0.90340800  1
  Hf  Hf9  1  0.50000000  0.50000000  0.59659200  1
  O  O10  1  0.00000000  0.00000000  0.00000000  1
  O  O11  1  0.50000000  0.00000000  0.09563300  1
  O  O12  1  0.50000000  0.00000000  0.40436700  1
  O  O13  1  0.50000000  0.50000000  0.30847700  1
  O  O14  1  0.00000000  0.00000000  0.19152300  1
  O  O15  1  0.00000000  0.50000000  0.09563300  1
  O  O16  1  0.00000000  0.50000000  0.40436700  1
  O  O17  1  0.50000000  0.50000000  0.50000000  1
  O  O18  1  0.00000000  0.50000000  0.59563300  1
  O  O19  1  0.00000000  0.50000000  0.90436700  1
  O  O20  1  0.00000000  0.00000000  0.80847700  1
  O  O21  1  0.50000000  0.50000000  0.69152300  1
  O  O22  1  0.50000000  0.00000000  0.59563300  1
  O  O23  1  0.50000000  0.00000000  0.90436700  1
