# generated using pymatgen
data_Al2O3
_symmetry_space_group_name_H-M   'P 1'
_cell_length_a   7.11443800
_cell_length_b   2.91370900
_cell_length_c   13.84234094
_cell_angle_alpha   90.00000000
_cell_angle_beta   102.87767280
_cell_angle_gamma   90.00000000
_symmetry_Int_Tables_number   1
_chemical_formula_structural   Al2O3
_chemical_formula_sum   'Al12 O18'
_cell_volume   279.72628229
_cell_formula_units_Z   6
loop_
 _symmetry_equiv_pos_site_id
 _symmetry_equiv_pos_as_xyz
  1  'x, y, z'
loop_
 _atom_site_type_symbol
 _atom_site_label
 _atom_site_symmetry_multiplicity
 _atom_site_fract_x
 _atom_site_fract_y
 _atom_site_fract_z
 _atom_site_occupancy
  Al  Al0  1  0.82609800  0.25000000  0.97215600  1
  Al  Al1  1  0.43827000  0.25000000  0.88725700  1
  Al  Al2  1  0.80237900  0.75000000  0.78726700  1
  Al  Al3  1  0.18683000  0.75000000  0.70238800  1
  Al  Al4  1  0.46666000  0.25000000  0.58773400  1
  Al  Al5  1  0.84866400  0.25000000  0.60243000  1
  Al  Al6  1  0.15133600  0.75000000  0.39757000  1
  Al  Al7  1  0.53334000  0.75000000  0.41226600  1
  Al  Al8  1  0.81317000  0.25000000  0.29761200  1
  Al  Al9  1  0.19762100  0.25000000  0.21273300  1
  Al  Al10  1  0.56173000  0.75000000  0.11274300  1
  Al  Al11  1  0.17390200  0.75000000  0.02784400  1
  O  O12  1  0.65790000  0.75000000  0.99791600  1
  O  O13  1  0.31469700  0.75000000  0.83222300  1
  O  O14  1  0.95897100  0.75000000  0.92235000  1
  O  O15  1  0.66704600  0.25000000  0.83969800  1
  O  O16  1  0.30512900  0.25000000  0.67015500  1
  O  O17  1  0.94541800  0.25000000  0.74320200  1
  O  O18  1  0.64223700  0.75000000  0.65499200  1
  O  O19  1  0.98673800  0.75000000  0.59322700  1
  O  O20  1  0.35390400  0.75000000  0.50438400  1
  O  O21  1  0.64609600  0.25000000  0.49561600  1
  O  O22  1  0.01326200  0.25000000  0.40677300  1
  O  O23  1  0.35776300  0.25000000  0.34500800  1
  O  O24  1  0.05458200  0.75000000  0.25679800  1
  O  O25  1  0.69487100  0.75000000  0.32984500  1
  O  O26  1  0.33295400  0.75000000  0.16030200  1
  O  O27  1  0.04102900  0.25000000  0.07765000  1
  O  O28  1  0.68530300  0.25000000  0.16777700  1
  O  O29  1  0.34210000  0.25000000  0.00208400  1
