# generated using pymatgen
data_Co3NiO8
_symmetry_space_group_name_H-M   'P 1'
_cell_length_a   5.59458980
_cell_length_b   5.59458980
_cell_length_c   8.52457304
_cell_angle_alpha   90.00000000
_cell_angle_beta   90.00000000
_cell_angle_gamma   120.00000000
_symmetry_Int_Tables_number   1
_chemical_formula_structural   Co3NiO8
_chemical_formula_sum   'Co6 Ni2 O16'
_cell_volume   231.06797877
_cell_formula_units_Z   2
loop_
 _symmetry_equiv_pos_site_id
 _symmetry_equiv_pos_as_xyz
  1  'x, y, z'
loop_
 _atom_site_type_symbol
 _atom_site_label
 _atom_site_symmetry_multiplicity
 _atom_site_fract_x
 _atom_site_fract_y
 _atom_site_fract_z
 _atom_site_occupancy
  Co  Co0  1  0.16811250  0.83188750  0.20769100  1
  Co  Co1  1  0.16811250  0.33622500  0.20769100  1
  Co  Co2  1  0.66377500  0.83188750  0.20769100  1
  Co  Co3  1  0.33622500  0.16811250  0.70769100  1
  Co  Co4  1  0.83188750  0.66377500  0.70769100  1
  Co  Co5  1  0.83188750  0.16811250  0.70769100  1
  Ni  Ni6  1  0.33333333  0.66666667  0.48340500  1
  Ni  Ni7  1  0.66666667  0.33333333  0.98340500  1
  O  O8  1  0.16566350  0.83433650  0.60397400  1
  O  O9  1  0.03996500  0.51998250  0.34078300  1
  O  O10  1  0.33333333  0.66666667  0.09418800  1
  O  O11  1  0.00000000  0.00000000  0.32251900  1
  O  O12  1  0.00000000  0.00000000  0.82251900  1
  O  O13  1  0.16566350  0.33132700  0.60397400  1
  O  O14  1  0.48001750  0.96003500  0.34078300  1
  O  O15  1  0.48001750  0.51998250  0.34078300  1
  O  O16  1  0.33132700  0.16566350  0.10397400  1
  O  O17  1  0.66867300  0.83433650  0.60397400  1
  O  O18  1  0.51998250  0.48001750  0.84078300  1
  O  O19  1  0.51998250  0.03996500  0.84078300  1
  O  O20  1  0.66666667  0.33333333  0.59418800  1
  O  O21  1  0.83433650  0.66867300  0.10397400  1
  O  O22  1  0.96003500  0.48001750  0.84078300  1
  O  O23  1  0.83433650  0.16566350  0.10397400  1
