# generated using pymatgen
data_NaH2SeO4
_symmetry_space_group_name_H-M   'P 1'
_cell_length_a   6.95182200
_cell_length_b   11.35243600
_cell_length_c   9.81744000
_cell_angle_alpha   90.00000000
_cell_angle_beta   90.00000000
_cell_angle_gamma   90.00000000
_symmetry_Int_Tables_number   1
_chemical_formula_structural   NaH2SeO4
_chemical_formula_sum   'Na8 H16 Se8 O32'
_cell_volume   774.79348731
_cell_formula_units_Z   8
loop_
 _symmetry_equiv_pos_site_id
 _symmetry_equiv_pos_as_xyz
  1  'x, y, z'
loop_
 _atom_site_type_symbol
 _atom_site_label
 _atom_site_symmetry_multiplicity
 _atom_site_fract_x
 _atom_site_fract_y
 _atom_site_fract_z
 _atom_site_occupancy
  Na  Na0  1  0.76257700  0.83343800  0.42311700  1
  Na  Na1  1  0.23742300  0.83343800  0.42311700  1
  Na  Na2  1  0.23742300  0.16656200  0.92311700  1
  Na  Na3  1  0.76257700  0.16656200  0.92311700  1
  Na  Na4  1  0.26257700  0.33343800  0.42311700  1
  Na  Na5  1  0.73742300  0.33343800  0.42311700  1
  Na  Na6  1  0.73742300  0.66656200  0.92311700  1
  Na  Na7  1  0.26257700  0.66656200  0.92311700  1
  H  H8  1  0.73875950  0.91343550  0.95299300  1
  H  H9  1  0.26124050  0.91343550  0.95299300  1
  H  H10  1  0.26124050  0.08656450  0.45299300  1
  H  H11  1  0.73875950  0.08656450  0.45299300  1
  H  H12  1  0.50000000  0.18402600  0.22718100  1
  H  H13  1  0.50000000  0.81597400  0.72718100  1
  H  H14  1  0.50000000  0.31355600  0.17980800  1
  H  H15  1  0.50000000  0.68644400  0.67980800  1
  H  H16  1  0.23875950  0.41343550  0.95299300  1
  H  H17  1  0.76124050  0.41343550  0.95299300  1
  H  H18  1  0.76124050  0.58656450  0.45299300  1
  H  H19  1  0.23875950  0.58656450  0.45299300  1
  H  H20  1  0.00000000  0.68402600  0.22718100  1
  H  H21  1  0.00000000  0.31597400  0.72718100  1
  H  H22  1  0.00000000  0.81355600  0.17980800  1
  H  H23  1  0.00000000  0.18644400  0.67980800  1
  Se  Se24  1  0.50000000  0.93593100  0.11886100  1
  Se  Se25  1  0.50000000  0.06406900  0.61886100  1
  Se  Se26  1  0.50000000  0.59588900  0.25058900  1
  Se  Se27  1  0.50000000  0.40411100  0.75058900  1
  Se  Se28  1  0.00000000  0.43593100  0.11886100  1
  Se  Se29  1  0.00000000  0.56406900  0.61886100  1
  Se  Se30  1  0.00000000  0.09588900  0.25058900  1
  Se  Se31  1  0.00000000  0.90411100  0.75058900  1
  O  O32  1  0.50000000  0.73188100  0.31654600  1
  O  O33  1  0.50000000  0.26811900  0.81654600  1
  O  O34  1  0.50000000  0.59875500  0.08163300  1
  O  O35  1  0.50000000  0.40124500  0.58163300  1
  O  O36  1  0.19830550  0.02498950  0.30710000  1
  O  O37  1  0.80169450  0.02498950  0.30710000  1
  O  O38  1  0.80169450  0.97501050  0.80710000  1
  O  O39  1  0.19830550  0.97501050  0.80710000  1
  O  O40  1  0.69928550  0.86388250  0.03524000  1
  O  O41  1  0.30071450  0.86388250  0.03524000  1
  O  O42  1  0.30071450  0.13611750  0.53524000  1
  O  O43  1  0.69928550  0.13611750  0.53524000  1
  O  O44  1  0.50000000  0.06789100  0.04258900  1
  O  O45  1  0.50000000  0.93210900  0.54258900  1
  O  O46  1  0.50000000  0.26536900  0.26196400  1
  O  O47  1  0.50000000  0.73463100  0.76196400  1
  O  O48  1  0.00000000  0.23188100  0.31654600  1
  O  O49  1  0.00000000  0.76811900  0.81654600  1
  O  O50  1  0.00000000  0.09875500  0.08163300  1
  O  O51  1  0.00000000  0.90124500  0.58163300  1
  O  O52  1  0.69830550  0.52498950  0.30710000  1
  O  O53  1  0.30169450  0.52498950  0.30710000  1
  O  O54  1  0.30169450  0.47501050  0.80710000  1
  O  O55  1  0.69830550  0.47501050  0.80710000  1
  O  O56  1  0.19928550  0.36388250  0.03524000  1
  O  O57  1  0.80071450  0.36388250  0.03524000  1
  O  O58  1  0.80071450  0.63611750  0.53524000  1
  O  O59  1  0.19928550  0.63611750  0.53524000  1
  O  O60  1  0.00000000  0.56789100  0.04258900  1
  O  O61  1  0.00000000  0.43210900  0.54258900  1
  O  O62  1  0.00000000  0.76536900  0.26196400  1
  O  O63  1  0.00000000  0.23463100  0.76196400  1
