# generated using pymatgen
data_Na2BiO3
_symmetry_space_group_name_H-M   'P 1'
_cell_length_a   5.96893600
_cell_length_b   10.31496200
_cell_length_c   11.32982933
_cell_angle_alpha   90.00000000
_cell_angle_beta   99.55141518
_cell_angle_gamma   90.00000000
_symmetry_Int_Tables_number   1
_chemical_formula_structural   Na2BiO3
_chemical_formula_sum   'Na16 Bi8 O24'
_cell_volume   687.89985664
_cell_formula_units_Z   8
loop_
 _symmetry_equiv_pos_site_id
 _symmetry_equiv_pos_as_xyz
  1  'x, y, z'
loop_
 _atom_site_type_symbol
 _atom_site_label
 _atom_site_symmetry_multiplicity
 _atom_site_fract_x
 _atom_site_fract_y
 _atom_site_fract_z
 _atom_site_occupancy
  Na  Na0  1  0.23716300  0.91578300  0.00135700  1
  Na  Na1  1  0.23716300  0.08421700  0.50135700  1
  Na  Na2  1  0.75000000  0.25000000  0.50000000  1
  Na  Na3  1  0.50000000  0.58383800  0.75000000  1
  Na  Na4  1  0.50000000  0.41616200  0.25000000  1
  Na  Na5  1  0.76283700  0.91578300  0.49864300  1
  Na  Na6  1  0.75000000  0.75000000  0.00000000  1
  Na  Na7  1  0.76283700  0.08421700  0.99864300  1
  Na  Na8  1  0.73716300  0.41578300  0.00135700  1
  Na  Na9  1  0.73716300  0.58421700  0.50135700  1
  Na  Na10  1  0.25000000  0.75000000  0.50000000  1
  Na  Na11  1  0.00000000  0.08383800  0.75000000  1
  Na  Na12  1  0.00000000  0.91616200  0.25000000  1
  Na  Na13  1  0.26283700  0.41578300  0.49864300  1
  Na  Na14  1  0.25000000  0.25000000  0.00000000  1
  Na  Na15  1  0.26283700  0.58421700  0.99864300  1
  Bi  Bi16  1  0.50000000  0.91745300  0.75000000  1
  Bi  Bi17  1  0.50000000  0.25025100  0.75000000  1
  Bi  Bi18  1  0.50000000  0.08254700  0.25000000  1
  Bi  Bi19  1  0.50000000  0.74974900  0.25000000  1
  Bi  Bi20  1  0.00000000  0.41745300  0.75000000  1
  Bi  Bi21  1  0.00000000  0.75025100  0.75000000  1
  Bi  Bi22  1  0.00000000  0.58254700  0.25000000  1
  Bi  Bi23  1  0.00000000  0.24974900  0.25000000  1
  O  O24  1  0.12230950  0.89848350  0.63778600  1
  O  O25  1  0.33465600  0.75631800  0.85865600  1
  O  O26  1  0.12230950  0.10151650  0.13778600  1
  O  O27  1  0.39723000  0.09814600  0.86337400  1
  O  O28  1  0.33465600  0.24368200  0.35865600  1
  O  O29  1  0.39723000  0.90185400  0.36337400  1
  O  O30  1  0.60277000  0.09814600  0.63662600  1
  O  O31  1  0.66534400  0.75631800  0.64134400  1
  O  O32  1  0.60277000  0.90185400  0.13662600  1
  O  O33  1  0.87769050  0.89848350  0.86221400  1
  O  O34  1  0.66534400  0.24368200  0.14134400  1
  O  O35  1  0.87769050  0.10151650  0.36221400  1
  O  O36  1  0.62230950  0.39848350  0.63778600  1
  O  O37  1  0.83465600  0.25631800  0.85865600  1
  O  O38  1  0.62230950  0.60151650  0.13778600  1
  O  O39  1  0.89723000  0.59814600  0.86337400  1
  O  O40  1  0.83465600  0.74368200  0.35865600  1
  O  O41  1  0.89723000  0.40185400  0.36337400  1
  O  O42  1  0.10277000  0.59814600  0.63662600  1
  O  O43  1  0.16534400  0.25631800  0.64134400  1
  O  O44  1  0.10277000  0.40185400  0.13662600  1
  O  O45  1  0.37769050  0.39848350  0.86221400  1
  O  O46  1  0.16534400  0.74368200  0.14134400  1
  O  O47  1  0.37769050  0.60151650  0.36221400  1
