# generated using pymatgen
data_NaMn6Al3H42(SO19)2
_symmetry_space_group_name_H-M   'P 1'
_cell_length_a   9.60167548
_cell_length_b   9.60167548
_cell_length_c   33.13379022
_cell_angle_alpha   90.00000000
_cell_angle_beta   90.00000000
_cell_angle_gamma   120.00000000
_symmetry_Int_Tables_number   1
_chemical_formula_structural   NaMn6Al3H42(SO19)2
_chemical_formula_sum   'Na3 Mn18 Al9 H126 S6 O114'
_cell_volume   2645.42709259
_cell_formula_units_Z   3
loop_
 _symmetry_equiv_pos_site_id
 _symmetry_equiv_pos_as_xyz
  1  'x, y, z'
loop_
 _atom_site_type_symbol
 _atom_site_label
 _atom_site_symmetry_multiplicity
 _atom_site_fract_x
 _atom_site_fract_y
 _atom_site_fract_z
 _atom_site_occupancy
  Na  Na0  1  0.00000000  0.00000000  0.00000000  1
  Na  Na1  1  0.66666667  0.33333333  0.33333333  1
  Na  Na2  1  0.33333333  0.66666667  0.66666667  1
  Mn  Mn3  1  0.00069000  0.33161900  0.16542000  1
  Mn  Mn4  1  0.66838100  0.66907100  0.16542000  1
  Mn  Mn5  1  0.33092900  0.99931000  0.16542000  1
  Mn  Mn6  1  0.66597667  0.00171433  0.16791333  1
  Mn  Mn7  1  0.99828567  0.66426233  0.16791333  1
  Mn  Mn8  1  0.33573767  0.33402333  0.16791333  1
  Mn  Mn9  1  0.66735667  0.66495233  0.49875333  1
  Mn  Mn10  1  0.33504767  0.00240433  0.49875333  1
  Mn  Mn11  1  0.99759567  0.33264333  0.49875333  1
  Mn  Mn12  1  0.33264333  0.33504767  0.50124667  1
  Mn  Mn13  1  0.66495233  0.99759567  0.50124667  1
  Mn  Mn14  1  0.00240433  0.66735667  0.50124667  1
  Mn  Mn15  1  0.33402333  0.99828567  0.83208667  1
  Mn  Mn16  1  0.00171433  0.33573767  0.83208667  1
  Mn  Mn17  1  0.66426233  0.66597667  0.83208667  1
  Mn  Mn18  1  0.99931000  0.66838100  0.83458000  1
  Mn  Mn19  1  0.33161900  0.33092900  0.83458000  1
  Mn  Mn20  1  0.66907100  0.00069000  0.83458000  1
  Al  Al21  1  0.66666667  0.33333333  0.16929333  1
  Al  Al22  1  0.00000000  0.00000000  0.16404000  1
  Al  Al23  1  0.33333333  0.66666667  0.16666667  1
  Al  Al24  1  0.33333333  0.66666667  0.50262667  1
  Al  Al25  1  0.66666667  0.33333333  0.49737333  1
  Al  Al26  1  1.00000000  0.00000000  0.50000000  1
  Al  Al27  1  0.00000000  0.00000000  0.83596000  1
  Al  Al28  1  0.33333333  0.66666667  0.83070667  1
  Al  Al29  1  0.66666667  0.33333333  0.83333333  1
  H  H30  1  0.81451833  0.91532067  0.22545667  1
  H  H31  1  0.08467933  0.89919767  0.22545667  1
  H  H32  1  0.10080233  0.18548167  0.22545667  1
  H  H33  1  0.85214833  0.41801267  0.10787667  1
  H  H34  1  0.58198733  0.43413567  0.10787667  1
  H  H35  1  0.56586433  0.14785167  0.10787667  1
  H  H36  1  0.77903833  0.52935667  0.22876567  1
  H  H37  1  0.47064333  0.24968167  0.22876567  1
  H  H38  1  0.75031833  0.22096167  0.22876567  1
  H  H39  1  0.88762833  0.80397667  0.10456767  1
  H  H40  1  0.19602333  0.08365167  0.10456767  1
  H  H41  1  0.91634833  0.11237167  0.10456767  1
  H  H42  1  0.13632267  0.53651933  0.22635433  1
  H  H43  1  0.46348067  0.59980333  0.22635433  1
  H  H44  1  0.40019667  0.86367733  0.22635433  1
  H  H45  1  0.53034400  0.79681400  0.10697900  1
  H  H46  1  0.20318600  0.73353000  0.10697900  1
  H  H47  1  0.26647000  0.46965600  0.10697900  1
  H  H48  1  0.17261800  0.51315700  0.29747000  1
  H  H49  1  0.48684300  0.65946100  0.29747000  1
  H  H50  1  0.34053900  0.82738200  0.29747000  1
  H  H51  1  0.49404867  0.82017633  0.03586333  1
  H  H52  1  0.17982367  0.67387233  0.03586333  1
  H  H53  1  0.32612767  0.50595133  0.03586333  1
  H  H54  1  0.06938867  0.33972933  0.27933233  1
  H  H55  1  0.66027067  0.72965933  0.27933233  1
  H  H56  1  0.27034067  0.93061133  0.27933233  1
  H  H57  1  0.59727800  0.99360400  0.05400100  1
  H  H58  1  0.00639600  0.60367400  0.05400100  1
  H  H59  1  0.39632600  0.40272200  0.05400100  1
  H  H60  1  0.92912467  0.50287933  0.28019933  1
  H  H61  1  0.49712067  0.42624533  0.28019933  1
  H  H62  1  0.57375467  0.07087533  0.28019933  1
  H  H63  1  0.73754200  0.83045400  0.05313400  1
  H  H64  1  0.16954600  0.90708800  0.05313400  1
  H  H65  1  0.09291200  0.26245800  0.05313400  1
  H  H66  1  0.91235900  0.65524800  0.28697500  1
  H  H67  1  0.34475200  0.25711100  0.28697500  1
  H  H68  1  0.74288900  0.08764100  0.28697500  1
  H  H69  1  0.75430767  0.67808533  0.04635833  1
  H  H70  1  0.32191467  0.07622233  0.04635833  1
  H  H71  1  0.92377767  0.24569233  0.04635833  1
  H  H72  1  0.48118500  0.24865400  0.55879000  1
  H  H73  1  0.75134600  0.23253100  0.55879000  1
  H  H74  1  0.76746900  0.51881500  0.55879000  1
  H  H75  1  0.51881500  0.75134600  0.44121000  1
  H  H76  1  0.24865400  0.76746900  0.44121000  1
  H  H77  1  0.23253100  0.48118500  0.44121000  1
  H  H78  1  0.44570500  0.86269000  0.56209900  1
  H  H79  1  0.13731000  0.58301500  0.56209900  1
  H  H80  1  0.41698500  0.55429500  0.56209900  1
  H  H81  1  0.55429500  0.13731000  0.43790100  1
  H  H82  1  0.86269000  0.41698500  0.43790100  1
  H  H83  1  0.58301500  0.44570500  0.43790100  1
  H  H84  1  0.80298933  0.86985267  0.55968767  1
  H  H85  1  0.13014733  0.93313667  0.55968767  1
  H  H86  1  0.06686333  0.19701067  0.55968767  1
  H  H87  1  0.19701067  0.13014733  0.44031233  1
  H  H88  1  0.86985267  0.06686333  0.44031233  1
  H  H89  1  0.93313667  0.80298933  0.44031233  1
  H  H90  1  0.83928467  0.84649033  0.63080333  1
  H  H91  1  0.15350967  0.99279433  0.63080333  1
  H  H92  1  0.00720567  0.16071533  0.63080333  1
  H  H93  1  0.16071533  0.15350967  0.36919667  1
  H  H94  1  0.84649033  0.00720567  0.36919667  1
  H  H95  1  0.99279433  0.83928467  0.36919667  1
  H  H96  1  0.73605533  0.67306267  0.61266567  1
  H  H97  1  0.32693733  0.06299267  0.61266567  1
  H  H98  1  0.93700733  0.26394467  0.61266567  1
  H  H99  1  0.26394467  0.32693733  0.38733433  1
  H  H100  1  0.67306267  0.93700733  0.38733433  1
  H  H101  1  0.06299267  0.73605533  0.38733433  1
  H  H102  1  0.59579133  0.83621267  0.61353267  1
  H  H103  1  0.16378733  0.75957867  0.61353267  1
  H  H104  1  0.24042133  0.40420867  0.61353267  1
  H  H105  1  0.40420867  0.16378733  0.38646733  1
  H  H106  1  0.83621267  0.24042133  0.38646733  1
  H  H107  1  0.75957867  0.59579133  0.38646733  1
  H  H108  1  0.57902567  0.98858133  0.62030833  1
  H  H109  1  0.01141867  0.59044433  0.62030833  1
  H  H110  1  0.40955567  0.42097433  0.62030833  1
  H  H111  1  0.42097433  0.01141867  0.37969167  1
  H  H112  1  0.98858133  0.40955567  0.37969167  1
  H  H113  1  0.59044433  0.57902567  0.37969167  1
  H  H114  1  0.14785167  0.58198733  0.89212333  1
  H  H115  1  0.41801267  0.56586433  0.89212333  1
  H  H116  1  0.43413567  0.85214833  0.89212333  1
  H  H117  1  0.18548167  0.08467933  0.77454333  1
  H  H118  1  0.91532067  0.10080233  0.77454333  1
  H  H119  1  0.89919767  0.81451833  0.77454333  1
  H  H120  1  0.11237167  0.19602333  0.89543233  1
  H  H121  1  0.80397667  0.91634833  0.89543233  1
  H  H122  1  0.08365167  0.88762833  0.89543233  1
  H  H123  1  0.22096167  0.47064333  0.77123433  1
  H  H124  1  0.52935667  0.75031833  0.77123433  1
  H  H125  1  0.24968167  0.77903833  0.77123433  1
  H  H126  1  0.46965600  0.20318600  0.89302100  1
  H  H127  1  0.79681400  0.26647000  0.89302100  1
  H  H128  1  0.73353000  0.53034400  0.89302100  1
  H  H129  1  0.86367733  0.46348067  0.77364567  1
  H  H130  1  0.53651933  0.40019667  0.77364567  1
  H  H131  1  0.59980333  0.13632267  0.77364567  1
  H  H132  1  0.50595133  0.17982367  0.96413667  1
  H  H133  1  0.82017633  0.32612767  0.96413667  1
  H  H134  1  0.67387233  0.49404867  0.96413667  1
  H  H135  1  0.82738200  0.48684300  0.70253000  1
  H  H136  1  0.51315700  0.34053900  0.70253000  1
  H  H137  1  0.65946100  0.17261800  0.70253000  1
  H  H138  1  0.40272200  0.00639600  0.94599900  1
  H  H139  1  0.99360400  0.39632600  0.94599900  1
  H  H140  1  0.60367400  0.59727800  0.94599900  1
  H  H141  1  0.93061133  0.66027067  0.72066767  1
  H  H142  1  0.33972933  0.27034067  0.72066767  1
  H  H143  1  0.72965933  0.06938867  0.72066767  1
  H  H144  1  0.26245800  0.16954600  0.94686600  1
  H  H145  1  0.83045400  0.09291200  0.94686600  1
  H  H146  1  0.90708800  0.73754200  0.94686600  1
  H  H147  1  0.07087533  0.49712067  0.71980067  1
  H  H148  1  0.50287933  0.57375467  0.71980067  1
  H  H149  1  0.42624533  0.92912467  0.71980067  1
  H  H150  1  0.24569233  0.32191467  0.95364167  1
  H  H151  1  0.67808533  0.92377767  0.95364167  1
  H  H152  1  0.07622233  0.75430767  0.95364167  1
  H  H153  1  0.08764100  0.34475200  0.71302500  1
  H  H154  1  0.65524800  0.74288900  0.71302500  1
  H  H155  1  0.25711100  0.91235900  0.71302500  1
  S  S156  1  0.00000000  0.00000000  0.29532600  1
  S  S157  1  0.66666667  0.33333333  0.03800733  1
  S  S158  1  0.66666667  0.33333333  0.62865933  1
  S  S159  1  0.33333333  0.66666667  0.37134067  1
  S  S160  1  0.33333333  0.66666667  0.96199267  1
  S  S161  1  0.00000000  0.00000000  0.70467400  1
  O  O162  1  0.33333333  0.66666667  0.32601967  1
  O  O163  1  0.33333333  0.66666667  0.00731367  1
  O  O164  1  0.83347600  0.94531200  0.28047700  1
  O  O165  1  0.05468800  0.88816400  0.28047700  1
  O  O166  1  0.11183600  0.16652400  0.28047700  1
  O  O167  1  0.83319067  0.38802133  0.05285633  1
  O  O168  1  0.61197867  0.44516933  0.05285633  1
  O  O169  1  0.55483067  0.16680933  0.05285633  1
  O  O170  1  0.80475800  0.90382600  0.19596500  1
  O  O171  1  0.09617400  0.90093200  0.19596500  1
  O  O172  1  0.09906800  0.19524200  0.19596500  1
  O  O173  1  0.86190867  0.42950733  0.13736833  1
  O  O174  1  0.57049267  0.43240133  0.13736833  1
  O  O175  1  0.56759867  0.13809133  0.13736833  1
  O  O176  1  0.76595633  0.53140567  0.19920567  1
  O  O177  1  0.46859433  0.23455067  0.19920567  1
  O  O178  1  0.76544933  0.23404367  0.19920567  1
  O  O179  1  0.90071033  0.80192767  0.13412767  1
  O  O180  1  0.19807233  0.09878267  0.13412767  1
  O  O181  1  0.90121733  0.09928967  0.13412767  1
  O  O182  1  0.13666800  0.56070300  0.19741200  1
  O  O183  1  0.43929700  0.57596500  0.19741200  1
  O  O184  1  0.42403500  0.86333200  0.19741200  1
  O  O185  1  0.52999867  0.77263033  0.13592133  1
  O  O186  1  0.22736967  0.75736833  0.13592133  1
  O  O187  1  0.24263167  0.47000133  0.13592133  1
  O  O188  1  0.08625967  0.44944633  0.27772733  1
  O  O189  1  0.55055367  0.63681333  0.27772733  1
  O  O190  1  0.36318667  0.91374033  0.27772733  1
  O  O191  1  0.58040700  0.88388700  0.05560600  1
  O  O192  1  0.11611300  0.69652000  0.05560600  1
  O  O193  1  0.30348000  0.41959300  0.05560600  1
  O  O194  1  0.84853833  0.53847267  0.28260367  1
  O  O195  1  0.46152733  0.31006567  0.28260367  1
  O  O196  1  0.68993433  0.15146167  0.28260367  1
  O  O197  1  0.81812833  0.79486067  0.05072967  1
  O  O198  1  0.20513933  0.02326767  0.05072967  1
  O  O199  1  0.97673233  0.18187167  0.05072967  1
  O  O200  1  0.00000000  0.00000000  0.65935300  1
  O  O201  1  0.00000000  0.00000000  0.34064700  1
  O  O202  1  0.50014267  0.27864533  0.61381033  1
  O  O203  1  0.72135467  0.22149733  0.61381033  1
  O  O204  1  0.77850267  0.49985733  0.61381033  1
  O  O205  1  0.49985733  0.72135467  0.38618967  1
  O  O206  1  0.27864533  0.77850267  0.38618967  1
  O  O207  1  0.22149733  0.50014267  0.38618967  1
  O  O208  1  0.47142467  0.23715933  0.52929833  1
  O  O209  1  0.76284067  0.23426533  0.52929833  1
  O  O210  1  0.76573467  0.52857533  0.52929833  1
  O  O211  1  0.52857533  0.76284067  0.47070167  1
  O  O212  1  0.23715933  0.76573467  0.47070167  1
  O  O213  1  0.23426533  0.47142467  0.47070167  1
  O  O214  1  0.43262300  0.86473900  0.53253900  1
  O  O215  1  0.13526100  0.56788400  0.53253900  1
  O  O216  1  0.43211600  0.56737700  0.53253900  1
  O  O217  1  0.56737700  0.13526100  0.46746100  1
  O  O218  1  0.86473900  0.43211600  0.46746100  1
  O  O219  1  0.56788400  0.43262300  0.46746100  1
  O  O220  1  0.80333467  0.89403633  0.53074533  1
  O  O221  1  0.10596367  0.90929833  0.53074533  1
  O  O222  1  0.09070167  0.19666533  0.53074533  1
  O  O223  1  0.19666533  0.10596367  0.46925467  1
  O  O224  1  0.89403633  0.09070167  0.46925467  1
  O  O225  1  0.90929833  0.80333467  0.46925467  1
  O  O226  1  0.75292633  0.78277967  0.61106067  1
  O  O227  1  0.21722033  0.97014667  0.61106067  1
  O  O228  1  0.02985333  0.24707367  0.61106067  1
  O  O229  1  0.24707367  0.21722033  0.38893933  1
  O  O230  1  0.78277967  0.02985333  0.38893933  1
  O  O231  1  0.97014667  0.75292633  0.38893933  1
  O  O232  1  0.51520500  0.87180600  0.61593700  1
  O  O233  1  0.12819400  0.64339900  0.61593700  1
  O  O234  1  0.35660100  0.48479500  0.61593700  1
  O  O235  1  0.48479500  0.12819400  0.38406300  1
  O  O236  1  0.87180600  0.35660100  0.38406300  1
  O  O237  1  0.64339900  0.51520500  0.38406300  1
  O  O238  1  0.66666667  0.33333333  0.99268633  1
  O  O239  1  0.66666667  0.33333333  0.67398033  1
  O  O240  1  0.16680933  0.61197867  0.94714367  1
  O  O241  1  0.38802133  0.55483067  0.94714367  1
  O  O242  1  0.44516933  0.83319067  0.94714367  1
  O  O243  1  0.16652400  0.05468800  0.71952300  1
  O  O244  1  0.94531200  0.11183600  0.71952300  1
  O  O245  1  0.88816400  0.83347600  0.71952300  1
  O  O246  1  0.13809133  0.57049267  0.86263167  1
  O  O247  1  0.42950733  0.56759867  0.86263167  1
  O  O248  1  0.43240133  0.86190867  0.86263167  1
  O  O249  1  0.19524200  0.09617400  0.80403500  1
  O  O250  1  0.90382600  0.09906800  0.80403500  1
  O  O251  1  0.90093200  0.80475800  0.80403500  1
  O  O252  1  0.09928967  0.19807233  0.86587233  1
  O  O253  1  0.80192767  0.90121733  0.86587233  1
  O  O254  1  0.09878267  0.90071033  0.86587233  1
  O  O255  1  0.23404367  0.46859433  0.80079433  1
  O  O256  1  0.53140567  0.76544933  0.80079433  1
  O  O257  1  0.23455067  0.76595633  0.80079433  1
  O  O258  1  0.47000133  0.22736967  0.86407867  1
  O  O259  1  0.77263033  0.24263167  0.86407867  1
  O  O260  1  0.75736833  0.52999867  0.86407867  1
  O  O261  1  0.86333200  0.43929700  0.80258800  1
  O  O262  1  0.56070300  0.42403500  0.80258800  1
  O  O263  1  0.57596500  0.13666800  0.80258800  1
  O  O264  1  0.41959300  0.11611300  0.94439400  1
  O  O265  1  0.88388700  0.30348000  0.94439400  1
  O  O266  1  0.69652000  0.58040700  0.94439400  1
  O  O267  1  0.91374033  0.55055367  0.72227267  1
  O  O268  1  0.44944633  0.36318667  0.72227267  1
  O  O269  1  0.63681333  0.08625967  0.72227267  1
  O  O270  1  0.18187167  0.20513933  0.94927033  1
  O  O271  1  0.79486067  0.97673233  0.94927033  1
  O  O272  1  0.02326767  0.81812833  0.94927033  1
  O  O273  1  0.15146167  0.46152733  0.71739633  1
  O  O274  1  0.53847267  0.68993433  0.71739633  1
  O  O275  1  0.31006567  0.84853833  0.71739633  1
