# generated using pymatgen
data_NaFePO4
_symmetry_space_group_name_H-M   'P 1'
_cell_length_a   4.98250573
_cell_length_b   6.35166400
_cell_length_c   10.55444156
_cell_angle_alpha   90.00000000
_cell_angle_beta   90.00000000
_cell_angle_gamma   90.00000000
_symmetry_Int_Tables_number   1
_chemical_formula_structural   NaFePO4
_chemical_formula_sum   'Na4 Fe4 P4 O16'
_cell_volume   334.01854714
_cell_formula_units_Z   4
loop_
 _symmetry_equiv_pos_site_id
 _symmetry_equiv_pos_as_xyz
  1  'x, y, z'
loop_
 _atom_site_type_symbol
 _atom_site_label
 _atom_site_symmetry_multiplicity
 _atom_site_fract_x
 _atom_site_fract_y
 _atom_site_fract_z
 _atom_site_occupancy
  Na  Na0  1  0.50000000  0.50000000  0.00000000  1
  Na  Na1  1  0.00000000  0.50000000  0.50000000  1
  Na  Na2  1  0.50000000  0.00000000  0.00000000  1
  Na  Na3  1  0.00000000  0.00000000  0.50000000  1
  Fe  Fe4  1  0.98781300  0.25000000  0.78685550  1
  Fe  Fe5  1  0.01218700  0.75000000  0.21314450  1
  Fe  Fe6  1  0.51218700  0.25000000  0.28685550  1
  Fe  Fe7  1  0.48781300  0.75000000  0.71314450  1
  P  P8  1  0.06028100  0.25000000  0.10791350  1
  P  P9  1  0.43971900  0.25000000  0.60791350  1
  P  P10  1  0.93971900  0.75000000  0.89208650  1
  P  P11  1  0.56028100  0.75000000  0.39208650  1
  O  O12  1  0.24901700  0.75000000  0.88373950  1
  O  O13  1  0.75098300  0.25000000  0.11626050  1
  O  O14  1  0.25098300  0.75000000  0.38373950  1
  O  O15  1  0.74901700  0.25000000  0.61626050  1
  O  O16  1  0.15472400  0.25000000  0.96704350  1
  O  O17  1  0.84527600  0.75000000  0.03295650  1
  O  O18  1  0.65472400  0.75000000  0.53295650  1
  O  O19  1  0.34527600  0.25000000  0.46704350  1
  O  O20  1  0.69446700  0.94458950  0.32571350  1
  O  O21  1  0.19446700  0.05541050  0.17428650  1
  O  O22  1  0.30553300  0.44458950  0.67428650  1
  O  O23  1  0.80553300  0.55541050  0.82571350  1
  O  O24  1  0.30553300  0.05541050  0.67428650  1
  O  O25  1  0.80553300  0.94458950  0.82571350  1
  O  O26  1  0.69446700  0.55541050  0.32571350  1
  O  O27  1  0.19446700  0.44458950  0.17428650  1
