# generated using pymatgen
data_Dy2Cu2O5
_symmetry_space_group_name_H-M   'P 1'
_cell_length_a   3.53331100
_cell_length_b   10.90047200
_cell_length_c   12.59045900
_cell_angle_alpha   90.00000000
_cell_angle_beta   90.00000000
_cell_angle_gamma   90.00000000
_symmetry_Int_Tables_number   1
_chemical_formula_structural   Dy2Cu2O5
_chemical_formula_sum   'Dy8 Cu8 O20'
_cell_volume   484.91847674
_cell_formula_units_Z   4
loop_
 _symmetry_equiv_pos_site_id
 _symmetry_equiv_pos_as_xyz
  1  'x, y, z'
loop_
 _atom_site_type_symbol
 _atom_site_label
 _atom_site_symmetry_multiplicity
 _atom_site_fract_x
 _atom_site_fract_y
 _atom_site_fract_z
 _atom_site_occupancy
  Dy  Dy0  1  0.78274100  0.79108900  0.99886600  1
  Dy  Dy1  1  0.71725900  0.29108900  0.99886600  1
  Dy  Dy2  1  0.77809500  0.95797100  0.67112800  1
  Dy  Dy3  1  0.72190500  0.45797100  0.67112800  1
  Dy  Dy4  1  0.28274100  0.70891100  0.49886600  1
  Dy  Dy5  1  0.21725900  0.20891100  0.49886600  1
  Dy  Dy6  1  0.27809500  0.54202900  0.17112800  1
  Dy  Dy7  1  0.22190500  0.04202900  0.17112800  1
  Cu  Cu8  1  0.16074700  0.51001600  0.88754200  1
  Cu  Cu9  1  0.33925300  0.01001600  0.88754200  1
  Cu  Cu10  1  0.34583900  0.73810200  0.78349400  1
  Cu  Cu11  1  0.15416100  0.23810200  0.78349400  1
  Cu  Cu12  1  0.66074700  0.98998400  0.38754200  1
  Cu  Cu13  1  0.83925300  0.48998400  0.38754200  1
  Cu  Cu14  1  0.84583900  0.76189800  0.28349400  1
  Cu  Cu15  1  0.65416100  0.26189800  0.28349400  1
  O  O16  1  0.28608500  0.67584200  0.93403000  1
  O  O17  1  0.21391500  0.17584200  0.93403000  1
  O  O18  1  0.66027600  0.87486300  0.83518700  1
  O  O19  1  0.83972400  0.37486300  0.83518700  1
  O  O20  1  0.22358400  0.57204000  0.73779200  1
  O  O21  1  0.27641600  0.07204000  0.73779200  1
  O  O22  1  0.27593400  0.82608600  0.64481200  1
  O  O23  1  0.22406600  0.32608600  0.64481200  1
  O  O24  1  0.77626300  0.57730600  0.52664800  1
  O  O25  1  0.72373700  0.07730600  0.52664800  1
  O  O26  1  0.78608500  0.82415800  0.43403000  1
  O  O27  1  0.71391500  0.32415800  0.43403000  1
  O  O28  1  0.16027600  0.62513700  0.33518700  1
  O  O29  1  0.33972400  0.12513700  0.33518700  1
  O  O30  1  0.72358400  0.92796000  0.23779200  1
  O  O31  1  0.77641600  0.42796000  0.23779200  1
  O  O32  1  0.77593400  0.67391400  0.14481200  1
  O  O33  1  0.72406600  0.17391400  0.14481200  1
  O  O34  1  0.27626300  0.92269400  0.02664800  1
  O  O35  1  0.22373700  0.42269400  0.02664800  1
