# generated using pymatgen
data_ErTa3O9
_symmetry_space_group_name_H-M   'P 1'
_cell_length_a   6.47126600
_cell_length_b   7.63995100
_cell_length_c   12.61082700
_cell_angle_alpha   90.00000000
_cell_angle_beta   90.00000000
_cell_angle_gamma   90.00000000
_symmetry_Int_Tables_number   1
_chemical_formula_structural   ErTa3O9
_chemical_formula_sum   'Er4 Ta12 O36'
_cell_volume   623.48124342
_cell_formula_units_Z   4
loop_
 _symmetry_equiv_pos_site_id
 _symmetry_equiv_pos_as_xyz
  1  'x, y, z'
loop_
 _atom_site_type_symbol
 _atom_site_label
 _atom_site_symmetry_multiplicity
 _atom_site_fract_x
 _atom_site_fract_y
 _atom_site_fract_z
 _atom_site_occupancy
  Er  Er0  1  0.05521000  0.25000000  0.46195000  1
  Er  Er1  1  0.44479000  0.75000000  0.96195000  1
  Er  Er2  1  0.55521000  0.25000000  0.03805000  1
  Er  Er3  1  0.94479000  0.75000000  0.53805000  1
  Ta  Ta4  1  0.00000000  0.00000000  0.00000000  1
  Ta  Ta5  1  0.00000000  0.50000000  0.00000000  1
  Ta  Ta6  1  0.20748900  0.00267100  0.71323600  1
  Ta  Ta7  1  0.20748900  0.49732900  0.71323600  1
  Ta  Ta8  1  0.29251100  0.50267100  0.21323600  1
  Ta  Ta9  1  0.29251100  0.99732900  0.21323600  1
  Ta  Ta10  1  0.50000000  0.00000000  0.50000000  1
  Ta  Ta11  1  0.50000000  0.50000000  0.50000000  1
  Ta  Ta12  1  0.70748900  0.00267100  0.78676400  1
  Ta  Ta13  1  0.70748900  0.49732900  0.78676400  1
  Ta  Ta14  1  0.79251100  0.50267100  0.28676400  1
  Ta  Ta15  1  0.79251100  0.99732900  0.28676400  1
  O  O16  1  0.01773300  0.04129100  0.84304700  1
  O  O17  1  0.01773300  0.45870900  0.84304700  1
  O  O18  1  0.08266300  0.75000000  0.97510800  1
  O  O19  1  0.10053600  0.03493500  0.33342000  1
  O  O20  1  0.10053600  0.46506500  0.33342000  1
  O  O21  1  0.16995400  0.25000000  0.67141600  1
  O  O22  1  0.20475400  0.75000000  0.69838900  1
  O  O23  1  0.20610200  0.53781100  0.53694000  1
  O  O24  1  0.20610200  0.96218900  0.53694000  1
  O  O25  1  0.29389800  0.03781100  0.03694000  1
  O  O26  1  0.29389800  0.46218900  0.03694000  1
  O  O27  1  0.29524600  0.25000000  0.19838900  1
  O  O28  1  0.33004600  0.75000000  0.17141600  1
  O  O29  1  0.39946400  0.53493500  0.83342000  1
  O  O30  1  0.39946400  0.96506500  0.83342000  1
  O  O31  1  0.41733700  0.25000000  0.47510800  1
  O  O32  1  0.48226700  0.54129100  0.34304700  1
  O  O33  1  0.48226700  0.95870900  0.34304700  1
  O  O34  1  0.51773300  0.04129100  0.65695300  1
  O  O35  1  0.51773300  0.45870900  0.65695300  1
  O  O36  1  0.58266300  0.75000000  0.52489200  1
  O  O37  1  0.60053600  0.03493500  0.16658000  1
  O  O38  1  0.60053600  0.46506500  0.16658000  1
  O  O39  1  0.66995400  0.25000000  0.82858400  1
  O  O40  1  0.70475400  0.75000000  0.80161100  1
  O  O41  1  0.70610200  0.53781100  0.96306000  1
  O  O42  1  0.70610200  0.96218900  0.96306000  1
  O  O43  1  0.79389800  0.03781100  0.46306000  1
  O  O44  1  0.79389800  0.46218900  0.46306000  1
  O  O45  1  0.79524600  0.25000000  0.30161100  1
  O  O46  1  0.83004600  0.75000000  0.32858400  1
  O  O47  1  0.89946400  0.53493500  0.66658000  1
  O  O48  1  0.89946400  0.96506500  0.66658000  1
  O  O49  1  0.91733700  0.25000000  0.02489200  1
  O  O50  1  0.98226700  0.54129100  0.15695300  1
  O  O51  1  0.98226700  0.95870900  0.15695300  1
