# generated using pymatgen
data_Ba2LaCl7
_symmetry_space_group_name_H-M   'P 1'
_cell_length_a   19.31828200
_cell_length_b   13.20256600
_cell_length_c   11.56658687
_cell_angle_alpha   90.00000000
_cell_angle_beta   118.44544454
_cell_angle_gamma   90.00000000
_symmetry_Int_Tables_number   1
_chemical_formula_structural   Ba2LaCl7
_chemical_formula_sum   'Ba16 La8 Cl56'
_cell_volume   2593.90966634
_cell_formula_units_Z   8
loop_
 _symmetry_equiv_pos_site_id
 _symmetry_equiv_pos_as_xyz
  1  'x, y, z'
loop_
 _atom_site_type_symbol
 _atom_site_label
 _atom_site_symmetry_multiplicity
 _atom_site_fract_x
 _atom_site_fract_y
 _atom_site_fract_z
 _atom_site_occupancy
  Ba  Ba0  1  0.88111800  0.55026100  0.53610200  1
  Ba  Ba1  1  0.92073200  0.81873900  0.95574500  1
  Ba  Ba2  1  0.11888200  0.55026100  0.96389800  1
  Ba  Ba3  1  0.92073200  0.18126100  0.45574500  1
  Ba  Ba4  1  0.07926800  0.81873900  0.54425500  1
  Ba  Ba5  1  0.88111800  0.44973900  0.03610200  1
  Ba  Ba6  1  0.07926800  0.18126100  0.04425500  1
  Ba  Ba7  1  0.11888200  0.44973900  0.46389800  1
  Ba  Ba8  1  0.38111800  0.05026100  0.53610200  1
  Ba  Ba9  1  0.42073200  0.31873900  0.95574500  1
  Ba  Ba10  1  0.61888200  0.05026100  0.96389800  1
  Ba  Ba11  1  0.42073200  0.68126100  0.45574500  1
  Ba  Ba12  1  0.57926800  0.31873900  0.54425500  1
  Ba  Ba13  1  0.38111800  0.94973900  0.03610200  1
  Ba  Ba14  1  0.57926800  0.68126100  0.04425500  1
  Ba  Ba15  1  0.61888200  0.94973900  0.46389800  1
  La  La16  1  0.67557000  0.66178400  0.67803800  1
  La  La17  1  0.32443000  0.66178400  0.82196200  1
  La  La18  1  0.67557000  0.33821600  0.17803800  1
  La  La19  1  0.32443000  0.33821600  0.32196200  1
  La  La20  1  0.17557000  0.16178400  0.67803800  1
  La  La21  1  0.82443000  0.16178400  0.82196200  1
  La  La22  1  0.17557000  0.83821600  0.17803800  1
  La  La23  1  0.82443000  0.83821600  0.32196200  1
  Cl  Cl24  1  0.79321000  0.66075400  0.93971500  1
  Cl  Cl25  1  0.07619400  0.29993600  0.71000700  1
  Cl  Cl26  1  0.92380600  0.29993600  0.78999300  1
  Cl  Cl27  1  0.73620300  0.49845200  0.60987700  1
  Cl  Cl28  1  0.73223750  0.31883650  0.84044800  1
  Cl  Cl29  1  0.07133300  0.78781500  0.91881900  1
  Cl  Cl30  1  0.56041900  0.52835700  0.66783900  1
  Cl  Cl31  1  0.73223750  0.68116350  0.34044800  1
  Cl  Cl32  1  0.93808750  0.41498250  0.35365300  1
  Cl  Cl33  1  0.07133300  0.21218500  0.41881900  1
  Cl  Cl34  1  0.43958100  0.52835700  0.83216100  1
  Cl  Cl35  1  0.06191250  0.41498250  0.14634700  1
  Cl  Cl36  1  0.26379700  0.49845200  0.89012300  1
  Cl  Cl37  1  0.79321000  0.33924600  0.43971500  1
  Cl  Cl38  1  0.20679000  0.66075400  0.56028500  1
  Cl  Cl39  1  0.73620300  0.50154800  0.10987700  1
  Cl  Cl40  1  0.93808750  0.58501750  0.85365300  1
  Cl  Cl41  1  0.56041900  0.47164300  0.16783900  1
  Cl  Cl42  1  0.92866700  0.78781500  0.58118100  1
  Cl  Cl43  1  0.06191250  0.58501750  0.64634700  1
  Cl  Cl44  1  0.26776250  0.31883650  0.65955200  1
  Cl  Cl45  1  0.43958100  0.47164300  0.33216100  1
  Cl  Cl46  1  0.92866700  0.21218500  0.08118100  1
  Cl  Cl47  1  0.26776250  0.68116350  0.15955200  1
  Cl  Cl48  1  0.26379700  0.50154800  0.39012300  1
  Cl  Cl49  1  0.07619400  0.70006400  0.21000700  1
  Cl  Cl50  1  0.92380600  0.70006400  0.28999300  1
  Cl  Cl51  1  0.20679000  0.33924600  0.06028500  1
  Cl  Cl52  1  0.29321000  0.16075400  0.93971500  1
  Cl  Cl53  1  0.57619400  0.79993600  0.71000700  1
  Cl  Cl54  1  0.42380600  0.79993600  0.78999300  1
  Cl  Cl55  1  0.23620300  0.99845200  0.60987700  1
  Cl  Cl56  1  0.23223750  0.81883650  0.84044800  1
  Cl  Cl57  1  0.57133300  0.28781500  0.91881900  1
  Cl  Cl58  1  0.06041900  0.02835700  0.66783900  1
  Cl  Cl59  1  0.23223750  0.18116350  0.34044800  1
  Cl  Cl60  1  0.43808750  0.91498250  0.35365300  1
  Cl  Cl61  1  0.57133300  0.71218500  0.41881900  1
  Cl  Cl62  1  0.93958100  0.02835700  0.83216100  1
  Cl  Cl63  1  0.56191250  0.91498250  0.14634700  1
  Cl  Cl64  1  0.76379700  0.99845200  0.89012300  1
  Cl  Cl65  1  0.29321000  0.83924600  0.43971500  1
  Cl  Cl66  1  0.70679000  0.16075400  0.56028500  1
  Cl  Cl67  1  0.23620300  0.00154800  0.10987700  1
  Cl  Cl68  1  0.43808750  0.08501750  0.85365300  1
  Cl  Cl69  1  0.06041900  0.97164300  0.16783900  1
  Cl  Cl70  1  0.42866700  0.28781500  0.58118100  1
  Cl  Cl71  1  0.56191250  0.08501750  0.64634700  1
  Cl  Cl72  1  0.76776250  0.81883650  0.65955200  1
  Cl  Cl73  1  0.93958100  0.97164300  0.33216100  1
  Cl  Cl74  1  0.42866700  0.71218500  0.08118100  1
  Cl  Cl75  1  0.76776250  0.18116350  0.15955200  1
  Cl  Cl76  1  0.76379700  0.00154800  0.39012300  1
  Cl  Cl77  1  0.57619400  0.20006400  0.21000700  1
  Cl  Cl78  1  0.42380600  0.20006400  0.28999300  1
  Cl  Cl79  1  0.70679000  0.83924600  0.06028500  1
