# generated using pymatgen
data_LiSn10(PO4)7
_symmetry_space_group_name_H-M   'P 1'
_cell_length_a   10.87070012
_cell_length_b   10.87070012
_cell_length_c   41.73231755
_cell_angle_alpha   90.00000000
_cell_angle_beta   90.00000000
_cell_angle_gamma   120.00000000
_symmetry_Int_Tables_number   1
_chemical_formula_structural   LiSn10(PO4)7
_chemical_formula_sum   'Li6 Sn60 P42 O168'
_cell_volume   4270.88783952
_cell_formula_units_Z   6
loop_
 _symmetry_equiv_pos_site_id
 _symmetry_equiv_pos_as_xyz
  1  'x, y, z'
loop_
 _atom_site_type_symbol
 _atom_site_label
 _atom_site_symmetry_multiplicity
 _atom_site_fract_x
 _atom_site_fract_y
 _atom_site_fract_z
 _atom_site_occupancy
  Li  Li0  1  0.00000000  0.00000000  0.17133100  1
  Li  Li1  1  0.66666667  0.33333333  0.00466433  1
  Li  Li2  1  0.66666667  0.33333333  0.50466433  1
  Li  Li3  1  0.33333333  0.66666667  0.33799767  1
  Li  Li4  1  0.33333333  0.66666667  0.83799767  1
  Li  Li5  1  0.00000000  0.00000000  0.67133100  1
  Sn  Sn6  1  0.80315333  0.18785167  0.26441867  1
  Sn  Sn7  1  0.16511200  0.26659900  0.33327600  1
  Sn  Sn8  1  0.73340100  0.89851300  0.33327600  1
  Sn  Sn9  1  0.00000000  0.00000000  0.00125900  1
  Sn  Sn10  1  0.38469833  0.19684667  0.26441867  1
  Sn  Sn11  1  0.10148700  0.83488800  0.33327600  1
  Sn  Sn12  1  0.20957667  0.82027633  0.23992633  1
  Sn  Sn13  1  0.81214833  0.61530167  0.26441867  1
  Sn  Sn14  1  0.46982000  0.94863500  0.09775200  1
  Sn  Sn15  1  0.05136500  0.52118500  0.09775200  1
  Sn  Sn16  1  0.33333333  0.66666667  0.16792567  1
  Sn  Sn17  1  0.61069967  0.79042333  0.23992633  1
  Sn  Sn18  1  0.17972367  0.38930033  0.23992633  1
  Sn  Sn19  1  0.47881500  0.53018000  0.09775200  1
  Sn  Sn20  1  0.87624333  0.72263367  0.07325967  1
  Sn  Sn21  1  0.76815367  0.59993233  0.16660933  1
  Sn  Sn22  1  0.27736633  0.15360967  0.07325967  1
  Sn  Sn23  1  0.40006767  0.16822133  0.16660933  1
  Sn  Sn24  1  0.83177867  0.23184633  0.16660933  1
  Sn  Sn25  1  0.84639033  0.12375667  0.07325967  1
  Sn  Sn26  1  0.46982000  0.52118500  0.59775200  1
  Sn  Sn27  1  0.83177867  0.59993233  0.66660933  1
  Sn  Sn28  1  0.40006767  0.23184633  0.66660933  1
  Sn  Sn29  1  0.66666667  0.33333333  0.33459233  1
  Sn  Sn30  1  0.05136500  0.53018000  0.59775200  1
  Sn  Sn31  1  0.76815367  0.16822133  0.66660933  1
  Sn  Sn32  1  0.87624333  0.15360967  0.57325967  1
  Sn  Sn33  1  0.47881500  0.94863500  0.59775200  1
  Sn  Sn34  1  0.13648667  0.28196833  0.43108533  1
  Sn  Sn35  1  0.71803167  0.85451833  0.43108533  1
  Sn  Sn36  1  0.00000000  0.00000000  0.50125900  1
  Sn  Sn37  1  0.27736633  0.12375667  0.57325967  1
  Sn  Sn38  1  0.84639033  0.72263367  0.57325967  1
  Sn  Sn39  1  0.14548167  0.86351333  0.43108533  1
  Sn  Sn40  1  0.54291000  0.05596700  0.40659300  1
  Sn  Sn41  1  0.43482033  0.93326567  0.49994267  1
  Sn  Sn42  1  0.94403300  0.48694300  0.40659300  1
  Sn  Sn43  1  0.06673433  0.50155467  0.49994267  1
  Sn  Sn44  1  0.49844533  0.56517967  0.49994267  1
  Sn  Sn45  1  0.51305700  0.45709000  0.40659300  1
  Sn  Sn46  1  0.13648667  0.85451833  0.93108533  1
  Sn  Sn47  1  0.49844533  0.93326567  0.99994267  1
  Sn  Sn48  1  0.06673433  0.56517967  0.99994267  1
  Sn  Sn49  1  0.33333333  0.66666667  0.66792567  1
  Sn  Sn50  1  0.71803167  0.86351333  0.93108533  1
  Sn  Sn51  1  0.43482033  0.50155467  0.99994267  1
  Sn  Sn52  1  0.54291000  0.48694300  0.90659300  1
  Sn  Sn53  1  0.14548167  0.28196833  0.93108533  1
  Sn  Sn54  1  0.80315333  0.61530167  0.76441867  1
  Sn  Sn55  1  0.38469833  0.18785167  0.76441867  1
  Sn  Sn56  1  0.66666667  0.33333333  0.83459233  1
  Sn  Sn57  1  0.94403300  0.45709000  0.90659300  1
  Sn  Sn58  1  0.51305700  0.05596700  0.90659300  1
  Sn  Sn59  1  0.81214833  0.19684667  0.76441867  1
  Sn  Sn60  1  0.20957667  0.38930033  0.73992633  1
  Sn  Sn61  1  0.10148700  0.26659900  0.83327600  1
  Sn  Sn62  1  0.61069967  0.82027633  0.73992633  1
  Sn  Sn63  1  0.73340100  0.83488800  0.83327600  1
  Sn  Sn64  1  0.16511200  0.89851300  0.83327600  1
  Sn  Sn65  1  0.17972367  0.79042333  0.73992633  1
  P  P66  1  0.00000000  0.00000000  0.26976100  1
  P  P67  1  0.16523700  0.87750600  0.13318700  1
  P  P68  1  0.19196433  0.84280067  0.03673367  1
  P  P69  1  0.52529767  0.01583033  0.20340033  1
  P  P70  1  0.49857033  0.95439767  0.29985367  1
  P  P71  1  0.98416967  0.50946733  0.20340033  1
  P  P72  1  0.04560233  0.54417267  0.29985367  1
  P  P73  1  0.71226900  0.83476300  0.13318700  1
  P  P74  1  0.65083633  0.80803567  0.03673367  1
  P  P75  1  0.15719933  0.34916367  0.03673367  1
  P  P76  1  0.45582733  0.50142967  0.29985367  1
  P  P77  1  0.12249400  0.28773100  0.13318700  1
  P  P78  1  0.49053267  0.47470233  0.20340033  1
  P  P79  1  0.66666667  0.33333333  0.10309433  1
  P  P80  1  0.66666667  0.33333333  0.60309433  1
  P  P81  1  0.83190367  0.21083933  0.46652033  1
  P  P82  1  0.85863100  0.17613400  0.37006700  1
  P  P83  1  0.19196433  0.34916367  0.53673367  1
  P  P84  1  0.16523700  0.28773100  0.63318700  1
  P  P85  1  0.65083633  0.84280067  0.53673367  1
  P  P86  1  0.71226900  0.87750600  0.63318700  1
  P  P87  1  0.37893567  0.16809633  0.46652033  1
  P  P88  1  0.31750300  0.14136900  0.37006700  1
  P  P89  1  0.82386600  0.68249700  0.37006700  1
  P  P90  1  0.12249400  0.83476300  0.63318700  1
  P  P91  1  0.78916067  0.62106433  0.46652033  1
  P  P92  1  0.15719933  0.80803567  0.53673367  1
  P  P93  1  0.33333333  0.66666667  0.43642767  1
  P  P94  1  0.33333333  0.66666667  0.93642767  1
  P  P95  1  0.49857033  0.54417267  0.79985367  1
  P  P96  1  0.52529767  0.50946733  0.70340033  1
  P  P97  1  0.85863100  0.68249700  0.87006700  1
  P  P98  1  0.83190367  0.62106433  0.96652033  1
  P  P99  1  0.31750300  0.17613400  0.87006700  1
  P  P100  1  0.37893567  0.21083933  0.96652033  1
  P  P101  1  0.04560233  0.50142967  0.79985367  1
  P  P102  1  0.98416967  0.47470233  0.70340033  1
  P  P103  1  0.49053267  0.01583033  0.70340033  1
  P  P104  1  0.78916067  0.16809633  0.96652033  1
  P  P105  1  0.45582733  0.95439767  0.79985367  1
  P  P106  1  0.82386600  0.14136900  0.87006700  1
  P  P107  1  0.00000000  0.00000000  0.76976100  1
  O  O108  1  0.18724233  0.81686367  0.00000767  1
  O  O109  1  0.97158567  0.11930133  0.25660933  1
  O  O110  1  0.00000000  0.00000000  0.30685600  1
  O  O111  1  0.62962133  0.81275767  0.00000767  1
  O  O112  1  0.88069867  0.85228433  0.25660933  1
  O  O113  1  0.14771567  0.02841433  0.25660933  1
  O  O114  1  0.28600900  0.00592000  0.11245400  1
  O  O115  1  0.10605767  0.91753433  0.04663533  1
  O  O116  1  0.45188133  0.09589467  0.21803567  1
  O  O117  1  0.55488633  0.11578767  0.30368767  1
  O  O118  1  0.15281500  0.94374100  0.16509300  1
  O  O119  1  0.18313633  0.37037867  0.00000767  1
  O  O120  1  0.34823267  0.93706933  0.04832333  1
  O  O121  1  0.02113933  0.80558867  0.11538367  1
  O  O122  1  0.52057567  0.03704533  0.16667433  1
  O  O123  1  0.35447267  0.88221733  0.28205033  1
  O  O124  1  0.68156600  0.07783000  0.21499000  1
  O  O125  1  0.92217000  0.60373600  0.21499000  1
  O  O126  1  0.05324433  0.67258667  0.27912067  1
  O  O127  1  0.22155300  0.77243200  0.13702100  1
  O  O128  1  0.11854800  0.68932000  0.05136900  1
  O  O129  1  0.43939100  0.85519000  0.21330200  1
  O  O130  1  0.61934233  0.94675567  0.27912067  1
  O  O131  1  0.78444933  0.97886067  0.11538367  1
  O  O132  1  0.57077200  0.88145200  0.05136900  1
  O  O133  1  0.96295467  0.48353033  0.16667433  1
  O  O134  1  0.14481000  0.58420100  0.21330200  1
  O  O135  1  0.88421233  0.43909867  0.30368767  1
  O  O136  1  0.55087900  0.77844700  0.13702100  1
  O  O137  1  0.81147667  0.89394233  0.04663533  1
  O  O138  1  0.79092600  0.84718500  0.16509300  1
  O  O139  1  0.90410533  0.35598667  0.21803567  1
  O  O140  1  0.11778267  0.47225533  0.28205033  1
  O  O141  1  0.06293067  0.41116333  0.04832333  1
  O  O142  1  0.52774467  0.64552733  0.28205033  1
  O  O143  1  0.41579900  0.56060900  0.21330200  1
  O  O144  1  0.22756800  0.44912100  0.13702100  1
  O  O145  1  0.71991100  0.71399100  0.11245400  1
  O  O146  1  0.58883667  0.65176733  0.04832333  1
  O  O147  1  0.99408000  0.28008900  0.11245400  1
  O  O148  1  0.31068000  0.42922800  0.05136900  1
  O  O149  1  0.05625900  0.20907400  0.16509300  1
  O  O150  1  0.64401333  0.54811867  0.21803567  1
  O  O151  1  0.32741333  0.38065767  0.27912067  1
  O  O152  1  0.51646967  0.47942433  0.16667433  1
  O  O153  1  0.48614833  0.87574067  0.33175967  1
  O  O154  1  0.56090133  0.44511367  0.30368767  1
  O  O155  1  0.08246567  0.18852333  0.04663533  1
  O  O156  1  0.19441133  0.21555067  0.11538367  1
  O  O157  1  0.39626400  0.31843400  0.21499000  1
  O  O158  1  0.81438233  0.45263467  0.08994267  1
  O  O159  1  0.54736533  0.36174767  0.08994267  1
  O  O160  1  0.12425933  0.61040767  0.33175967  1
  O  O161  1  0.66666667  0.33333333  0.14018933  1
  O  O162  1  0.63825233  0.18561767  0.08994267  1
  O  O163  1  0.38959233  0.51385167  0.33175967  1
  O  O164  1  0.85390900  0.15019700  0.33334100  1
  O  O165  1  0.63825233  0.45263467  0.58994267  1
  O  O166  1  0.66666667  0.33333333  0.64018933  1
  O  O167  1  0.29628800  0.14609100  0.33334100  1
  O  O168  1  0.54736533  0.18561767  0.58994267  1
  O  O169  1  0.81438233  0.36174767  0.58994267  1
  O  O170  1  0.95267567  0.33925333  0.44578733  1
  O  O171  1  0.77272433  0.25086767  0.37996867  1
  O  O172  1  0.11854800  0.42922800  0.55136900  1
  O  O173  1  0.22155300  0.44912100  0.63702100  1
  O  O174  1  0.81948167  0.27707433  0.49842633  1
  O  O175  1  0.84980300  0.70371200  0.33334100  1
  O  O176  1  0.01489933  0.27040267  0.38165667  1
  O  O177  1  0.68780600  0.13892200  0.44871700  1
  O  O178  1  0.18724233  0.37037867  0.50000767  1
  O  O179  1  0.02113933  0.21555067  0.61538367  1
  O  O180  1  0.34823267  0.41116333  0.54832333  1
  O  O181  1  0.58883667  0.93706933  0.54832333  1
  O  O182  1  0.71991100  0.00592000  0.61245400  1
  O  O183  1  0.88821967  0.10576533  0.47035433  1
  O  O184  1  0.78521467  0.02265333  0.38470233  1
  O  O185  1  0.10605767  0.18852333  0.54663533  1
  O  O186  1  0.28600900  0.28008900  0.61245400  1
  O  O187  1  0.45111600  0.31219400  0.44871700  1
  O  O188  1  0.23743867  0.21478533  0.38470233  1
  O  O189  1  0.62962133  0.81686367  0.50000767  1
  O  O190  1  0.81147667  0.91753433  0.54663533  1
  O  O191  1  0.55087900  0.77243200  0.63702100  1
  O  O192  1  0.21754567  0.11178033  0.47035433  1
  O  O193  1  0.47814333  0.22727567  0.37996867  1
  O  O194  1  0.45759267  0.18051833  0.49842633  1
  O  O195  1  0.57077200  0.68932000  0.55136900  1
  O  O196  1  0.78444933  0.80558867  0.61538367  1
  O  O197  1  0.72959733  0.74449667  0.38165667  1
  O  O198  1  0.19441133  0.97886067  0.61538367  1
  O  O199  1  0.08246567  0.89394233  0.54663533  1
  O  O200  1  0.89423467  0.78245433  0.47035433  1
  O  O201  1  0.38657767  0.04732433  0.44578733  1
  O  O202  1  0.25550333  0.98510067  0.38165667  1
  O  O203  1  0.66074667  0.61342233  0.44578733  1
  O  O204  1  0.97734667  0.76256133  0.38470233  1
  O  O205  1  0.72292567  0.54240733  0.49842633  1
  O  O206  1  0.31068000  0.88145200  0.55136900  1
  O  O207  1  0.99408000  0.71399100  0.61245400  1
  O  O208  1  0.18313633  0.81275767  0.50000767  1
  O  O209  1  0.15281500  0.20907400  0.66509300  1
  O  O210  1  0.22756800  0.77844700  0.63702100  1
  O  O211  1  0.74913233  0.52185667  0.37996867  1
  O  O212  1  0.86107800  0.54888400  0.44871700  1
  O  O213  1  0.06293067  0.65176733  0.54832333  1
  O  O214  1  0.48104900  0.78596800  0.42327600  1
  O  O215  1  0.21403200  0.69508100  0.42327600  1
  O  O216  1  0.79092600  0.94374100  0.66509300  1
  O  O217  1  0.33333333  0.66666667  0.47352267  1
  O  O218  1  0.30491900  0.51895100  0.42327600  1
  O  O219  1  0.05625900  0.84718500  0.66509300  1
  O  O220  1  0.52057567  0.48353033  0.66667433  1
  O  O221  1  0.30491900  0.78596800  0.92327600  1
  O  O222  1  0.33333333  0.66666667  0.97352267  1
  O  O223  1  0.96295467  0.47942433  0.66667433  1
  O  O224  1  0.21403200  0.51895100  0.92327600  1
  O  O225  1  0.48104900  0.69508100  0.92327600  1
  O  O226  1  0.61934233  0.67258667  0.77912067  1
  O  O227  1  0.43939100  0.58420100  0.71330200  1
  O  O228  1  0.78521467  0.76256133  0.88470233  1
  O  O229  1  0.88821967  0.78245433  0.97035433  1
  O  O230  1  0.48614833  0.61040767  0.83175967  1
  O  O231  1  0.51646967  0.03704533  0.66667433  1
  O  O232  1  0.68156600  0.60373600  0.71499000  1
  O  O233  1  0.35447267  0.47225533  0.78205033  1
  O  O234  1  0.85390900  0.70371200  0.83334100  1
  O  O235  1  0.68780600  0.54888400  0.94871700  1
  O  O236  1  0.01489933  0.74449667  0.88165667  1
  O  O237  1  0.25550333  0.27040267  0.88165667  1
  O  O238  1  0.38657767  0.33925333  0.94578733  1
  O  O239  1  0.55488633  0.43909867  0.80368767  1
  O  O240  1  0.45188133  0.35598667  0.71803567  1
  O  O241  1  0.77272433  0.52185667  0.87996867  1
  O  O242  1  0.95267567  0.61342233  0.94578733  1
  O  O243  1  0.11778267  0.64552733  0.78205033  1
  O  O244  1  0.90410533  0.54811867  0.71803567  1
  O  O245  1  0.29628800  0.15019700  0.83334100  1
  O  O246  1  0.47814333  0.25086767  0.87996867  1
  O  O247  1  0.21754567  0.10576533  0.97035433  1
  O  O248  1  0.88421233  0.44511367  0.80368767  1
  O  O249  1  0.14481000  0.56060900  0.71330200  1
  O  O250  1  0.12425933  0.51385167  0.83175967  1
  O  O251  1  0.23743867  0.02265333  0.88470233  1
  O  O252  1  0.45111600  0.13892200  0.94871700  1
  O  O253  1  0.39626400  0.07783000  0.71499000  1
  O  O254  1  0.86107800  0.31219400  0.94871700  1
  O  O255  1  0.74913233  0.22727567  0.87996867  1
  O  O256  1  0.56090133  0.11578767  0.80368767  1
  O  O257  1  0.05324433  0.38065767  0.77912067  1
  O  O258  1  0.92217000  0.31843400  0.71499000  1
  O  O259  1  0.32741333  0.94675567  0.77912067  1
  O  O260  1  0.64401333  0.09589467  0.71803567  1
  O  O261  1  0.38959233  0.87574067  0.83175967  1
  O  O262  1  0.97734667  0.21478533  0.88470233  1
  O  O263  1  0.66074667  0.04732433  0.94578733  1
  O  O264  1  0.84980300  0.14609100  0.83334100  1
  O  O265  1  0.81948167  0.54240733  0.99842633  1
  O  O266  1  0.89423467  0.11178033  0.97035433  1
  O  O267  1  0.41579900  0.85519000  0.71330200  1
  O  O268  1  0.52774467  0.88221733  0.78205033  1
  O  O269  1  0.72959733  0.98510067  0.88165667  1
  O  O270  1  0.14771567  0.11930133  0.75660933  1
  O  O271  1  0.88069867  0.02841433  0.75660933  1
  O  O272  1  0.45759267  0.27707433  0.99842633  1
  O  O273  1  0.00000000  0.00000000  0.80685600  1
  O  O274  1  0.97158567  0.85228433  0.75660933  1
  O  O275  1  0.72292567  0.18051833  0.99842633  1
