# generated using pymatgen
data_Li4Co3Ni(PO4)4
_symmetry_space_group_name_H-M   'P 1'
_cell_length_a   4.74575700
_cell_length_b   5.96513900
_cell_length_c   10.23215505
_cell_angle_alpha   90.00000000
_cell_angle_beta   90.03626289
_cell_angle_gamma   90.00000000
_symmetry_Int_Tables_number   1
_chemical_formula_structural   Li4Co3Ni(PO4)4
_chemical_formula_sum   'Li4 Co3 Ni1 P4 O16'
_cell_volume   289.66304418
_cell_formula_units_Z   1
loop_
 _symmetry_equiv_pos_site_id
 _symmetry_equiv_pos_as_xyz
  1  'x, y, z'
loop_
 _atom_site_type_symbol
 _atom_site_label
 _atom_site_symmetry_multiplicity
 _atom_site_fract_x
 _atom_site_fract_y
 _atom_site_fract_z
 _atom_site_occupancy
  Li  Li0  1  0.00021200  0.75060200  0.00044400  1
  Li  Li1  1  0.00021200  0.24939800  0.00044400  1
  Li  Li2  1  0.50013700  0.24927300  0.49877800  1
  Li  Li3  1  0.50013700  0.75072700  0.49877800  1
  Co  Co4  1  0.02573100  0.00000000  0.72253200  1
  Co  Co5  1  0.47836400  0.00000000  0.22176900  1
  Co  Co6  1  0.52206700  0.50000000  0.77852700  1
  Ni  Ni7  1  0.98026600  0.50000000  0.27654300  1
  P  P8  1  0.08379600  0.50000000  0.59215800  1
  P  P9  1  0.41368700  0.50000000  0.09533000  1
  P  P10  1  0.58688600  0.00000000  0.90667400  1
  P  P11  1  0.91508500  0.00000000  0.40586300  1
  O  O12  1  0.20301100  0.50000000  0.45075100  1
  O  O13  1  0.22319800  0.70588800  0.66389500  1
  O  O14  1  0.22319800  0.29411200  0.66389500  1
  O  O15  1  0.23816800  0.00000000  0.40153300  1
  O  O16  1  0.26343200  0.00000000  0.90193800  1
  O  O17  1  0.27249600  0.70597200  0.16615200  1
  O  O18  1  0.27249600  0.29402800  0.16615200  1
  O  O19  1  0.29592600  0.50000000  0.95328400  1
  O  O20  1  0.70628000  0.00000000  0.04782300  1
  O  O21  1  0.72576000  0.20635800  0.83521200  1
  O  O22  1  0.72576000  0.79364200  0.83521200  1
  O  O23  1  0.73708500  0.50000000  0.10067500  1
  O  O24  1  0.76100400  0.50000000  0.59825400  1
  O  O25  1  0.77566200  0.20677900  0.33503600  1
  O  O26  1  0.77566200  0.79322100  0.33503600  1
  O  O27  1  0.79428300  0.00000000  0.54731100  1
