# generated using pymatgen
data_TaRhO4
_symmetry_space_group_name_H-M   'P 1'
_cell_length_a   6.77143600
_cell_length_b   6.77143600
_cell_length_c   6.08549800
_cell_angle_alpha   90.00000000
_cell_angle_beta   90.00000000
_cell_angle_gamma   90.00000000
_symmetry_Int_Tables_number   1
_chemical_formula_structural   TaRhO4
_chemical_formula_sum   'Ta4 Rh4 O16'
_cell_volume   279.03435685
_cell_formula_units_Z   4
loop_
 _symmetry_equiv_pos_site_id
 _symmetry_equiv_pos_as_xyz
  1  'x, y, z'
loop_
 _atom_site_type_symbol
 _atom_site_label
 _atom_site_symmetry_multiplicity
 _atom_site_fract_x
 _atom_site_fract_y
 _atom_site_fract_z
 _atom_site_occupancy
  Ta  Ta0  1  0.50000000  0.50000000  0.26102100  1
  Ta  Ta1  1  0.50000000  0.00000000  0.01102100  1
  Ta  Ta2  1  0.00000000  0.00000000  0.76102100  1
  Ta  Ta3  1  0.00000000  0.50000000  0.51102100  1
  Rh  Rh4  1  0.00000000  0.00000000  0.24869600  1
  Rh  Rh5  1  0.50000000  0.00000000  0.49869600  1
  Rh  Rh6  1  0.50000000  0.50000000  0.74869600  1
  Rh  Rh7  1  0.00000000  0.50000000  0.99869600  1
  O  O8  1  0.70265100  0.00000000  0.23703700  1
  O  O9  1  0.69740100  0.00000000  0.75810400  1
  O  O10  1  0.50000000  0.30259900  0.00810400  1
  O  O11  1  0.50000000  0.29734900  0.48703700  1
  O  O12  1  0.50000000  0.69740100  0.00810400  1
  O  O13  1  0.00000000  0.20265100  0.98703700  1
  O  O14  1  0.80259900  0.50000000  0.25810400  1
  O  O15  1  0.79734900  0.50000000  0.73703700  1
  O  O16  1  0.20265100  0.50000000  0.73703700  1
  O  O17  1  0.19740100  0.50000000  0.25810400  1
  O  O18  1  0.00000000  0.80259900  0.50810400  1
  O  O19  1  0.00000000  0.79734900  0.98703700  1
  O  O20  1  0.00000000  0.19740100  0.50810400  1
  O  O21  1  0.50000000  0.70265100  0.48703700  1
  O  O22  1  0.30259900  0.00000000  0.75810400  1
  O  O23  1  0.29734900  0.00000000  0.23703700  1
