# generated using pymatgen
data_Ba2YF7
_symmetry_space_group_name_H-M   'P 1'
_cell_length_a   8.14378600
_cell_length_b   8.98916800
_cell_length_c   11.34482900
_cell_angle_alpha   90.00000000
_cell_angle_beta   90.00000000
_cell_angle_gamma   90.00000000
_symmetry_Int_Tables_number   1
_chemical_formula_structural   Ba2YF7
_chemical_formula_sum   'Ba8 Y4 F28'
_cell_volume   830.50796928
_cell_formula_units_Z   4
loop_
 _symmetry_equiv_pos_site_id
 _symmetry_equiv_pos_as_xyz
  1  'x, y, z'
loop_
 _atom_site_type_symbol
 _atom_site_label
 _atom_site_symmetry_multiplicity
 _atom_site_fract_x
 _atom_site_fract_y
 _atom_site_fract_z
 _atom_site_occupancy
  Ba  Ba0  1  0.25000000  0.10699900  0.25740300  1
  Ba  Ba1  1  0.75000000  0.19477800  0.10546600  1
  Ba  Ba2  1  0.25000000  0.30522200  0.60546600  1
  Ba  Ba3  1  0.75000000  0.39300100  0.75740300  1
  Ba  Ba4  1  0.25000000  0.60699900  0.24259700  1
  Ba  Ba5  1  0.75000000  0.69477800  0.39453400  1
  Ba  Ba6  1  0.25000000  0.80522200  0.89453400  1
  Ba  Ba7  1  0.75000000  0.89300100  0.74259700  1
  Y  Y8  1  0.75000000  0.18617300  0.44350400  1
  Y  Y9  1  0.25000000  0.31382700  0.94350400  1
  Y  Y10  1  0.75000000  0.68617300  0.05649600  1
  Y  Y11  1  0.25000000  0.81382700  0.55649600  1
  F  F12  1  0.25000000  0.04305400  0.48739100  1
  F  F13  1  0.25000000  0.09355700  0.86597900  1
  F  F14  1  0.75000000  0.13334000  0.87618100  1
  F  F15  1  0.56978100  0.12595200  0.30796300  1
  F  F16  1  0.93021900  0.12595200  0.30796300  1
  F  F17  1  0.57492400  0.25108100  0.58355100  1
  F  F18  1  0.92507600  0.25108100  0.58355100  1
  F  F19  1  0.07492400  0.24891900  0.08355100  1
  F  F20  1  0.42507600  0.24891900  0.08355100  1
  F  F21  1  0.06978100  0.37404800  0.80796300  1
  F  F22  1  0.43021900  0.37404800  0.80796300  1
  F  F23  1  0.25000000  0.36666000  0.37618100  1
  F  F24  1  0.75000000  0.40644300  0.36597900  1
  F  F25  1  0.75000000  0.45694600  0.98739100  1
  F  F26  1  0.25000000  0.54305400  0.01260900  1
  F  F27  1  0.25000000  0.59355700  0.63402100  1
  F  F28  1  0.75000000  0.63334000  0.62381900  1
  F  F29  1  0.56978100  0.62595200  0.19203700  1
  F  F30  1  0.93021900  0.62595200  0.19203700  1
  F  F31  1  0.57492400  0.75108100  0.91644900  1
  F  F32  1  0.92507600  0.75108100  0.91644900  1
  F  F33  1  0.07492400  0.74891900  0.41644900  1
  F  F34  1  0.42507600  0.74891900  0.41644900  1
  F  F35  1  0.06978100  0.87404800  0.69203700  1
  F  F36  1  0.43021900  0.87404800  0.69203700  1
  F  F37  1  0.25000000  0.86666000  0.12381900  1
  F  F38  1  0.75000000  0.90644300  0.13402100  1
  F  F39  1  0.75000000  0.95694600  0.51260900  1
