# generated using pymatgen
data_LiCu(PO3)4
_symmetry_space_group_name_H-M   'P 1'
_cell_length_a   9.89641800
_cell_length_b   12.09692200
_cell_length_c   8.33727213
_cell_angle_alpha   90.00000000
_cell_angle_beta   99.58140896
_cell_angle_gamma   90.00000000
_symmetry_Int_Tables_number   1
_chemical_formula_structural   LiCu(PO3)4
_chemical_formula_sum   'Li4 Cu4 P16 O48'
_cell_volume   984.18302154
_cell_formula_units_Z   4
loop_
 _symmetry_equiv_pos_site_id
 _symmetry_equiv_pos_as_xyz
  1  'x, y, z'
loop_
 _atom_site_type_symbol
 _atom_site_label
 _atom_site_symmetry_multiplicity
 _atom_site_fract_x
 _atom_site_fract_y
 _atom_site_fract_z
 _atom_site_occupancy
  Li  Li0  1  0.64004100  0.81152300  0.54485800  1
  Li  Li1  1  0.64004100  0.18847700  0.04485800  1
  Li  Li2  1  0.14004100  0.31152300  0.54485800  1
  Li  Li3  1  0.14004100  0.68847700  0.04485800  1
  Cu  Cu4  1  0.45911550  0.64860050  0.24717900  1
  Cu  Cu5  1  0.45911550  0.35139950  0.74717900  1
  Cu  Cu6  1  0.95911550  0.14860050  0.24717900  1
  Cu  Cu7  1  0.95911550  0.85139950  0.74717900  1
  P  P8  1  0.84072950  0.91868650  0.31424100  1
  P  P9  1  0.63024900  0.81230600  0.07155000  1
  P  P10  1  0.84072950  0.08131350  0.81424100  1
  P  P11  1  0.32342800  0.82915700  0.42050200  1
  P  P12  1  0.63024900  0.18769400  0.57155000  1
  P  P13  1  0.09776350  0.92539650  0.18492100  1
  P  P14  1  0.32342800  0.17084300  0.92050200  1
  P  P15  1  0.09776350  0.07460350  0.68492100  1
  P  P16  1  0.34072950  0.41868650  0.31424100  1
  P  P17  1  0.13024900  0.31230600  0.07155000  1
  P  P18  1  0.34072950  0.58131350  0.81424100  1
  P  P19  1  0.82342800  0.32915700  0.42050200  1
  P  P20  1  0.13024900  0.68769400  0.57155000  1
  P  P21  1  0.59776350  0.42539650  0.18492100  1
  P  P22  1  0.82342800  0.67084300  0.92050200  1
  P  P23  1  0.59776350  0.57460350  0.68492100  1
  O  O24  1  0.62879600  0.64070900  0.54516600  1
  O  O25  1  0.80341250  0.85593750  0.45398800  1
  O  O26  1  0.47219850  0.63386950  0.75324400  1
  O  O27  1  0.56262000  0.77237500  0.21564500  1
  O  O28  1  0.72429450  0.91446850  0.15600600  1
  O  O29  1  0.87090550  0.95880050  0.85104900  1
  O  O30  1  0.87090550  0.04119950  0.35104900  1
  O  O31  1  0.31682850  0.74205650  0.28337000  1
  O  O32  1  0.55060300  0.84700100  0.91525500  1
  O  O33  1  0.45706000  0.87460400  0.49709400  1
  O  O34  1  0.72429450  0.08553150  0.65600600  1
  O  O35  1  0.24577450  0.78141550  0.55949700  1
  O  O36  1  0.80341250  0.14406250  0.95398800  1
  O  O37  1  0.21986400  0.92462400  0.33884200  1
  O  O38  1  0.45706000  0.12539600  0.99709400  1
  O  O39  1  0.55060300  0.15299900  0.41525500  1
  O  O40  1  0.56262000  0.22762500  0.71564500  1
  O  O41  1  0.62879600  0.35929100  0.04516600  1
  O  O42  1  0.06492600  0.95189200  0.65114500  1
  O  O43  1  0.21986400  0.07537600  0.83884200  1
  O  O44  1  0.06492600  0.04810800  0.15114500  1
  O  O45  1  0.24577450  0.21858450  0.05949700  1
  O  O46  1  0.47219850  0.36613050  0.25324400  1
  O  O47  1  0.31682850  0.25794350  0.78337000  1
  O  O48  1  0.12879600  0.14070900  0.54516600  1
  O  O49  1  0.30341250  0.35593750  0.45398800  1
  O  O50  1  0.97219850  0.13386950  0.75324400  1
  O  O51  1  0.06262000  0.27237500  0.21564500  1
  O  O52  1  0.22429450  0.41446850  0.15600600  1
  O  O53  1  0.37090550  0.45880050  0.85104900  1
  O  O54  1  0.37090550  0.54119950  0.35104900  1
  O  O55  1  0.81682850  0.24205650  0.28337000  1
  O  O56  1  0.05060300  0.34700100  0.91525500  1
  O  O57  1  0.95706000  0.37460400  0.49709400  1
  O  O58  1  0.22429450  0.58553150  0.65600600  1
  O  O59  1  0.74577450  0.28141550  0.55949700  1
  O  O60  1  0.30341250  0.64406250  0.95398800  1
  O  O61  1  0.71986400  0.42462400  0.33884200  1
  O  O62  1  0.95706000  0.62539600  0.99709400  1
  O  O63  1  0.05060300  0.65299900  0.41525500  1
  O  O64  1  0.06262000  0.72762500  0.71564500  1
  O  O65  1  0.12879600  0.85929100  0.04516600  1
  O  O66  1  0.56492600  0.45189200  0.65114500  1
  O  O67  1  0.71986400  0.57537600  0.83884200  1
  O  O68  1  0.56492600  0.54810800  0.15114500  1
  O  O69  1  0.74577450  0.71858450  0.05949700  1
  O  O70  1  0.97219850  0.86613050  0.25324400  1
  O  O71  1  0.81682850  0.75794350  0.78337000  1
