# generated using pymatgen
data_Li2Cr(Si2O5)3
_symmetry_space_group_name_H-M   'P 1'
_cell_length_a   10.01282045
_cell_length_b   10.01282045
_cell_length_c   14.23953000
_cell_angle_alpha   90.00000000
_cell_angle_beta   90.00000000
_cell_angle_gamma   120.00000000
_symmetry_Int_Tables_number   1
_chemical_formula_structural   Li2Cr(Si2O5)3
_chemical_formula_sum   'Li8 Cr4 Si24 O60'
_cell_volume   1236.34348118
_cell_formula_units_Z   4
loop_
 _symmetry_equiv_pos_site_id
 _symmetry_equiv_pos_as_xyz
  1  'x, y, z'
loop_
 _atom_site_type_symbol
 _atom_site_label
 _atom_site_symmetry_multiplicity
 _atom_site_fract_x
 _atom_site_fract_y
 _atom_site_fract_z
 _atom_site_occupancy
  Li  Li0  1  0.49981150  0.00000000  0.50000000  1
  Li  Li1  1  0.00000000  0.49981150  0.50000000  1
  Li  Li2  1  0.00000000  0.49981150  0.00000000  1
  Li  Li3  1  0.49981150  0.00000000  0.00000000  1
  Li  Li4  1  0.50018850  0.50018850  0.50000000  1
  Li  Li5  1  0.50018850  0.50018850  0.00000000  1
  Li  Li6  1  0.33333333  0.66666667  0.75000000  1
  Li  Li7  1  0.66666667  0.33333333  0.25000000  1
  Cr  Cr8  1  0.33333333  0.66666667  0.00157100  1
  Cr  Cr9  1  0.66666667  0.33333333  0.50157100  1
  Cr  Cr10  1  0.66666667  0.33333333  0.99842900  1
  Cr  Cr11  1  0.33333333  0.66666667  0.49842900  1
  Si  Si12  1  0.12710300  0.36109200  0.63839100  1
  Si  Si13  1  0.36109200  0.12710300  0.13839100  1
  Si  Si14  1  0.36109200  0.12710300  0.36160900  1
  Si  Si15  1  0.12710300  0.36109200  0.86160900  1
  Si  Si16  1  0.23489100  0.36166800  0.36079200  1
  Si  Si17  1  0.36166800  0.23489100  0.63920800  1
  Si  Si18  1  0.36166800  0.23489100  0.86079200  1
  Si  Si19  1  0.23489100  0.36166800  0.13920800  1
  Si  Si20  1  0.12677700  0.76510900  0.36079200  1
  Si  Si21  1  0.76510900  0.12677700  0.63920800  1
  Si  Si22  1  0.76510900  0.12677700  0.86079200  1
  Si  Si23  1  0.12677700  0.76510900  0.13920800  1
  Si  Si24  1  0.87289700  0.23398900  0.36160900  1
  Si  Si25  1  0.87289700  0.23398900  0.13839100  1
  Si  Si26  1  0.23398900  0.87289700  0.63839100  1
  Si  Si27  1  0.23398900  0.87289700  0.86160900  1
  Si  Si28  1  0.63890800  0.76601100  0.63839100  1
  Si  Si29  1  0.76601100  0.63890800  0.13839100  1
  Si  Si30  1  0.76601100  0.63890800  0.36160900  1
  Si  Si31  1  0.63890800  0.76601100  0.86160900  1
  Si  Si32  1  0.87322300  0.63833200  0.63920800  1
  Si  Si33  1  0.63833200  0.87322300  0.36079200  1
  Si  Si34  1  0.87322300  0.63833200  0.86079200  1
  Si  Si35  1  0.63833200  0.87322300  0.13920800  1
  O  O36  1  0.05140200  0.28505700  0.38325400  1
  O  O37  1  0.28505700  0.05140200  0.61674600  1
  O  O38  1  0.28505700  0.05140200  0.88325400  1
  O  O39  1  0.05140200  0.28505700  0.11674600  1
  O  O40  1  0.28394300  0.23226900  0.38506000  1
  O  O41  1  0.23226900  0.28394300  0.61494000  1
  O  O42  1  0.28394300  0.23226900  0.11494000  1
  O  O43  1  0.23226900  0.28394300  0.88506000  1
  O  O44  1  0.41894900  0.15425300  0.25000000  1
  O  O45  1  0.15425300  0.41894900  0.75000000  1
  O  O46  1  0.26546400  0.40640000  0.25000000  1
  O  O47  1  0.40640000  0.26546400  0.75000000  1
  O  O48  1  0.51394000  0.17032900  0.42210800  1
  O  O49  1  0.51394000  0.17032900  0.07789200  1
  O  O50  1  0.17032900  0.51394000  0.57789200  1
  O  O51  1  0.17032900  0.51394000  0.92210800  1
  O  O52  1  0.65766300  0.16886400  0.57532600  1
  O  O53  1  0.16886400  0.65766300  0.42467400  1
  O  O54  1  0.65766300  0.16886400  0.92467400  1
  O  O55  1  0.16886400  0.65766300  0.07532600  1
  O  O56  1  0.76773100  0.05167400  0.11494000  1
  O  O57  1  0.76773100  0.05167400  0.38506000  1
  O  O58  1  0.05167400  0.76773100  0.61494000  1
  O  O59  1  0.05167400  0.76773100  0.88506000  1
  O  O60  1  0.51120100  0.34233700  0.57532600  1
  O  O61  1  0.34233700  0.51120100  0.42467400  1
  O  O62  1  0.51120100  0.34233700  0.92467400  1
  O  O63  1  0.34233700  0.51120100  0.07532600  1
  O  O64  1  0.14093600  0.73453600  0.25000000  1
  O  O65  1  0.73453600  0.14093600  0.75000000  1
  O  O66  1  0.84574700  0.26469600  0.25000000  1
  O  O67  1  0.26469600  0.84574700  0.75000000  1
  O  O68  1  0.65638900  0.48606000  0.42210800  1
  O  O69  1  0.65638900  0.48606000  0.07789200  1
  O  O70  1  0.48606000  0.65638900  0.57789200  1
  O  O71  1  0.48606000  0.65638900  0.92210800  1
  O  O72  1  0.94859800  0.23365500  0.61674600  1
  O  O73  1  0.23365500  0.94859800  0.38325400  1
  O  O74  1  0.94859800  0.23365500  0.88325400  1
  O  O75  1  0.23365500  0.94859800  0.11674600  1
  O  O76  1  0.82967100  0.34361100  0.42210800  1
  O  O77  1  0.34361100  0.82967100  0.57789200  1
  O  O78  1  0.82967100  0.34361100  0.07789200  1
  O  O79  1  0.34361100  0.82967100  0.92210800  1
  O  O80  1  0.48879900  0.83113600  0.42467400  1
  O  O81  1  0.83113600  0.48879900  0.57532600  1
  O  O82  1  0.83113600  0.48879900  0.92467400  1
  O  O83  1  0.48879900  0.83113600  0.07532600  1
  O  O84  1  0.73530400  0.58105100  0.25000000  1
  O  O85  1  0.58105100  0.73530400  0.75000000  1
  O  O86  1  0.59360000  0.85906400  0.25000000  1
  O  O87  1  0.85906400  0.59360000  0.75000000  1
  O  O88  1  0.71494300  0.76634500  0.11674600  1
  O  O89  1  0.76634500  0.71494300  0.61674600  1
  O  O90  1  0.71494300  0.76634500  0.38325400  1
  O  O91  1  0.76634500  0.71494300  0.88325400  1
  O  O92  1  0.94832600  0.71605700  0.11494000  1
  O  O93  1  0.94832600  0.71605700  0.38506000  1
  O  O94  1  0.71605700  0.94832600  0.61494000  1
  O  O95  1  0.71605700  0.94832600  0.88506000  1
