# generated using pymatgen
data_La2HfO5
_symmetry_space_group_name_H-M   'P 1'
_cell_length_a   4.22827000
_cell_length_b   12.01879800
_cell_length_c   11.19527000
_cell_angle_alpha   90.00000000
_cell_angle_beta   90.00000000
_cell_angle_gamma   90.00000000
_symmetry_Int_Tables_number   1
_chemical_formula_structural   La2HfO5
_chemical_formula_sum   'La8 Hf4 O20'
_cell_volume   568.92932526
_cell_formula_units_Z   4
loop_
 _symmetry_equiv_pos_site_id
 _symmetry_equiv_pos_as_xyz
  1  'x, y, z'
loop_
 _atom_site_type_symbol
 _atom_site_label
 _atom_site_symmetry_multiplicity
 _atom_site_fract_x
 _atom_site_fract_y
 _atom_site_fract_z
 _atom_site_occupancy
  La  La0  1  0.00000000  0.13841000  0.07146500  1
  La  La1  1  0.00000000  0.13841000  0.42853500  1
  La  La2  1  0.50000000  0.36159000  0.57146500  1
  La  La3  1  0.50000000  0.36159000  0.92853500  1
  La  La4  1  0.50000000  0.63841000  0.07146500  1
  La  La5  1  0.50000000  0.63841000  0.42853500  1
  La  La6  1  0.00000000  0.86159000  0.57146500  1
  La  La7  1  0.00000000  0.86159000  0.92853500  1
  Hf  Hf8  1  0.00000000  0.17042000  0.75000000  1
  Hf  Hf9  1  0.50000000  0.32958000  0.25000000  1
  Hf  Hf10  1  0.50000000  0.67042000  0.75000000  1
  Hf  Hf11  1  0.00000000  0.82958000  0.25000000  1
  O  O12  1  0.00000000  0.05090800  0.62044200  1
  O  O13  1  0.00000000  0.28281000  0.90280200  1
  O  O14  1  0.00000000  0.05090800  0.87955800  1
  O  O15  1  0.00000000  0.28281000  0.59719800  1
  O  O16  1  0.00000000  0.28300900  0.25000000  1
  O  O17  1  0.50000000  0.21699100  0.75000000  1
  O  O18  1  0.50000000  0.44909200  0.12044200  1
  O  O19  1  0.50000000  0.44909200  0.37955800  1
  O  O20  1  0.50000000  0.21719000  0.09719800  1
  O  O21  1  0.50000000  0.21719000  0.40280200  1
  O  O22  1  0.50000000  0.55090800  0.62044200  1
  O  O23  1  0.50000000  0.78281000  0.90280200  1
  O  O24  1  0.50000000  0.55090800  0.87955800  1
  O  O25  1  0.50000000  0.78281000  0.59719800  1
  O  O26  1  0.50000000  0.78300900  0.25000000  1
  O  O27  1  0.00000000  0.71699100  0.75000000  1
  O  O28  1  0.00000000  0.94909200  0.12044200  1
  O  O29  1  0.00000000  0.94909200  0.37955800  1
  O  O30  1  0.00000000  0.71719000  0.09719800  1
  O  O31  1  0.00000000  0.71719000  0.40280200  1
