# generated using pymatgen
data_LiAlVO4
_symmetry_space_group_name_H-M   'P 1'
_cell_length_a   14.08099379
_cell_length_b   14.08099379
_cell_length_c   9.53017571
_cell_angle_alpha   90.00000000
_cell_angle_beta   90.00000000
_cell_angle_gamma   120.00000000
_symmetry_Int_Tables_number   1
_chemical_formula_structural   LiAlVO4
_chemical_formula_sum   'Li18 Al18 V18 O72'
_cell_volume   1636.43271562
_cell_formula_units_Z   18
loop_
 _symmetry_equiv_pos_site_id
 _symmetry_equiv_pos_as_xyz
  1  'x, y, z'
loop_
 _atom_site_type_symbol
 _atom_site_label
 _atom_site_symmetry_multiplicity
 _atom_site_fract_x
 _atom_site_fract_y
 _atom_site_fract_z
 _atom_site_occupancy
  Li  Li0  1  0.81130667  0.79045133  0.25878733  1
  Li  Li1  1  0.79045133  0.97914467  0.74121267  1
  Li  Li2  1  0.02085533  0.81130667  0.74121267  1
  Li  Li3  1  0.97914467  0.18869333  0.25878733  1
  Li  Li4  1  0.20954867  0.02085533  0.25878733  1
  Li  Li5  1  0.18869333  0.20954867  0.74121267  1
  Li  Li6  1  0.47797333  0.12378467  0.59212067  1
  Li  Li7  1  0.45711800  0.31247800  0.07454600  1
  Li  Li8  1  0.68752200  0.14464000  0.07454600  1
  Li  Li9  1  0.64581133  0.52202667  0.59212067  1
  Li  Li10  1  0.87621533  0.35418867  0.59212067  1
  Li  Li11  1  0.85536000  0.54288200  0.07454600  1
  Li  Li12  1  0.14464000  0.45711800  0.92545400  1
  Li  Li13  1  0.12378467  0.64581133  0.40787933  1
  Li  Li14  1  0.35418867  0.47797333  0.40787933  1
  Li  Li15  1  0.31247800  0.85536000  0.92545400  1
  Li  Li16  1  0.54288200  0.68752200  0.92545400  1
  Li  Li17  1  0.52202667  0.87621533  0.40787933  1
  Al  Al18  1  0.80645600  0.79172700  0.57595200  1
  Al  Al19  1  0.79172700  0.98527100  0.42404800  1
  Al  Al20  1  0.01472900  0.80645600  0.42404800  1
  Al  Al21  1  0.98527100  0.19354400  0.57595200  1
  Al  Al22  1  0.20827300  0.01472900  0.57595200  1
  Al  Al23  1  0.19354400  0.20827300  0.42404800  1
  Al  Al24  1  0.47312267  0.12506033  0.90928533  1
  Al  Al25  1  0.45839367  0.31860433  0.75738133  1
  Al  Al26  1  0.68139567  0.13978933  0.75738133  1
  Al  Al27  1  0.65193767  0.52687733  0.90928533  1
  Al  Al28  1  0.87493967  0.34806233  0.90928533  1
  Al  Al29  1  0.86021067  0.54160633  0.75738133  1
  Al  Al30  1  0.13978933  0.45839367  0.24261867  1
  Al  Al31  1  0.12506033  0.65193767  0.09071467  1
  Al  Al32  1  0.34806233  0.47312267  0.09071467  1
  Al  Al33  1  0.31860433  0.86021067  0.24261867  1
  Al  Al34  1  0.54160633  0.68139567  0.24261867  1
  Al  Al35  1  0.52687733  0.87493967  0.09071467  1
  V  V36  1  0.55272967  0.69162733  0.58050333  1
  V  V37  1  0.86110233  0.55272967  0.41949667  1
  V  V38  1  0.69162733  0.13889767  0.41949667  1
  V  V39  1  0.30837267  0.86110233  0.58050333  1
  V  V40  1  0.13889767  0.44727033  0.58050333  1
  V  V41  1  0.44727033  0.30837267  0.41949667  1
  V  V42  1  0.21939633  0.02496067  0.91383667  1
  V  V43  1  0.52776900  0.88606300  0.75283000  1
  V  V44  1  0.35829400  0.47223100  0.75283000  1
  V  V45  1  0.97503933  0.19443567  0.91383667  1
  V  V46  1  0.80556433  0.78060367  0.91383667  1
  V  V47  1  0.11393700  0.64170600  0.75283000  1
  V  V48  1  0.88606300  0.35829400  0.24717000  1
  V  V49  1  0.19443567  0.21939633  0.08616333  1
  V  V50  1  0.02496067  0.80556433  0.08616333  1
  V  V51  1  0.64170600  0.52776900  0.24717000  1
  V  V52  1  0.47223100  0.11393700  0.24717000  1
  V  V53  1  0.78060367  0.97503933  0.08616333  1
  O  O54  1  0.54506400  0.76268400  0.73723400  1
  O  O55  1  0.78238000  0.54506400  0.26276600  1
  O  O56  1  0.67106033  0.67334067  0.58130967  1
  O  O57  1  0.99771967  0.67106033  0.41869033  1
  O  O58  1  0.86757433  0.79347467  0.74344067  1
  O  O59  1  0.88080367  0.78429033  0.43392633  1
  O  O60  1  0.67334067  0.00228033  0.41869033  1
  O  O61  1  0.78429033  0.90348667  0.56607367  1
  O  O62  1  0.79347467  0.92590033  0.25655933  1
  O  O63  1  0.07409967  0.86757433  0.25655933  1
  O  O64  1  0.09651333  0.88080367  0.56607367  1
  O  O65  1  0.76268400  0.21762000  0.26276600  1
  O  O66  1  0.23731600  0.78238000  0.73723400  1
  O  O67  1  0.90348667  0.11919633  0.43392633  1
  O  O68  1  0.92590033  0.13242567  0.74344067  1
  O  O69  1  0.20652533  0.07409967  0.74344067  1
  O  O70  1  0.21570967  0.09651333  0.43392633  1
  O  O71  1  0.32665933  0.99771967  0.58130967  1
  O  O72  1  0.11919633  0.21570967  0.56607367  1
  O  O73  1  0.13242567  0.20652533  0.25655933  1
  O  O74  1  0.00228033  0.32893967  0.58130967  1
  O  O75  1  0.32893967  0.32665933  0.41869033  1
  O  O76  1  0.21762000  0.45493600  0.73723400  1
  O  O77  1  0.45493600  0.23731600  0.26276600  1
  O  O78  1  0.21173067  0.09601733  0.07056733  1
  O  O79  1  0.44904667  0.87839733  0.59609933  1
  O  O80  1  0.33772700  0.00667400  0.91464300  1
  O  O81  1  0.66438633  0.00439367  0.75202367  1
  O  O82  1  0.53424100  0.12680800  0.07677400  1
  O  O83  1  0.54747033  0.11762367  0.76725967  1
  O  O84  1  0.34000733  0.33561367  0.75202367  1
  O  O85  1  0.45095700  0.23682000  0.89940700  1
  O  O86  1  0.46014133  0.25923367  0.58989267  1
  O  O87  1  0.74076633  0.20090767  0.58989267  1
  O  O88  1  0.76318000  0.21413700  0.89940700  1
  O  O89  1  0.42935067  0.55095333  0.59609933  1
  O  O90  1  0.90398267  0.11571333  0.07056733  1
  O  O91  1  0.57015333  0.45252967  0.76725967  1
  O  O92  1  0.59256700  0.46575900  0.07677400  1
  O  O93  1  0.87319200  0.40743300  0.07677400  1
  O  O94  1  0.88237633  0.42984667  0.76725967  1
  O  O95  1  0.99332600  0.33105300  0.91464300  1
  O  O96  1  0.78586300  0.54904300  0.89940700  1
  O  O97  1  0.79909233  0.53985867  0.58989267  1
  O  O98  1  0.66894700  0.66227300  0.91464300  1
  O  O99  1  0.99560633  0.65999267  0.75202367  1
  O  O100  1  0.88428667  0.78826933  0.07056733  1
  O  O101  1  0.12160267  0.57064933  0.59609933  1
  O  O102  1  0.87839733  0.42935067  0.40390067  1
  O  O103  1  0.11571333  0.21173067  0.92943267  1
  O  O104  1  0.00439367  0.34000733  0.24797633  1
  O  O105  1  0.33105300  0.33772700  0.08535700  1
  O  O106  1  0.20090767  0.46014133  0.41010733  1
  O  O107  1  0.21413700  0.45095700  0.10059300  1
  O  O108  1  0.00667400  0.66894700  0.08535700  1
  O  O109  1  0.11762367  0.57015333  0.23274033  1
  O  O110  1  0.12680800  0.59256700  0.92322600  1
  O  O111  1  0.40743300  0.53424100  0.92322600  1
  O  O112  1  0.42984667  0.54747033  0.23274033  1
  O  O113  1  0.09601733  0.88428667  0.92943267  1
  O  O114  1  0.57064933  0.44904667  0.40390067  1
  O  O115  1  0.23682000  0.78586300  0.10059300  1
  O  O116  1  0.25923367  0.79909233  0.41010733  1
  O  O117  1  0.53985867  0.74076633  0.41010733  1
  O  O118  1  0.54904300  0.76318000  0.10059300  1
  O  O119  1  0.65999267  0.66438633  0.24797633  1
  O  O120  1  0.45252967  0.88237633  0.23274033  1
  O  O121  1  0.46575900  0.87319200  0.92322600  1
  O  O122  1  0.33561367  0.99560633  0.24797633  1
  O  O123  1  0.66227300  0.99332600  0.08535700  1
  O  O124  1  0.55095333  0.12160267  0.40390067  1
  O  O125  1  0.78826933  0.90398267  0.92943267  1
