# generated using pymatgen
data_La4Al6O15
_symmetry_space_group_name_H-M   'P 1'
_cell_length_a   12.96771200
_cell_length_b   5.04469000
_cell_length_c   21.19287120
_cell_angle_alpha   90.00000000
_cell_angle_beta   93.71672696
_cell_angle_gamma   90.00000000
_symmetry_Int_Tables_number   1
_chemical_formula_structural   La4Al6O15
_chemical_formula_sum   'La16 Al24 O60'
_cell_volume   1383.48113409
_cell_formula_units_Z   4
loop_
 _symmetry_equiv_pos_site_id
 _symmetry_equiv_pos_as_xyz
  1  'x, y, z'
loop_
 _atom_site_type_symbol
 _atom_site_label
 _atom_site_symmetry_multiplicity
 _atom_site_fract_x
 _atom_site_fract_y
 _atom_site_fract_z
 _atom_site_occupancy
  La  La0  1  0.63502500  0.30448900  0.54986000  1
  La  La1  1  0.64397150  0.29205550  0.35285800  1
  La  La2  1  0.63841850  0.68553050  0.04908300  1
  La  La3  1  0.64286850  0.71309350  0.85215400  1
  La  La4  1  0.85602850  0.79205550  0.64714200  1
  La  La5  1  0.86497500  0.80448900  0.45014000  1
  La  La6  1  0.85713150  0.21309350  0.14784600  1
  La  La7  1  0.86158150  0.18553050  0.95091700  1
  La  La8  1  0.13502500  0.80448900  0.54986000  1
  La  La9  1  0.14397150  0.79205550  0.35285800  1
  La  La10  1  0.13841850  0.18553050  0.04908300  1
  La  La11  1  0.14286850  0.21309350  0.85215400  1
  La  La12  1  0.35602850  0.29205550  0.64714200  1
  La  La13  1  0.36497500  0.30448900  0.45014000  1
  La  La14  1  0.35713150  0.71309350  0.14784600  1
  La  La15  1  0.36158150  0.68553050  0.95091700  1
  Al  Al16  1  0.58248150  0.79503450  0.66449800  1
  Al  Al17  1  0.57827350  0.76873450  0.44532900  1
  Al  Al18  1  0.66153450  0.31721750  0.72550000  1
  Al  Al19  1  0.58457650  0.20307150  0.16494500  1
  Al  Al20  1  0.57915900  0.22617000  0.94501200  1
  Al  Al21  1  0.66268250  0.68154950  0.22456200  1
  Al  Al22  1  0.83846550  0.81721750  0.27450000  1
  Al  Al23  1  0.92172650  0.26873450  0.55467100  1
  Al  Al24  1  0.91751850  0.29503450  0.33550200  1
  Al  Al25  1  0.83731750  0.18154950  0.77543800  1
  Al  Al26  1  0.92084100  0.72617000  0.05498800  1
  Al  Al27  1  0.91542350  0.70307150  0.83505500  1
  Al  Al28  1  0.08248150  0.29503450  0.66449800  1
  Al  Al29  1  0.07827350  0.26873450  0.44532900  1
  Al  Al30  1  0.16153450  0.81721750  0.72550000  1
  Al  Al31  1  0.08457650  0.70307150  0.16494500  1
  Al  Al32  1  0.07915900  0.72617000  0.94501200  1
  Al  Al33  1  0.16268250  0.18154950  0.22456200  1
  Al  Al34  1  0.33846550  0.31721750  0.27450000  1
  Al  Al35  1  0.42172650  0.76873450  0.55467100  1
  Al  Al36  1  0.41751850  0.79503450  0.33550200  1
  Al  Al37  1  0.33731750  0.68154950  0.77543800  1
  Al  Al38  1  0.42084100  0.22617000  0.05498800  1
  Al  Al39  1  0.41542350  0.20307150  0.83505500  1
  O  O40  1  0.52906100  0.65997000  0.37028900  1
  O  O41  1  0.57551350  0.14476750  0.67201900  1
  O  O42  1  0.57494300  0.11528300  0.44784900  1
  O  O43  1  0.61777100  0.64362600  0.73817100  1
  O  O44  1  0.53042600  0.33581400  0.86986600  1
  O  O45  1  0.57637850  0.85374050  0.17149500  1
  O  O46  1  0.67812950  0.70938950  0.61170600  1
  O  O47  1  0.57270750  0.87907250  0.94756900  1
  O  O48  1  0.61921850  0.35539050  0.23852200  1
  O  O49  1  0.69870800  0.61346700  0.45800000  1
  O  O50  1  0.70615450  0.79981850  0.30256900  1
  O  O51  1  0.79384550  0.29981850  0.69743100  1
  O  O52  1  0.68137100  0.29392000  0.11329300  1
  O  O53  1  0.69965050  0.38123950  0.95948300  1
  O  O54  1  0.80129200  0.11346700  0.54200000  1
  O  O55  1  0.82187050  0.20938950  0.38829400  1
  O  O56  1  0.70603300  0.19814100  0.80322200  1
  O  O57  1  0.79396700  0.69814100  0.19677800  1
  O  O58  1  0.80034950  0.88123950  0.04051700  1
  O  O59  1  0.88222900  0.14362600  0.26182900  1
  O  O60  1  0.92505700  0.61528300  0.55215100  1
  O  O61  1  0.81862900  0.79392000  0.88670700  1
  O  O62  1  0.92448650  0.64476750  0.32798100  1
  O  O63  1  0.97093900  0.15997000  0.62971100  1
  O  O64  1  0.00000000  0.11895700  0.50000000  1
  O  O65  1  0.88078150  0.85539050  0.76147800  1
  O  O66  1  0.92729250  0.37907250  0.05243100  1
  O  O67  1  0.92362150  0.35374050  0.82850500  1
  O  O68  1  0.96957400  0.83581400  0.13013400  1
  O  O69  1  0.00000000  0.87367900  0.00000000  1
  O  O70  1  0.02906100  0.15997000  0.37028900  1
  O  O71  1  0.07551350  0.64476750  0.67201900  1
  O  O72  1  0.07494300  0.61528300  0.44784900  1
  O  O73  1  0.11777100  0.14362600  0.73817100  1
  O  O74  1  0.03042600  0.83581400  0.86986600  1
  O  O75  1  0.07637850  0.35374050  0.17149500  1
  O  O76  1  0.17812950  0.20938950  0.61170600  1
  O  O77  1  0.07270750  0.37907250  0.94756900  1
  O  O78  1  0.11921850  0.85539050  0.23852200  1
  O  O79  1  0.19870800  0.11346700  0.45800000  1
  O  O80  1  0.20615450  0.29981850  0.30256900  1
  O  O81  1  0.29384550  0.79981850  0.69743100  1
  O  O82  1  0.18137100  0.79392000  0.11329300  1
  O  O83  1  0.19965050  0.88123950  0.95948300  1
  O  O84  1  0.30129200  0.61346700  0.54200000  1
  O  O85  1  0.32187050  0.70938950  0.38829400  1
  O  O86  1  0.20603300  0.69814100  0.80322200  1
  O  O87  1  0.29396700  0.19814100  0.19677800  1
  O  O88  1  0.30034950  0.38123950  0.04051700  1
  O  O89  1  0.38222900  0.64362600  0.26182900  1
  O  O90  1  0.42505700  0.11528300  0.55215100  1
  O  O91  1  0.31862900  0.29392000  0.88670700  1
  O  O92  1  0.42448650  0.14476750  0.32798100  1
  O  O93  1  0.47093900  0.65997000  0.62971100  1
  O  O94  1  0.50000000  0.61895700  0.50000000  1
  O  O95  1  0.38078150  0.35539050  0.76147800  1
  O  O96  1  0.42729250  0.87907250  0.05243100  1
  O  O97  1  0.42362150  0.85374050  0.82850500  1
  O  O98  1  0.46957400  0.33581400  0.13013400  1
  O  O99  1  0.50000000  0.37367900  0.00000000  1
