# generated using pymatgen
data_LiNbSn3(PO4)6
_symmetry_space_group_name_H-M   'P 1'
_cell_length_a   8.77244352
_cell_length_b   8.77244352
_cell_length_c   22.31879710
_cell_angle_alpha   90.00000000
_cell_angle_beta   90.00000000
_cell_angle_gamma   120.00000000
_symmetry_Int_Tables_number   1
_chemical_formula_structural   LiNbSn3(PO4)6
_chemical_formula_sum   'Li3 Nb3 Sn9 P18 O72'
_cell_volume   1487.45069035
_cell_formula_units_Z   3
loop_
 _symmetry_equiv_pos_site_id
 _symmetry_equiv_pos_as_xyz
  1  'x, y, z'
loop_
 _atom_site_type_symbol
 _atom_site_label
 _atom_site_symmetry_multiplicity
 _atom_site_fract_x
 _atom_site_fract_y
 _atom_site_fract_z
 _atom_site_occupancy
  Li  Li0  1  0.00000000  0.00000000  0.00671200  1
  Li  Li1  1  0.66666667  0.33333333  0.34004533  1
  Li  Li2  1  0.33333333  0.66666667  0.67337867  1
  Nb  Nb3  1  0.66666667  0.33333333  0.18902233  1
  Nb  Nb4  1  0.33333333  0.66666667  0.52235567  1
  Nb  Nb5  1  0.00000000  0.00000000  0.85568900  1
  Sn  Sn6  1  0.00000000  0.00000000  0.14619400  1
  Sn  Sn7  1  0.33333333  0.66666667  0.02519967  1
  Sn  Sn8  1  0.33333333  0.66666667  0.30981167  1
  Sn  Sn9  1  0.66666667  0.33333333  0.47952733  1
  Sn  Sn10  1  0.00000000  0.00000000  0.35853300  1
  Sn  Sn11  1  0.00000000  0.00000000  0.64314500  1
  Sn  Sn12  1  0.33333333  0.66666667  0.81286067  1
  Sn  Sn13  1  0.66666667  0.33333333  0.69186633  1
  Sn  Sn14  1  0.66666667  0.33333333  0.97647833  1
  P  P15  1  0.95632500  0.32935000  0.08158900  1
  P  P16  1  0.37302500  0.04367500  0.08158900  1
  P  P17  1  0.67065000  0.62697500  0.08158900  1
  P  P18  1  0.00036667  0.71121133  0.25126133  1
  P  P19  1  0.28878867  0.28915533  0.25126133  1
  P  P20  1  0.71084467  0.99963333  0.25126133  1
  P  P21  1  0.62299167  0.66268333  0.41492233  1
  P  P22  1  0.03969167  0.37700833  0.41492233  1
  P  P23  1  0.33731667  0.96030833  0.41492233  1
  P  P24  1  0.66703333  0.04454467  0.58459467  1
  P  P25  1  0.95545533  0.62248867  0.58459467  1
  P  P26  1  0.37751133  0.33296667  0.58459467  1
  P  P27  1  0.28965833  0.99601667  0.74825567  1
  P  P28  1  0.70635833  0.71034167  0.74825567  1
  P  P29  1  0.00398333  0.29364167  0.74825567  1
  P  P30  1  0.33370000  0.37787800  0.91792800  1
  P  P31  1  0.62212200  0.95582200  0.91792800  1
  P  P32  1  0.04417800  0.66630000  0.91792800  1
  O  O33  1  0.82474133  0.03534567  0.30744967  1
  O  O34  1  0.96465433  0.78939567  0.30744967  1
  O  O35  1  0.97692733  0.16364167  0.08438867  1
  O  O36  1  0.21060433  0.17525867  0.30744967  1
  O  O37  1  0.13475800  0.49900300  0.08092800  1
  O  O38  1  0.85673633  0.33953567  0.13842667  1
  O  O39  1  0.18671433  0.02307267  0.08438867  1
  O  O40  1  0.36424500  0.86524200  0.08092800  1
  O  O41  1  0.50099700  0.63575500  0.08092800  1
  O  O42  1  0.02032600  0.81496600  0.19357100  1
  O  O43  1  0.83370533  0.52216567  0.24505867  1
  O  O44  1  0.18503400  0.20536000  0.19357100  1
  O  O45  1  0.48279933  0.14326367  0.13842667  1
  O  O46  1  0.83635833  0.81328567  0.08438867  1
  O  O47  1  0.66046433  0.51720067  0.13842667  1
  O  O48  1  0.16174500  0.69012900  0.25530100  1
  O  O49  1  0.30987100  0.47161600  0.25530100  1
  O  O50  1  0.47783433  0.31153967  0.24505867  1
  O  O51  1  0.79464000  0.97967400  0.19357100  1
  O  O52  1  0.52838400  0.83825500  0.25530100  1
  O  O53  1  0.45667400  0.15308500  0.02526900  1
  O  O54  1  0.68846033  0.16629467  0.24505867  1
  O  O55  1  0.69641100  0.54332600  0.02526900  1
  O  O56  1  0.84691500  0.30358900  0.02526900  1
  O  O57  1  0.49140800  0.36867900  0.64078300  1
  O  O58  1  0.63132100  0.12272900  0.64078300  1
  O  O59  1  0.64359400  0.49697500  0.41772200  1
  O  O60  1  0.87727100  0.50859200  0.64078300  1
  O  O61  1  0.80142467  0.83233633  0.41426133  1
  O  O62  1  0.52340300  0.67286900  0.47176000  1
  O  O63  1  0.85338100  0.35640600  0.41772200  1
  O  O64  1  0.03091167  0.19857533  0.41426133  1
  O  O65  1  0.16766367  0.96908833  0.41426133  1
  O  O66  1  0.68699267  0.14829933  0.52690433  1
  O  O67  1  0.50037200  0.85549900  0.57839200  1
  O  O68  1  0.85170067  0.53869333  0.52690433  1
  O  O69  1  0.14946600  0.47659700  0.47176000  1
  O  O70  1  0.50302500  0.14661900  0.41772200  1
  O  O71  1  0.32713100  0.85053400  0.47176000  1
  O  O72  1  0.82841167  0.02346233  0.58863433  1
  O  O73  1  0.97653767  0.80494933  0.58863433  1
  O  O74  1  0.14450100  0.64487300  0.57839200  1
  O  O75  1  0.46130667  0.31300733  0.52690433  1
  O  O76  1  0.19505067  0.17158833  0.58863433  1
  O  O77  1  0.12334067  0.48641833  0.35860233  1
  O  O78  1  0.35512700  0.49962800  0.57839200  1
  O  O79  1  0.36307767  0.87665933  0.35860233  1
  O  O80  1  0.51358167  0.63692233  0.35860233  1
  O  O81  1  0.15807467  0.70201233  0.97411633  1
  O  O82  1  0.29798767  0.45606233  0.97411633  1
  O  O83  1  0.31026067  0.83030833  0.75105533  1
  O  O84  1  0.54393767  0.84192533  0.97411633  1
  O  O85  1  0.46809133  0.16566967  0.74759467  1
  O  O86  1  0.19006967  0.00620233  0.80509333  1
  O  O87  1  0.52004767  0.68973933  0.75105533  1
  O  O88  1  0.69757833  0.53190867  0.74759467  1
  O  O89  1  0.83433033  0.30242167  0.74759467  1
  O  O90  1  0.35365933  0.48163267  0.86023767  1
  O  O91  1  0.16703867  0.18883233  0.91172533  1
  O  O92  1  0.51836733  0.87202667  0.86023767  1
  O  O93  1  0.81613267  0.80993033  0.80509333  1
  O  O94  1  0.16969167  0.47995233  0.75105533  1
  O  O95  1  0.99379767  0.18386733  0.80509333  1
  O  O96  1  0.49507833  0.35679567  0.92196767  1
  O  O97  1  0.64320433  0.13828267  0.92196767  1
  O  O98  1  0.81116767  0.97820633  0.91172533  1
  O  O99  1  0.12797333  0.64634067  0.86023767  1
  O  O100  1  0.86171733  0.50492167  0.92196767  1
  O  O101  1  0.79000733  0.81975167  0.69193567  1
  O  O102  1  0.02179367  0.83296133  0.91172533  1
  O  O103  1  0.02974433  0.20999267  0.69193567  1
  O  O104  1  0.18024833  0.97025567  0.69193567  1
