# generated using pymatgen
data_Ag2PHO4
_symmetry_space_group_name_H-M   'P 1'
_cell_length_a   6.28261818
_cell_length_b   6.28261818
_cell_length_c   9.08983100
_cell_angle_alpha   90.00000000
_cell_angle_beta   90.00000000
_cell_angle_gamma   120.00000000
_symmetry_Int_Tables_number   1
_chemical_formula_structural   Ag2PHO4
_chemical_formula_sum   'Ag6 P3 H3 O12'
_cell_volume   310.71897395
_cell_formula_units_Z   3
loop_
 _symmetry_equiv_pos_site_id
 _symmetry_equiv_pos_as_xyz
  1  'x, y, z'
loop_
 _atom_site_type_symbol
 _atom_site_label
 _atom_site_symmetry_multiplicity
 _atom_site_fract_x
 _atom_site_fract_y
 _atom_site_fract_z
 _atom_site_occupancy
  Ag  Ag0  1  0.15215933  0.07607967  0.00000000  1
  Ag  Ag1  1  0.92392033  0.07607967  0.33333333  1
  Ag  Ag2  1  0.92392033  0.84784067  0.66666667  1
  Ag  Ag3  1  0.59557433  0.79778717  0.00000000  1
  Ag  Ag4  1  0.20221283  0.79778717  0.33333333  1
  Ag  Ag5  1  0.20221283  0.40442567  0.66666667  1
  P  P6  1  0.97456133  0.48728067  0.00000000  1
  P  P7  1  0.51271933  0.48728067  0.33333333  1
  P  P8  1  0.51271933  0.02543867  0.66666667  1
  H  H9  1  0.64050283  0.28100567  0.16666667  1
  H  H10  1  0.71899433  0.35949717  0.50000000  1
  H  H11  1  0.64050283  0.35949717  0.83333333  1
  O  O12  1  0.13680233  0.40566467  0.91628700  1
  O  O13  1  0.59433533  0.73113767  0.24962033  1
  O  O14  1  0.26886233  0.86319767  0.58295367  1
  O  O15  1  0.13680233  0.73113767  0.08371300  1
  O  O16  1  0.59433533  0.86319767  0.75037967  1
  O  O17  1  0.26886233  0.40566467  0.41704633  1
  O  O18  1  0.80694033  0.27201867  0.10696300  1
  O  O19  1  0.72798133  0.53492167  0.44029633  1
  O  O20  1  0.46507833  0.19305967  0.77362967  1
  O  O21  1  0.80694033  0.53492167  0.89303700  1
  O  O22  1  0.72798133  0.19305967  0.55970367  1
  O  O23  1  0.46507833  0.27201867  0.22637033  1
