# generated using pymatgen
data_Li5CuF8
_symmetry_space_group_name_H-M   'P 1'
_cell_length_a   5.83299608
_cell_length_b   5.83299608
_cell_length_c   14.80750938
_cell_angle_alpha   90.00000000
_cell_angle_beta   90.00000000
_cell_angle_gamma   120.00000000
_symmetry_Int_Tables_number   1
_chemical_formula_structural   Li5CuF8
_chemical_formula_sum   'Li15 Cu3 F24'
_cell_volume   436.31085418
_cell_formula_units_Z   3
loop_
 _symmetry_equiv_pos_site_id
 _symmetry_equiv_pos_as_xyz
  1  'x, y, z'
loop_
 _atom_site_type_symbol
 _atom_site_label
 _atom_site_symmetry_multiplicity
 _atom_site_fract_x
 _atom_site_fract_y
 _atom_site_fract_z
 _atom_site_occupancy
  Li  Li0  1  0.00000000  0.00000000  0.14190400  1
  Li  Li1  1  0.00000000  0.50000000  0.00000000  1
  Li  Li2  1  0.50000000  0.50000000  0.00000000  1
  Li  Li3  1  0.66666667  0.33333333  0.19142933  1
  Li  Li4  1  0.50000000  0.00000000  0.00000000  1
  Li  Li5  1  0.66666667  0.33333333  0.47523733  1
  Li  Li6  1  0.66666667  0.83333333  0.33333333  1
  Li  Li7  1  0.16666667  0.83333333  0.33333333  1
  Li  Li8  1  0.33333333  0.66666667  0.52476267  1
  Li  Li9  1  0.16666667  0.33333333  0.33333333  1
  Li  Li10  1  0.33333333  0.66666667  0.80857067  1
  Li  Li11  1  0.33333333  0.16666667  0.66666667  1
  Li  Li12  1  0.83333333  0.16666667  0.66666667  1
  Li  Li13  1  0.00000000  0.00000000  0.85809600  1
  Li  Li14  1  0.83333333  0.66666667  0.66666667  1
  Cu  Cu15  1  0.33333333  0.66666667  0.16666667  1
  Cu  Cu16  1  1.00000000  1.00000000  0.50000000  1
  Cu  Cu17  1  0.66666667  0.33333333  0.83333333  1
  F  F18  1  0.17820367  0.35640733  0.08944633  1
  F  F19  1  0.00000000  0.00000000  0.26703900  1
  F  F20  1  0.17820367  0.82179633  0.08944633  1
  F  F21  1  0.02307400  0.51153700  0.24388700  1
  F  F22  1  0.64359267  0.82179633  0.08944633  1
  F  F23  1  0.48846300  0.51153700  0.24388700  1
  F  F24  1  0.66666667  0.33333333  0.06629433  1
  F  F25  1  0.48846300  0.97692600  0.24388700  1
  F  F26  1  0.84487033  0.68974067  0.42277967  1
  F  F27  1  0.66666667  0.33333333  0.60037233  1
  F  F28  1  0.84487033  0.15512967  0.42277967  1
  F  F29  1  0.68974067  0.84487033  0.57722033  1
  F  F30  1  0.31025933  0.15512967  0.42277967  1
  F  F31  1  0.15512967  0.84487033  0.57722033  1
  F  F32  1  0.33333333  0.66666667  0.39962767  1
  F  F33  1  0.15512967  0.31025933  0.57722033  1
  F  F34  1  0.51153700  0.02307400  0.75611300  1
  F  F35  1  0.33333333  0.66666667  0.93370567  1
  F  F36  1  0.51153700  0.48846300  0.75611300  1
  F  F37  1  0.35640733  0.17820367  0.91055367  1
  F  F38  1  0.97692600  0.48846300  0.75611300  1
  F  F39  1  0.82179633  0.17820367  0.91055367  1
  F  F40  1  0.00000000  0.00000000  0.73296100  1
  F  F41  1  0.82179633  0.64359267  0.91055367  1
