# generated using pymatgen
data_NaLuO2
_symmetry_space_group_name_H-M   'P 1'
_cell_length_a   3.33292974
_cell_length_b   3.33292974
_cell_length_c   16.67897555
_cell_angle_alpha   90.00000000
_cell_angle_beta   90.00000000
_cell_angle_gamma   120.00000000
_symmetry_Int_Tables_number   1
_chemical_formula_structural   NaLuO2
_chemical_formula_sum   'Na3 Lu3 O6'
_cell_volume   160.45465493
_cell_formula_units_Z   3
loop_
 _symmetry_equiv_pos_site_id
 _symmetry_equiv_pos_as_xyz
  1  'x, y, z'
loop_
 _atom_site_type_symbol
 _atom_site_label
 _atom_site_symmetry_multiplicity
 _atom_site_fract_x
 _atom_site_fract_y
 _atom_site_fract_z
 _atom_site_occupancy
  Na  Na0  1  0.00000000  0.00000000  0.00000000  1
  Na  Na1  1  0.66666667  0.33333333  0.33333333  1
  Na  Na2  1  0.33333333  0.66666667  0.66666667  1
  Lu  Lu3  1  0.33333333  0.66666667  0.16666667  1
  Lu  Lu4  1  1.00000000  1.00000000  0.50000000  1
  Lu  Lu5  1  0.66666667  0.33333333  0.83333333  1
  O  O6  1  0.00000000  0.00000000  0.23550200  1
  O  O7  1  0.66666667  0.33333333  0.09783133  1
  O  O8  1  0.66666667  0.33333333  0.56883533  1
  O  O9  1  0.33333333  0.66666667  0.43116467  1
  O  O10  1  0.33333333  0.66666667  0.90216867  1
  O  O11  1  0.00000000  0.00000000  0.76449800  1
