# generated using pymatgen
data_NaMnPCO7
_symmetry_space_group_name_H-M   'P 1'
_cell_length_a   8.13385500
_cell_length_b   8.15830841
_cell_length_c   9.11439053
_cell_angle_alpha   90.26386379
_cell_angle_beta   92.53727522
_cell_angle_gamma   100.40872657
_symmetry_Int_Tables_number   1
_chemical_formula_structural   NaMnPCO7
_chemical_formula_sum   'Na4 Mn4 P4 C4 O28'
_cell_volume   594.23229307
_cell_formula_units_Z   4
loop_
 _symmetry_equiv_pos_site_id
 _symmetry_equiv_pos_as_xyz
  1  'x, y, z'
loop_
 _atom_site_type_symbol
 _atom_site_label
 _atom_site_symmetry_multiplicity
 _atom_site_fract_x
 _atom_site_fract_y
 _atom_site_fract_z
 _atom_site_occupancy
  Na  Na0  1  0.39620000  0.85011600  0.75523400  1
  Na  Na1  1  0.10247200  0.14330600  0.75459300  1
  Na  Na2  1  0.89497400  0.86617800  0.23891600  1
  Na  Na3  1  0.39435000  0.36535300  0.23776500  1
  Mn  Mn4  1  0.52289000  0.27251300  0.66000900  1
  Mn  Mn5  1  0.01105700  0.76094500  0.65603200  1
  Mn  Mn6  1  0.47669800  0.73809500  0.34288600  1
  Mn  Mn7  1  0.97532200  0.24019000  0.34215800  1
  P  P8  1  0.73286400  0.98588000  0.56610200  1
  P  P9  1  0.23490500  0.48365400  0.56646100  1
  P  P10  1  0.76068000  0.51624000  0.43339800  1
  P  P11  1  0.26485200  0.02088600  0.43444000  1
  C  C12  1  0.99378400  0.73611000  0.92058700  1
  C  C13  1  0.49202800  0.23455700  0.92220300  1
  C  C14  1  0.51232800  0.75910600  0.08052200  1
  C  C15  1  0.00753000  0.26344200  0.07909200  1
  O  O16  1  0.53444500  0.76842900  0.94817700  1
  O  O17  1  0.02633800  0.27511900  0.94653900  1
  O  O18  1  0.60501200  0.34539300  0.86138400  1
  O  O19  1  0.10645300  0.84705500  0.85367600  1
  O  O20  1  0.89831900  0.64034300  0.82149700  1
  O  O21  1  0.39765300  0.13992800  0.81735700  1
  O  O22  1  0.86782300  0.92460100  0.66837500  1
  O  O23  1  0.35862100  0.41548200  0.67451200  1
  O  O24  1  0.66774900  0.10986000  0.66751000  1
  O  O25  1  0.17713000  0.61955100  0.66121800  1
  O  O26  1  0.58678800  0.83893600  0.52485000  1
  O  O27  1  0.68828500  0.43932800  0.57421500  1
  O  O28  1  0.19153100  0.94448100  0.57808000  1
  O  O29  1  0.08684500  0.33893100  0.52468200  1
  O  O30  1  0.90271800  0.66788100  0.47343700  1
  O  O31  1  0.80941500  0.06124700  0.42486600  1
  O  O32  1  0.31536800  0.55514100  0.42550200  1
  O  O33  1  0.40645200  0.17146700  0.47497500  1
  O  O34  1  0.82441300  0.39160100  0.33125100  1
  O  O35  1  0.62781100  0.57894900  0.32982000  1
  O  O36  1  0.32509200  0.89116500  0.33549700  1
  O  O37  1  0.12868200  0.08056000  0.33260900  1
  O  O38  1  0.60450900  0.85599200  0.18296500  1
  O  O39  1  0.10093100  0.35963100  0.18146000  1
  O  O40  1  0.89336000  0.15363100  0.14276100  1
  O  O41  1  0.39478600  0.65237500  0.14322300  1
  O  O42  1  0.98116600  0.72656500  0.05446000  1
  O  O43  1  0.47147300  0.21769100  0.05470800  1
