# generated using pymatgen
data_Ga2WO6
_symmetry_space_group_name_H-M   'P 1'
_cell_length_a   7.22948900
_cell_length_b   4.80289500
_cell_length_c   11.51840630
_cell_angle_alpha   90.00000000
_cell_angle_beta   93.90576487
_cell_angle_gamma   90.00000000
_symmetry_Int_Tables_number   1
_chemical_formula_structural   Ga2WO6
_chemical_formula_sum   'Ga8 W4 O24'
_cell_volume   399.01868677
_cell_formula_units_Z   4
loop_
 _symmetry_equiv_pos_site_id
 _symmetry_equiv_pos_as_xyz
  1  'x, y, z'
loop_
 _atom_site_type_symbol
 _atom_site_label
 _atom_site_symmetry_multiplicity
 _atom_site_fract_x
 _atom_site_fract_y
 _atom_site_fract_z
 _atom_site_occupancy
  Ga  Ga0  1  0.00000000  0.21029400  0.75000000  1
  Ga  Ga1  1  0.00000000  0.78970600  0.25000000  1
  Ga  Ga2  1  0.75710700  0.75806200  0.88167900  1
  Ga  Ga3  1  0.75710700  0.24193800  0.38167900  1
  Ga  Ga4  1  0.50000000  0.28783400  0.75000000  1
  Ga  Ga5  1  0.50000000  0.71216600  0.25000000  1
  Ga  Ga6  1  0.24289300  0.75806200  0.61832100  1
  Ga  Ga7  1  0.24289300  0.24193800  0.11832100  1
  W  W8  1  0.74374100  0.73355100  0.60413900  1
  W  W9  1  0.74374100  0.26644900  0.10413900  1
  W  W10  1  0.25625900  0.73355100  0.89586100  1
  W  W11  1  0.25625900  0.26644900  0.39586100  1
  O  O12  1  0.98711800  0.92815300  0.62934300  1
  O  O13  1  0.83254500  0.43622100  0.52724400  1
  O  O14  1  0.98711800  0.07184700  0.12934300  1
  O  O15  1  0.81235700  0.49206900  0.75950800  1
  O  O16  1  0.83254500  0.56377900  0.02724400  1
  O  O17  1  0.68340600  0.99627300  0.73780300  1
  O  O18  1  0.81235700  0.50793100  0.25950800  1
  O  O19  1  0.66977900  0.05612300  0.97892600  1
  O  O20  1  0.49717500  0.56329500  0.62660600  1
  O  O21  1  0.68340600  0.00372700  0.23780300  1
  O  O22  1  0.50282500  0.56329500  0.87339400  1
  O  O23  1  0.33022100  0.05612300  0.52107400  1
  O  O24  1  0.66977900  0.94387700  0.47892600  1
  O  O25  1  0.49717500  0.43670500  0.12660600  1
  O  O26  1  0.31659400  0.99627300  0.76219700  1
  O  O27  1  0.50282500  0.43670500  0.37339400  1
  O  O28  1  0.33022100  0.94387700  0.02107400  1
  O  O29  1  0.18764300  0.49206900  0.74049200  1
  O  O30  1  0.31659400  0.00372700  0.26219700  1
  O  O31  1  0.16745500  0.43622100  0.97275600  1
  O  O32  1  0.18764300  0.50793100  0.24049200  1
  O  O33  1  0.01288200  0.92815300  0.87065700  1
  O  O34  1  0.16745500  0.56377900  0.47275600  1
  O  O35  1  0.01288200  0.07184700  0.37065700  1
