# generated using pymatgen
data_Y2HgO4
_symmetry_space_group_name_H-M   'P 1'
_cell_length_a   13.72729600
_cell_length_b   3.65001600
_cell_length_c   10.16072215
_cell_angle_alpha   90.00000000
_cell_angle_beta   122.40999054
_cell_angle_gamma   90.00000000
_symmetry_Int_Tables_number   1
_chemical_formula_structural   Y2HgO4
_chemical_formula_sum   'Y8 Hg4 O16'
_cell_volume   429.80100697
_cell_formula_units_Z   4
loop_
 _symmetry_equiv_pos_site_id
 _symmetry_equiv_pos_as_xyz
  1  'x, y, z'
loop_
 _atom_site_type_symbol
 _atom_site_label
 _atom_site_symmetry_multiplicity
 _atom_site_fract_x
 _atom_site_fract_y
 _atom_site_fract_z
 _atom_site_occupancy
  Y  Y0  1  0.88071700  0.50000000  0.53821700  1
  Y  Y1  1  0.84067800  0.00000000  0.20052700  1
  Y  Y2  1  0.15932200  0.00000000  0.79947300  1
  Y  Y3  1  0.11928300  0.50000000  0.46178300  1
  Y  Y4  1  0.38071700  0.00000000  0.53821700  1
  Y  Y5  1  0.34067800  0.50000000  0.20052700  1
  Y  Y6  1  0.65932200  0.50000000  0.79947300  1
  Y  Y7  1  0.61928300  0.00000000  0.46178300  1
  Hg  Hg8  1  0.61336200  0.50000000  0.16081800  1
  Hg  Hg9  1  0.38663800  0.50000000  0.83918200  1
  Hg  Hg10  1  0.11336200  0.00000000  0.16081800  1
  Hg  Hg11  1  0.88663800  0.00000000  0.83918200  1
  O  O12  1  0.76740700  0.00000000  0.38772300  1
  O  O13  1  0.70330800  0.50000000  0.05464800  1
  O  O14  1  0.96497700  0.00000000  0.71763300  1
  O  O15  1  0.91778900  0.50000000  0.34725300  1
  O  O16  1  0.08221100  0.50000000  0.65274700  1
  O  O17  1  0.03502300  0.00000000  0.28236700  1
  O  O18  1  0.29669200  0.50000000  0.94535200  1
  O  O19  1  0.23259300  0.00000000  0.61227700  1
  O  O20  1  0.26740700  0.50000000  0.38772300  1
  O  O21  1  0.20330800  0.00000000  0.05464800  1
  O  O22  1  0.46497700  0.50000000  0.71763300  1
  O  O23  1  0.41778900  0.00000000  0.34725300  1
  O  O24  1  0.58221100  0.00000000  0.65274700  1
  O  O25  1  0.53502300  0.50000000  0.28236700  1
  O  O26  1  0.79669200  0.00000000  0.94535200  1
  O  O27  1  0.73259300  0.50000000  0.61227700  1
