# generated using pymatgen
data_LiCr2O4
_symmetry_space_group_name_H-M   'P 1'
_cell_length_a   5.91855319
_cell_length_b   5.97475338
_cell_length_c   8.32037174
_cell_angle_alpha   89.64124146
_cell_angle_beta   89.72061078
_cell_angle_gamma   89.87090276
_symmetry_Int_Tables_number   1
_chemical_formula_structural   LiCr2O4
_chemical_formula_sum   'Li4 Cr8 O16'
_cell_volume   294.21412513
_cell_formula_units_Z   4
loop_
 _symmetry_equiv_pos_site_id
 _symmetry_equiv_pos_as_xyz
  1  'x, y, z'
loop_
 _atom_site_type_symbol
 _atom_site_label
 _atom_site_symmetry_multiplicity
 _atom_site_fract_x
 _atom_site_fract_y
 _atom_site_fract_z
 _atom_site_occupancy
  Li  Li0  1  0.99885979  0.00099939  0.99941077  1
  Li  Li1  1  0.99751463  0.49903071  0.75094561  1
  Li  Li2  1  0.49964581  0.00269091  0.25328341  1
  Li  Li3  1  0.50341682  0.49746728  0.49967274  1
  Cr  Cr4  1  0.00213589  0.24746254  0.37465048  1
  Cr  Cr5  1  0.24964726  0.50110655  0.12608402  1
  Cr  Cr6  1  0.75263678  0.00023578  0.62501592  1
  Cr  Cr7  1  0.49665699  0.75498066  0.87395910  1
  Cr  Cr8  1  0.99933415  0.75187551  0.37512239  1
  Cr  Cr9  1  0.75120658  0.50282819  0.12613266  1
  Cr  Cr10  1  0.24973541  0.99768107  0.62520795  1
  Cr  Cr11  1  0.50288908  0.25144124  0.87597978  1
  O  O12  1  0.99687024  0.22271803  0.61528155  1
  O  O13  1  0.77102127  0.00237469  0.39360090  1
  O  O14  1  0.49701985  0.72566623  0.11033023  1
  O  O15  1  0.00493807  0.28278106  0.13032619  1
  O  O16  1  0.27524240  0.50291386  0.89350476  1
  O  O17  1  0.22948182  0.50291736  0.35449815  1
  O  O18  1  0.50793398  0.76719762  0.64457482  1
  O  O19  1  0.72689142  0.99641514  0.85976068  1
  O  O20  1  0.77148382  0.49710392  0.35336250  1
  O  O21  1  0.99640016  0.71833923  0.13102419  1
  O  O22  1  0.28399886  0.99327400  0.87129480  1
  O  O23  1  0.22451035  0.99799226  0.38709862  1
  O  O24  1  0.50858527  0.21599247  0.63563493  1
  O  O25  1  0.99196542  0.77924158  0.61718145  1
  O  O26  1  0.72174467  0.51168258  0.89237849  1
  O  O27  1  0.50586420  0.28654213  0.11790392  1
