# generated using pymatgen
data_KMgIn(MoO4)3
_symmetry_space_group_name_H-M   'P 1'
_cell_length_a   9.70056755
_cell_length_b   9.70056755
_cell_length_c   24.74540793
_cell_angle_alpha   90.00000000
_cell_angle_beta   90.00000000
_cell_angle_gamma   120.00000000
_symmetry_Int_Tables_number   1
_chemical_formula_structural   KMgIn(MoO4)3
_chemical_formula_sum   'K6 Mg6 In6 Mo18 O72'
_cell_volume   2016.59895654
_cell_formula_units_Z   6
loop_
 _symmetry_equiv_pos_site_id
 _symmetry_equiv_pos_as_xyz
  1  'x, y, z'
loop_
 _atom_site_type_symbol
 _atom_site_label
 _atom_site_symmetry_multiplicity
 _atom_site_fract_x
 _atom_site_fract_y
 _atom_site_fract_z
 _atom_site_occupancy
  K  K0  1  0.33333333  0.66666667  0.16756867  1
  K  K1  1  0.00000000  0.00000000  0.00090200  1
  K  K2  1  0.00000000  0.00000000  0.50090200  1
  K  K3  1  0.66666667  0.33333333  0.33423533  1
  K  K4  1  0.66666667  0.33333333  0.83423533  1
  K  K5  1  0.33333333  0.66666667  0.66756867  1
  Mg  Mg6  1  0.00000000  0.00000000  0.14389700  1
  Mg  Mg7  1  0.33333333  0.66666667  0.31056367  1
  Mg  Mg8  1  0.66666667  0.33333333  0.47723033  1
  Mg  Mg9  1  0.00000000  0.00000000  0.64389700  1
  Mg  Mg10  1  0.33333333  0.66666667  0.81056367  1
  Mg  Mg11  1  0.66666667  0.33333333  0.97723033  1
  In  In12  1  0.33333333  0.66666667  0.02244167  1
  In  In13  1  0.66666667  0.33333333  0.18910833  1
  In  In14  1  0.00000000  0.00000000  0.35577500  1
  In  In15  1  0.33333333  0.66666667  0.52244167  1
  In  In16  1  0.66666667  0.33333333  0.68910833  1
  In  In17  1  0.00000000  0.00000000  0.85577500  1
  Mo  Mo18  1  0.37822500  0.04814600  0.08257500  1
  Mo  Mo19  1  0.66992100  0.62177500  0.08257500  1
  Mo  Mo20  1  0.71155833  0.99674567  0.24924167  1
  Mo  Mo21  1  0.95185400  0.33007900  0.08257500  1
  Mo  Mo22  1  0.00325433  0.71481267  0.24924167  1
  Mo  Mo23  1  0.28518733  0.28844167  0.24924167  1
  Mo  Mo24  1  0.04489167  0.38147933  0.41590833  1
  Mo  Mo25  1  0.33658767  0.95510833  0.41590833  1
  Mo  Mo26  1  0.37822500  0.33007900  0.58257500  1
  Mo  Mo27  1  0.61852067  0.66341233  0.41590833  1
  Mo  Mo28  1  0.66992100  0.04814600  0.58257500  1
  Mo  Mo29  1  0.95185400  0.62177500  0.58257500  1
  Mo  Mo30  1  0.71155833  0.71481267  0.74924167  1
  Mo  Mo31  1  0.00325433  0.28844167  0.74924167  1
  Mo  Mo32  1  0.04489167  0.66341233  0.91590833  1
  Mo  Mo33  1  0.28518733  0.99674567  0.74924167  1
  Mo  Mo34  1  0.33658767  0.38147933  0.91590833  1
  Mo  Mo35  1  0.61852067  0.95510833  0.91590833  1
  O  O36  1  0.49784367  0.13468133  0.14191833  1
  O  O37  1  0.19865200  0.16882300  0.30858500  1
  O  O38  1  0.18604233  0.02772567  0.09092667  1
  O  O39  1  0.49481900  0.64196200  0.07679500  1
  O  O40  1  0.84168333  0.81395767  0.09092667  1
  O  O41  1  0.69137133  0.17184767  0.24346167  1
  O  O42  1  0.69570433  0.52840467  0.02425367  1
  O  O43  1  0.63683767  0.50215633  0.14191833  1
  O  O44  1  0.35803800  0.85285700  0.07679500  1
  O  O45  1  0.83117700  0.02982900  0.30858500  1
  O  O46  1  0.80492867  0.97096233  0.19092033  1
  O  O47  1  0.51937567  0.82498333  0.25759333  1
  O  O48  1  0.14714300  0.50518100  0.07679500  1
  O  O49  1  0.86531867  0.36316233  0.14191833  1
  O  O50  1  0.83270033  0.30429567  0.02425367  1
  O  O51  1  0.30560767  0.48062433  0.25759333  1
  O  O52  1  0.02903767  0.83396633  0.19092033  1
  O  O53  1  0.97017100  0.80134800  0.30858500  1
  O  O54  1  0.97227433  0.15831667  0.09092667  1
  O  O55  1  0.82815233  0.51952367  0.24346167  1
  O  O56  1  0.17501667  0.69439233  0.25759333  1
  O  O57  1  0.48047633  0.30862867  0.24346167  1
  O  O58  1  0.47159533  0.16729967  0.02425367  1
  O  O59  1  0.16603367  0.19507133  0.19092033  1
  O  O60  1  0.16451033  0.46801467  0.47525167  1
  O  O61  1  0.86531867  0.50215633  0.64191833  1
  O  O62  1  0.85270900  0.36105900  0.42426000  1
  O  O63  1  0.16148567  0.97529533  0.41012833  1
  O  O64  1  0.50835000  0.14729100  0.42426000  1
  O  O65  1  0.35803800  0.50518100  0.57679500  1
  O  O66  1  0.36237100  0.86173800  0.35758700  1
  O  O67  1  0.30350433  0.83548967  0.47525167  1
  O  O68  1  0.02470467  0.18619033  0.41012833  1
  O  O69  1  0.49784367  0.36316233  0.64191833  1
  O  O70  1  0.47159533  0.30429567  0.52425367  1
  O  O71  1  0.18604233  0.15831667  0.59092667  1
  O  O72  1  0.81380967  0.83851433  0.41012833  1
  O  O73  1  0.53198533  0.69649567  0.47525167  1
  O  O74  1  0.49936700  0.63762900  0.35758700  1
  O  O75  1  0.97227433  0.81395767  0.59092667  1
  O  O76  1  0.69570433  0.16729967  0.52425367  1
  O  O77  1  0.63683767  0.13468133  0.64191833  1
  O  O78  1  0.63894100  0.49165000  0.42426000  1
  O  O79  1  0.49481900  0.85285700  0.57679500  1
  O  O80  1  0.84168333  0.02772567  0.59092667  1
  O  O81  1  0.14714300  0.64196200  0.57679500  1
  O  O82  1  0.13826200  0.50063300  0.35758700  1
  O  O83  1  0.83270033  0.52840467  0.52425367  1
  O  O84  1  0.83117700  0.80134800  0.80858500  1
  O  O85  1  0.53198533  0.83548967  0.97525167  1
  O  O86  1  0.51937567  0.69439233  0.75759333  1
  O  O87  1  0.82815233  0.30862867  0.74346167  1
  O  O88  1  0.17501667  0.48062433  0.75759333  1
  O  O89  1  0.02470467  0.83851433  0.91012833  1
  O  O90  1  0.02903767  0.19507133  0.69092033  1
  O  O91  1  0.97017100  0.16882300  0.80858500  1
  O  O92  1  0.69137133  0.51952367  0.74346167  1
  O  O93  1  0.16451033  0.69649567  0.97525167  1
  O  O94  1  0.13826200  0.63762900  0.85758700  1
  O  O95  1  0.85270900  0.49165000  0.92426000  1
  O  O96  1  0.48047633  0.17184767  0.74346167  1
  O  O97  1  0.19865200  0.02982900  0.80858500  1
  O  O98  1  0.16603367  0.97096233  0.69092033  1
  O  O99  1  0.63894100  0.14729100  0.92426000  1
  O  O100  1  0.36237100  0.50063300  0.85758700  1
  O  O101  1  0.30350433  0.46801467  0.97525167  1
  O  O102  1  0.30560767  0.82498333  0.75759333  1
  O  O103  1  0.16148567  0.18619033  0.91012833  1
  O  O104  1  0.50835000  0.36105900  0.92426000  1
  O  O105  1  0.81380967  0.97529533  0.91012833  1
  O  O106  1  0.80492867  0.83396633  0.69092033  1
  O  O107  1  0.49936700  0.86173800  0.85758700  1
