# generated using pymatgen
data_K4Mo3H4O17
_symmetry_space_group_name_H-M   'P 1'
_cell_length_a   8.61007700
_cell_length_b   8.65902870
_cell_length_c   12.47728139
_cell_angle_alpha   103.22016719
_cell_angle_beta   104.41400664
_cell_angle_gamma   103.78991577
_symmetry_Int_Tables_number   1
_chemical_formula_structural   K4Mo3H4O17
_chemical_formula_sum   'K8 Mo6 H8 O34'
_cell_volume   832.95886548
_cell_formula_units_Z   2
loop_
 _symmetry_equiv_pos_site_id
 _symmetry_equiv_pos_as_xyz
  1  'x, y, z'
loop_
 _atom_site_type_symbol
 _atom_site_label
 _atom_site_symmetry_multiplicity
 _atom_site_fract_x
 _atom_site_fract_y
 _atom_site_fract_z
 _atom_site_occupancy
  K  K0  1  0.43404600  0.69618300  0.57569000  1
  K  K1  1  0.56595400  0.30381700  0.42431000  1
  K  K2  1  0.76543100  0.44272800  0.03875200  1
  K  K3  1  0.23456900  0.55727200  0.96124800  1
  K  K4  1  0.15793600  0.02531100  0.91617200  1
  K  K5  1  0.84206400  0.97468900  0.08382800  1
  K  K6  1  0.92652700  0.76499900  0.52128800  1
  K  K7  1  0.07347300  0.23500100  0.47871200  1
  Mo  Mo8  1  0.77125700  0.58451100  0.77433400  1
  Mo  Mo9  1  0.22874300  0.41548900  0.22566600  1
  Mo  Mo10  1  0.79937800  0.14196700  0.73856300  1
  Mo  Mo11  1  0.20062200  0.85803300  0.26143700  1
  Mo  Mo12  1  0.41344100  0.18954300  0.72791700  1
  Mo  Mo13  1  0.58655900  0.81045700  0.27208300  1
  H  H14  1  0.20266300  0.67358000  0.70588200  1
  H  H15  1  0.79733700  0.32642000  0.29411800  1
  H  H16  1  0.03975300  0.52480800  0.64595500  1
  H  H17  1  0.96024700  0.47519200  0.35404500  1
  H  H18  1  0.50198400  0.76695100  0.83393300  1
  H  H19  1  0.49801600  0.23304900  0.16606700  1
  H  H20  1  0.41162900  0.84464400  0.91436400  1
  H  H21  1  0.58837100  0.15535600  0.08563600  1
  O  O22  1  0.82527700  0.15686200  0.90678500  1
  O  O23  1  0.17472300  0.84313800  0.09321500  1
  O  O24  1  0.97968900  0.25510800  0.89235300  1
  O  O25  1  0.02031100  0.74489200  0.10764700  1
  O  O26  1  0.93549500  0.28865800  0.67074800  1
  O  O27  1  0.06450500  0.71134200  0.32925200  1
  O  O28  1  0.76445000  0.19414500  0.58851700  1
  O  O29  1  0.23555000  0.80585500  0.41148300  1
  O  O30  1  0.46950200  0.19221600  0.89725500  1
  O  O31  1  0.53049800  0.80778400  0.10274500  1
  O  O32  1  0.40391800  0.32908700  0.87494400  1
  O  O33  1  0.59608200  0.67091300  0.12505600  1
  O  O34  1  0.37432000  0.36923800  0.66098200  1
  O  O35  1  0.62568000  0.63076200  0.33901800  1
  O  O36  1  0.41600300  0.24284100  0.58142900  1
  O  O37  1  0.58399700  0.75715900  0.41857100  1
  O  O38  1  0.70275100  0.37338300  0.79303000  1
  O  O39  1  0.29724900  0.62661700  0.20697000  1
  O  O40  1  0.55357900  0.04683000  0.69922800  1
  O  O41  1  0.44642100  0.95317000  0.30077200  1
  O  O42  1  0.85124100  0.95940700  0.70127000  1
  O  O43  1  0.14875900  0.04059300  0.29873000  1
  O  O44  1  0.21251300  0.04425400  0.67564800  1
  O  O45  1  0.78748700  0.95574600  0.32435200  1
  O  O46  1  0.67900900  0.71924100  0.85136400  1
  O  O47  1  0.32099100  0.28075900  0.14863600  1
  O  O48  1  0.99473400  0.66996700  0.83422600  1
  O  O49  1  0.00526600  0.33003300  0.16577400  1
  O  O50  1  0.71165500  0.57298700  0.62490700  1
  O  O51  1  0.28834500  0.42701300  0.37509300  1
  O  O52  1  0.12673600  0.60067400  0.62792900  1
  O  O53  1  0.87326400  0.39932600  0.37207100  1
  O  O54  1  0.39202100  0.78963000  0.83297500  1
  O  O55  1  0.60797900  0.21037000  0.16702500  1
