# generated using pymatgen
data_SrLa2Cl8
_symmetry_space_group_name_H-M   'P 1'
_cell_length_a   13.44864200
_cell_length_b   13.44864200
_cell_length_c   7.52601200
_cell_angle_alpha   90.00000000
_cell_angle_beta   90.00000000
_cell_angle_gamma   90.00000000
_symmetry_Int_Tables_number   1
_chemical_formula_structural   SrLa2Cl8
_chemical_formula_sum   'Sr4 La8 Cl32'
_cell_volume   1361.19947299
_cell_formula_units_Z   4
loop_
 _symmetry_equiv_pos_site_id
 _symmetry_equiv_pos_as_xyz
  1  'x, y, z'
loop_
 _atom_site_type_symbol
 _atom_site_label
 _atom_site_symmetry_multiplicity
 _atom_site_fract_x
 _atom_site_fract_y
 _atom_site_fract_z
 _atom_site_occupancy
  Sr  Sr0  1  0.00000000  0.00000000  0.00000000  1
  Sr  Sr1  1  0.50000000  0.00000000  0.75000000  1
  Sr  Sr2  1  0.50000000  0.50000000  0.50000000  1
  Sr  Sr3  1  0.00000000  0.50000000  0.25000000  1
  La  La4  1  0.36825750  0.28938750  0.05334750  1
  La  La5  1  0.78938750  0.13174250  0.44665250  1
  La  La6  1  0.21061250  0.86825750  0.44665250  1
  La  La7  1  0.63174250  0.71061250  0.05334750  1
  La  La8  1  0.86825750  0.78938750  0.55334750  1
  La  La9  1  0.28938750  0.63174250  0.94665250  1
  La  La10  1  0.71061250  0.36825750  0.94665250  1
  La  La11  1  0.13174250  0.21061250  0.55334750  1
  Cl  Cl12  1  0.54578100  0.35883500  0.22607200  1
  Cl  Cl13  1  0.53106050  0.27293550  0.80330950  1
  Cl  Cl14  1  0.32481800  0.24552800  0.42172700  1
  Cl  Cl15  1  0.74552800  0.17518200  0.07827300  1
  Cl  Cl16  1  0.39659500  0.08926000  0.04455700  1
  Cl  Cl17  1  0.58926000  0.10340500  0.45544300  1
  Cl  Cl18  1  0.22706450  0.03106050  0.69669050  1
  Cl  Cl19  1  0.14116500  0.04578100  0.27392800  1
  Cl  Cl20  1  0.85883500  0.95421900  0.27392800  1
  Cl  Cl21  1  0.77293550  0.96893950  0.69669050  1
  Cl  Cl22  1  0.41074000  0.89659500  0.45544300  1
  Cl  Cl23  1  0.60340500  0.91074000  0.04455700  1
  Cl  Cl24  1  0.25447200  0.82481800  0.07827300  1
  Cl  Cl25  1  0.67518200  0.75447200  0.42172700  1
  Cl  Cl26  1  0.46893950  0.72706450  0.80330950  1
  Cl  Cl27  1  0.45421900  0.64116500  0.22607200  1
  Cl  Cl28  1  0.04578100  0.85883500  0.72607200  1
  Cl  Cl29  1  0.03106050  0.77293550  0.30330950  1
  Cl  Cl30  1  0.82481800  0.74552800  0.92172700  1
  Cl  Cl31  1  0.24552800  0.67518200  0.57827300  1
  Cl  Cl32  1  0.89659500  0.58926000  0.54455700  1
  Cl  Cl33  1  0.08926000  0.60340500  0.95544300  1
  Cl  Cl34  1  0.72706450  0.53106050  0.19669050  1
  Cl  Cl35  1  0.64116500  0.54578100  0.77392800  1
  Cl  Cl36  1  0.35883500  0.45421900  0.77392800  1
  Cl  Cl37  1  0.27293550  0.46893950  0.19669050  1
  Cl  Cl38  1  0.91074000  0.39659500  0.95544300  1
  Cl  Cl39  1  0.10340500  0.41074000  0.54455700  1
  Cl  Cl40  1  0.75447200  0.32481800  0.57827300  1
  Cl  Cl41  1  0.17518200  0.25447200  0.92172700  1
  Cl  Cl42  1  0.96893950  0.22706450  0.30330950  1
  Cl  Cl43  1  0.95421900  0.14116500  0.72607200  1
