# generated using pymatgen
data_ZnH12C6S2(N5O)2
_symmetry_space_group_name_H-M   'P 1'
_cell_length_a   19.47078600
_cell_length_b   4.75682400
_cell_length_c   18.73689901
_cell_angle_alpha   90.00000000
_cell_angle_beta   112.98661737
_cell_angle_gamma   90.00000000
_symmetry_Int_Tables_number   1
_chemical_formula_structural   ZnH12C6S2(N5O)2
_chemical_formula_sum   'Zn4 H48 C24 S8 N40 O8'
_cell_volume   1597.59763669
_cell_formula_units_Z   4
loop_
 _symmetry_equiv_pos_site_id
 _symmetry_equiv_pos_as_xyz
  1  'x, y, z'
loop_
 _atom_site_type_symbol
 _atom_site_label
 _atom_site_symmetry_multiplicity
 _atom_site_fract_x
 _atom_site_fract_y
 _atom_site_fract_z
 _atom_site_occupancy
  Zn  Zn0  1  0.00000000  0.33335300  0.25000000  1
  Zn  Zn1  1  0.00000000  0.66664700  0.75000000  1
  Zn  Zn2  1  0.50000000  0.83335300  0.25000000  1
  Zn  Zn3  1  0.50000000  0.16664700  0.75000000  1
  H  H4  1  0.11920500  0.72409600  0.95875800  1
  H  H5  1  0.88079500  0.72409600  0.54124200  1
  H  H6  1  0.88079500  0.27590400  0.04124200  1
  H  H7  1  0.11920500  0.27590400  0.45875800  1
  H  H8  1  0.04331700  0.54153800  0.96474900  1
  H  H9  1  0.95668300  0.54153800  0.53525100  1
  H  H10  1  0.95668300  0.45846200  0.03525100  1
  H  H11  1  0.04331700  0.45846200  0.46474900  1
  H  H12  1  0.68041000  0.56127200  0.04843000  1
  H  H13  1  0.81959000  0.06127200  0.45157000  1
  H  H14  1  0.31959000  0.43872800  0.95157000  1
  H  H15  1  0.18041000  0.93872800  0.54843000  1
  H  H16  1  0.65367700  0.64155000  0.12511000  1
  H  H17  1  0.84632300  0.14155000  0.37489000  1
  H  H18  1  0.34632300  0.35845000  0.87489000  1
  H  H19  1  0.15367700  0.85845000  0.62511000  1
  H  H20  1  0.67734600  0.79827100  0.26276600  1
  H  H21  1  0.82265400  0.29827100  0.23723400  1
  H  H22  1  0.32265400  0.20172900  0.73723400  1
  H  H23  1  0.17734600  0.70172900  0.76276600  1
  H  H24  1  0.73421450  0.96744450  0.23900000  1
  H  H25  1  0.76578550  0.46744450  0.26100000  1
  H  H26  1  0.26578550  0.03255550  0.76100000  1
  H  H27  1  0.23421450  0.53255550  0.73900000  1
  H  H28  1  0.61920500  0.22409600  0.95875800  1
  H  H29  1  0.38079500  0.22409600  0.54124200  1
  H  H30  1  0.38079500  0.77590400  0.04124200  1
  H  H31  1  0.61920500  0.77590400  0.45875800  1
  H  H32  1  0.54331700  0.04153800  0.96474900  1
  H  H33  1  0.45668300  0.04153800  0.53525100  1
  H  H34  1  0.45668300  0.95846200  0.03525100  1
  H  H35  1  0.54331700  0.95846200  0.46474900  1
  H  H36  1  0.18041000  0.06127200  0.04843000  1
  H  H37  1  0.31959000  0.56127200  0.45157000  1
  H  H38  1  0.81959000  0.93872800  0.95157000  1
  H  H39  1  0.68041000  0.43872800  0.54843000  1
  H  H40  1  0.15367700  0.14155000  0.12511000  1
  H  H41  1  0.34632300  0.64155000  0.37489000  1
  H  H42  1  0.84632300  0.85845000  0.87489000  1
  H  H43  1  0.65367700  0.35845000  0.62511000  1
  H  H44  1  0.17734600  0.29827100  0.26276600  1
  H  H45  1  0.32265400  0.79827100  0.23723400  1
  H  H46  1  0.82265400  0.70172900  0.73723400  1
  H  H47  1  0.67734600  0.20172900  0.76276600  1
  H  H48  1  0.23421450  0.46744450  0.23900000  1
  H  H49  1  0.26578550  0.96744450  0.26100000  1
  H  H50  1  0.76578550  0.53255550  0.76100000  1
  H  H51  1  0.73421450  0.03255550  0.73900000  1
  C  C52  1  0.04021800  0.94091700  0.13644000  1
  C  C53  1  0.95978200  0.94091700  0.36356000  1
  C  C54  1  0.95978200  0.05908300  0.86356000  1
  C  C55  1  0.04021800  0.05908300  0.63644000  1
  C  C56  1  0.59361300  0.32585500  0.05084500  1
  C  C57  1  0.90638700  0.82585500  0.44915500  1
  C  C58  1  0.40638700  0.67414500  0.94915500  1
  C  C59  1  0.09361300  0.17414500  0.55084500  1
  C  C60  1  0.86858850  0.73045250  0.14731200  1
  C  C61  1  0.13141150  0.73045250  0.35268800  1
  C  C62  1  0.13141150  0.26954750  0.85268800  1
  C  C63  1  0.86858850  0.26954750  0.64731200  1
  C  C64  1  0.54021800  0.44091700  0.13644000  1
  C  C65  1  0.45978200  0.44091700  0.36356000  1
  C  C66  1  0.45978200  0.55908300  0.86356000  1
  C  C67  1  0.54021800  0.55908300  0.63644000  1
  C  C68  1  0.09361300  0.82585500  0.05084500  1
  C  C69  1  0.40638700  0.32585500  0.44915500  1
  C  C70  1  0.90638700  0.17414500  0.94915500  1
  C  C71  1  0.59361300  0.67414500  0.55084500  1
  C  C72  1  0.36858850  0.23045250  0.14731200  1
  C  C73  1  0.63141150  0.23045250  0.35268800  1
  C  C74  1  0.63141150  0.76954750  0.85268800  1
  C  C75  1  0.36858850  0.76954750  0.64731200  1
  S  S76  1  0.80395850  0.94957450  0.09795400  1
  S  S77  1  0.19604150  0.94957450  0.40204600  1
  S  S78  1  0.19604150  0.05042550  0.90204600  1
  S  S79  1  0.80395850  0.05042550  0.59795400  1
  S  S80  1  0.30395850  0.44957450  0.09795400  1
  S  S81  1  0.69604150  0.44957450  0.40204600  1
  S  S82  1  0.69604150  0.55042550  0.90204600  1
  S  S83  1  0.30395850  0.55042550  0.59795400  1
  N  N84  1  0.91523150  0.56681650  0.18333000  1
  N  N85  1  0.08476850  0.56681650  0.31667000  1
  N  N86  1  0.08476850  0.43318350  0.81667000  1
  N  N87  1  0.91523150  0.43318350  0.68333000  1
  N  N88  1  0.03284550  0.08707050  0.18367700  1
  N  N89  1  0.96715450  0.08707050  0.31632300  1
  N  N90  1  0.96715450  0.91292950  0.81632300  1
  N  N91  1  0.03284550  0.91292950  0.68367700  1
  N  N92  1  0.54422950  0.27410850  0.08393600  1
  N  N93  1  0.95577050  0.77410850  0.41606400  1
  N  N94  1  0.45577050  0.72589150  0.91606400  1
  N  N95  1  0.04422950  0.22589150  0.58393600  1
  N  N96  1  0.08960300  0.66452600  0.99071800  1
  N  N97  1  0.91039700  0.66452600  0.50928200  1
  N  N98  1  0.91039700  0.33547400  0.00928200  1
  N  N99  1  0.08960300  0.33547400  0.49071800  1
  N  N100  1  0.64529900  0.52685500  0.07598000  1
  N  N101  1  0.85470100  0.02685500  0.42402000  1
  N  N102  1  0.35470100  0.47314500  0.92402000  1
  N  N103  1  0.14529900  0.97314500  0.57598000  1
  N  N104  1  0.41523150  0.06681650  0.18333000  1
  N  N105  1  0.58476850  0.06681650  0.31667000  1
  N  N106  1  0.58476850  0.93318350  0.81667000  1
  N  N107  1  0.41523150  0.93318350  0.68333000  1
  N  N108  1  0.53284550  0.58707050  0.18367700  1
  N  N109  1  0.46715450  0.58707050  0.31632300  1
  N  N110  1  0.46715450  0.41292950  0.81632300  1
  N  N111  1  0.53284550  0.41292950  0.68367700  1
  N  N112  1  0.04422950  0.77410850  0.08393600  1
  N  N113  1  0.45577050  0.27410850  0.41606400  1
  N  N114  1  0.95577050  0.22589150  0.91606400  1
  N  N115  1  0.54422950  0.72589150  0.58393600  1
  N  N116  1  0.58960300  0.16452600  0.99071800  1
  N  N117  1  0.41039700  0.16452600  0.50928200  1
  N  N118  1  0.41039700  0.83547400  0.00928200  1
  N  N119  1  0.58960300  0.83547400  0.49071800  1
  N  N120  1  0.14529900  0.02685500  0.07598000  1
  N  N121  1  0.35470100  0.52685500  0.42402000  1
  N  N122  1  0.85470100  0.97314500  0.92402000  1
  N  N123  1  0.64529900  0.47314500  0.57598000  1
  O  O124  1  0.70597250  0.78802050  0.23005200  1
  O  O125  1  0.79402750  0.28802050  0.26994800  1
  O  O126  1  0.29402750  0.21197950  0.76994800  1
  O  O127  1  0.20597250  0.71197950  0.73005200  1
  O  O128  1  0.20597250  0.28802050  0.23005200  1
  O  O129  1  0.29402750  0.78802050  0.26994800  1
  O  O130  1  0.79402750  0.71197950  0.76994800  1
  O  O131  1  0.70597250  0.21197950  0.73005200  1
