# generated using pymatgen
data_Li7Bi(BO4)2
_symmetry_space_group_name_H-M   'P 1'
_cell_length_a   14.75246200
_cell_length_b   6.40168400
_cell_length_c   7.53857815
_cell_angle_alpha   90.00000000
_cell_angle_beta   90.98020324
_cell_angle_gamma   90.00000000
_symmetry_Int_Tables_number   1
_chemical_formula_structural   Li7Bi(BO4)2
_chemical_formula_sum   'Li28 Bi4 B8 O32'
_cell_volume   711.84366108
_cell_formula_units_Z   4
loop_
 _symmetry_equiv_pos_site_id
 _symmetry_equiv_pos_as_xyz
  1  'x, y, z'
loop_
 _atom_site_type_symbol
 _atom_site_label
 _atom_site_symmetry_multiplicity
 _atom_site_fract_x
 _atom_site_fract_y
 _atom_site_fract_z
 _atom_site_occupancy
  Li  Li0  1  0.56939300  0.24383400  0.36930400  1
  Li  Li1  1  0.56939300  0.75616600  0.36930400  1
  Li  Li2  1  0.57544400  0.50000000  0.72328100  1
  Li  Li3  1  0.64297500  0.00000000  0.15030500  1
  Li  Li4  1  0.68124400  0.25044800  0.87412900  1
  Li  Li5  1  0.68124400  0.74955200  0.87412900  1
  Li  Li6  1  0.81875600  0.75044800  0.12587100  1
  Li  Li7  1  0.81875600  0.24955200  0.12587100  1
  Li  Li8  1  0.85702500  0.50000000  0.84969500  1
  Li  Li9  1  0.92455600  0.00000000  0.27671900  1
  Li  Li10  1  0.93060700  0.25616600  0.63069600  1
  Li  Li11  1  0.93060700  0.74383400  0.63069600  1
  Li  Li12  1  0.00000000  0.00000000  0.00000000  1
  Li  Li13  1  0.00000000  0.50000000  0.00000000  1
  Li  Li14  1  0.06939300  0.74383400  0.36930400  1
  Li  Li15  1  0.06939300  0.25616600  0.36930400  1
  Li  Li16  1  0.07544400  0.00000000  0.72328100  1
  Li  Li17  1  0.14297500  0.50000000  0.15030500  1
  Li  Li18  1  0.18124400  0.75044800  0.87412900  1
  Li  Li19  1  0.18124400  0.24955200  0.87412900  1
  Li  Li20  1  0.31875600  0.25044800  0.12587100  1
  Li  Li21  1  0.31875600  0.74955200  0.12587100  1
  Li  Li22  1  0.35702500  0.00000000  0.84969500  1
  Li  Li23  1  0.42455600  0.50000000  0.27671900  1
  Li  Li24  1  0.43060700  0.75616600  0.63069600  1
  Li  Li25  1  0.43060700  0.24383400  0.63069600  1
  Li  Li26  1  0.50000000  0.50000000  0.00000000  1
  Li  Li27  1  0.50000000  0.00000000  0.00000000  1
  Bi  Bi28  1  0.76508400  0.50000000  0.43571900  1
  Bi  Bi29  1  0.73491600  0.00000000  0.56428100  1
  Bi  Bi30  1  0.26508400  0.00000000  0.43571900  1
  Bi  Bi31  1  0.23491600  0.50000000  0.56428100  1
  B  B32  1  0.57264700  0.00000000  0.73452100  1
  B  B33  1  0.63756400  0.50000000  0.15489400  1
  B  B34  1  0.86243600  0.00000000  0.84510600  1
  B  B35  1  0.92735300  0.50000000  0.26547900  1
  B  B36  1  0.07264700  0.50000000  0.73452100  1
  B  B37  1  0.13756400  0.00000000  0.15489400  1
  B  B38  1  0.36243600  0.50000000  0.84510600  1
  B  B39  1  0.42735300  0.00000000  0.26547900  1
  O  O40  1  0.52386200  0.00000000  0.25969100  1
  O  O41  1  0.55022400  0.50000000  0.24373000  1
  O  O42  1  0.61318150  0.19499850  0.62781000  1
  O  O43  1  0.61318150  0.80500150  0.62781000  1
  O  O44  1  0.61794200  0.00000000  0.90809000  1
  O  O45  1  0.63228600  0.50000000  0.96423700  1
  O  O46  1  0.69461250  0.30530750  0.22751200  1
  O  O47  1  0.69461250  0.69469250  0.22751200  1
  O  O48  1  0.80538750  0.80530750  0.77248800  1
  O  O49  1  0.80538750  0.19469250  0.77248800  1
  O  O50  1  0.86771400  0.00000000  0.03576300  1
  O  O51  1  0.88205800  0.50000000  0.09191000  1
  O  O52  1  0.88681850  0.69499850  0.37219000  1
  O  O53  1  0.88681850  0.30500150  0.37219000  1
  O  O54  1  0.94977600  0.00000000  0.75627000  1
  O  O55  1  0.97613800  0.50000000  0.74030900  1
  O  O56  1  0.02386200  0.50000000  0.25969100  1
  O  O57  1  0.05022400  0.00000000  0.24373000  1
  O  O58  1  0.11318150  0.69499850  0.62781000  1
  O  O59  1  0.11318150  0.30500150  0.62781000  1
  O  O60  1  0.11794200  0.50000000  0.90809000  1
  O  O61  1  0.13228600  0.00000000  0.96423700  1
  O  O62  1  0.19461250  0.80530750  0.22751200  1
  O  O63  1  0.19461250  0.19469250  0.22751200  1
  O  O64  1  0.30538750  0.30530750  0.77248800  1
  O  O65  1  0.30538750  0.69469250  0.77248800  1
  O  O66  1  0.36771400  0.50000000  0.03576300  1
  O  O67  1  0.38205800  0.00000000  0.09191000  1
  O  O68  1  0.38681850  0.19499850  0.37219000  1
  O  O69  1  0.38681850  0.80500150  0.37219000  1
  O  O70  1  0.44977600  0.50000000  0.75627000  1
  O  O71  1  0.47613800  0.00000000  0.74030900  1
