# generated using pymatgen
data_Ti(FeO2)2
_symmetry_space_group_name_H-M   'P 1'
_cell_length_a   10.53297078
_cell_length_b   6.20361214
_cell_length_c   10.41893991
_cell_angle_alpha   90.00000000
_cell_angle_beta   107.55221091
_cell_angle_gamma   90.00000000
_symmetry_Int_Tables_number   1
_chemical_formula_structural   Ti(FeO2)2
_chemical_formula_sum   'Ti8 Fe16 O32'
_cell_volume   649.10293517
_cell_formula_units_Z   8
loop_
 _symmetry_equiv_pos_site_id
 _symmetry_equiv_pos_as_xyz
  1  'x, y, z'
loop_
 _atom_site_type_symbol
 _atom_site_label
 _atom_site_symmetry_multiplicity
 _atom_site_fract_x
 _atom_site_fract_y
 _atom_site_fract_z
 _atom_site_occupancy
  Ti  Ti0  1  0.00000000  0.73781950  0.75000000  1
  Ti  Ti1  1  0.00000000  0.26218050  0.25000000  1
  Ti  Ti2  1  0.00000000  0.00000000  0.50000000  1
  Ti  Ti3  1  0.00000000  0.00000000  0.00000000  1
  Ti  Ti4  1  0.50000000  0.23781950  0.75000000  1
  Ti  Ti5  1  0.50000000  0.76218050  0.25000000  1
  Ti  Ti6  1  0.50000000  0.50000000  0.50000000  1
  Ti  Ti7  1  0.50000000  0.50000000  0.00000000  1
  Fe  Fe8  1  0.75000000  0.25000000  0.00000000  1
  Fe  Fe9  1  0.00000000  0.50000000  0.00000000  1
  Fe  Fe10  1  0.31543500  0.25062550  0.19158200  1
  Fe  Fe11  1  0.18456500  0.24937450  0.80841800  1
  Fe  Fe12  1  0.25000000  0.25000000  0.50000000  1
  Fe  Fe13  1  0.00000000  0.50000000  0.50000000  1
  Fe  Fe14  1  0.81543500  0.24937450  0.69158200  1
  Fe  Fe15  1  0.68456500  0.25062550  0.30841800  1
  Fe  Fe16  1  0.25000000  0.75000000  0.00000000  1
  Fe  Fe17  1  0.50000000  0.00000000  0.00000000  1
  Fe  Fe18  1  0.81543500  0.75062550  0.19158200  1
  Fe  Fe19  1  0.68456500  0.74937450  0.80841800  1
  Fe  Fe20  1  0.75000000  0.75000000  0.50000000  1
  Fe  Fe21  1  0.50000000  0.00000000  0.50000000  1
  Fe  Fe22  1  0.31543500  0.74937450  0.69158200  1
  Fe  Fe23  1  0.18456500  0.75062550  0.30841800  1
  O  O24  1  0.39139050  0.26021200  0.39612700  1
  O  O25  1  0.10860950  0.23978800  0.60387300  1
  O  O26  1  0.89139050  0.23978800  0.89612700  1
  O  O27  1  0.60860950  0.26021200  0.10387300  1
  O  O28  1  0.38910600  0.27612850  0.87642700  1
  O  O29  1  0.88910600  0.22387150  0.37642700  1
  O  O30  1  0.11089400  0.22387150  0.12357300  1
  O  O31  1  0.61089400  0.27612850  0.62357300  1
  O  O32  1  0.11686400  0.46407850  0.35983800  1
  O  O33  1  0.11686400  0.53592150  0.85983800  1
  O  O34  1  0.88313600  0.53592150  0.64016200  1
  O  O35  1  0.88313600  0.46407850  0.14016200  1
  O  O36  1  0.10867650  0.01401700  0.37583400  1
  O  O37  1  0.10867650  0.98598300  0.87583400  1
  O  O38  1  0.89132350  0.98598300  0.62416600  1
  O  O39  1  0.89132350  0.01401700  0.12416600  1
  O  O40  1  0.89139050  0.76021200  0.39612700  1
  O  O41  1  0.60860950  0.73978800  0.60387300  1
  O  O42  1  0.39139050  0.73978800  0.89612700  1
  O  O43  1  0.10860950  0.76021200  0.10387300  1
  O  O44  1  0.88910600  0.77612850  0.87642700  1
  O  O45  1  0.38910600  0.72387150  0.37642700  1
  O  O46  1  0.61089400  0.72387150  0.12357300  1
  O  O47  1  0.11089400  0.77612850  0.62357300  1
  O  O48  1  0.61686400  0.96407850  0.35983800  1
  O  O49  1  0.61686400  0.03592150  0.85983800  1
  O  O50  1  0.38313600  0.03592150  0.64016200  1
  O  O51  1  0.38313600  0.96407850  0.14016200  1
  O  O52  1  0.60867650  0.51401700  0.37583400  1
  O  O53  1  0.60867650  0.48598300  0.87583400  1
  O  O54  1  0.39132350  0.48598300  0.62416600  1
  O  O55  1  0.39132350  0.51401700  0.12416600  1
