# generated using pymatgen
data_Li6Hf2O7
_symmetry_space_group_name_H-M   'P 1'
_cell_length_a   10.45659200
_cell_length_b   5.99747000
_cell_length_c   10.20055626
_cell_angle_alpha   90.00000000
_cell_angle_beta   100.32631323
_cell_angle_gamma   90.00000000
_symmetry_Int_Tables_number   1
_chemical_formula_structural   Li6Hf2O7
_chemical_formula_sum   'Li24 Hf8 O28'
_cell_volume   629.34699821
_cell_formula_units_Z   4
loop_
 _symmetry_equiv_pos_site_id
 _symmetry_equiv_pos_as_xyz
  1  'x, y, z'
loop_
 _atom_site_type_symbol
 _atom_site_label
 _atom_site_symmetry_multiplicity
 _atom_site_fract_x
 _atom_site_fract_y
 _atom_site_fract_z
 _atom_site_occupancy
  Li  Li0  1  0.79314450  0.12941550  0.60478700  1
  Li  Li1  1  0.79314450  0.87058450  0.10478700  1
  Li  Li2  1  0.56243200  0.35599000  0.58520100  1
  Li  Li3  1  0.56637500  0.90212000  0.60325700  1
  Li  Li4  1  0.56243200  0.64401000  0.08520100  1
  Li  Li5  1  0.56637500  0.09788000  0.10325700  1
  Li  Li6  1  0.93362500  0.40212000  0.89674300  1
  Li  Li7  1  0.93756800  0.85599000  0.91479900  1
  Li  Li8  1  0.93362500  0.59788000  0.39674300  1
  Li  Li9  1  0.93756800  0.14401000  0.41479900  1
  Li  Li10  1  0.70685550  0.62941550  0.89521300  1
  Li  Li11  1  0.70685550  0.37058450  0.39521300  1
  Li  Li12  1  0.29314450  0.62941550  0.60478700  1
  Li  Li13  1  0.29314450  0.37058450  0.10478700  1
  Li  Li14  1  0.06243200  0.85599000  0.58520100  1
  Li  Li15  1  0.06637500  0.40212000  0.60325700  1
  Li  Li16  1  0.06243200  0.14401000  0.08520100  1
  Li  Li17  1  0.06637500  0.59788000  0.10325700  1
  Li  Li18  1  0.43362500  0.90212000  0.89674300  1
  Li  Li19  1  0.43756800  0.35599000  0.91479900  1
  Li  Li20  1  0.43362500  0.09788000  0.39674300  1
  Li  Li21  1  0.43756800  0.64401000  0.41479900  1
  Li  Li22  1  0.20685550  0.12941550  0.89521300  1
  Li  Li23  1  0.20685550  0.87058450  0.39521300  1
  Hf  Hf24  1  0.68362300  0.12291100  0.86474800  1
  Hf  Hf25  1  0.68362300  0.87708900  0.36474800  1
  Hf  Hf26  1  0.81637700  0.62291100  0.63525200  1
  Hf  Hf27  1  0.81637700  0.37708900  0.13525200  1
  Hf  Hf28  1  0.18362300  0.62291100  0.86474800  1
  Hf  Hf29  1  0.18362300  0.37708900  0.36474800  1
  Hf  Hf30  1  0.31637700  0.12291100  0.63525200  1
  Hf  Hf31  1  0.31637700  0.87708900  0.13525200  1
  O  O32  1  0.75012500  0.88844800  0.74547500  1
  O  O33  1  0.63399800  0.63356900  0.50224600  1
  O  O34  1  0.75012500  0.11155200  0.24547500  1
  O  O35  1  0.63399800  0.36643100  0.00224600  1
  O  O36  1  0.62195600  0.87923500  0.97646600  1
  O  O37  1  0.00000000  0.65012600  0.75000000  1
  O  O38  1  0.62195600  0.12076500  0.47646600  1
  O  O39  1  0.87804400  0.37923500  0.52353400  1
  O  O40  1  0.00000000  0.34987400  0.25000000  1
  O  O41  1  0.87804400  0.62076500  0.02353400  1
  O  O42  1  0.86600200  0.13356900  0.99775400  1
  O  O43  1  0.74987500  0.38844800  0.75452500  1
  O  O44  1  0.86600200  0.86643100  0.49775400  1
  O  O45  1  0.74987500  0.61155200  0.25452500  1
  O  O46  1  0.25012500  0.38844800  0.74547500  1
  O  O47  1  0.13399800  0.13356900  0.50224600  1
  O  O48  1  0.25012500  0.61155200  0.24547500  1
  O  O49  1  0.13399800  0.86643100  0.00224600  1
  O  O50  1  0.12195600  0.37923500  0.97646600  1
  O  O51  1  0.50000000  0.15012600  0.75000000  1
  O  O52  1  0.12195600  0.62076500  0.47646600  1
  O  O53  1  0.37804400  0.87923500  0.52353400  1
  O  O54  1  0.50000000  0.84987400  0.25000000  1
  O  O55  1  0.37804400  0.12076500  0.02353400  1
  O  O56  1  0.36600200  0.63356900  0.99775400  1
  O  O57  1  0.24987500  0.88844800  0.75452500  1
  O  O58  1  0.36600200  0.36643100  0.49775400  1
  O  O59  1  0.24987500  0.11155200  0.25452500  1
