# generated using pymatgen
data_Rb2CoO3
_symmetry_space_group_name_H-M   'P 1'
_cell_length_a   5.94517000
_cell_length_b   12.05587800
_cell_length_c   13.34539600
_cell_angle_alpha   90.00000000
_cell_angle_beta   90.00000000
_cell_angle_gamma   90.00000000
_symmetry_Int_Tables_number   1
_chemical_formula_structural   Rb2CoO3
_chemical_formula_sum   'Rb16 Co8 O24'
_cell_volume   956.52117197
_cell_formula_units_Z   8
loop_
 _symmetry_equiv_pos_site_id
 _symmetry_equiv_pos_as_xyz
  1  'x, y, z'
loop_
 _atom_site_type_symbol
 _atom_site_label
 _atom_site_symmetry_multiplicity
 _atom_site_fract_x
 _atom_site_fract_y
 _atom_site_fract_z
 _atom_site_occupancy
  Rb  Rb0  1  0.00000000  0.55901800  0.64044900  1
  Rb  Rb1  1  0.00000000  0.63654600  0.07630600  1
  Rb  Rb2  1  0.00000000  0.86345400  0.57630600  1
  Rb  Rb3  1  0.50000000  0.55901800  0.85955100  1
  Rb  Rb4  1  0.50000000  0.94098200  0.35955100  1
  Rb  Rb5  1  0.00000000  0.94098200  0.14044900  1
  Rb  Rb6  1  0.50000000  0.63654600  0.42369400  1
  Rb  Rb7  1  0.50000000  0.86345400  0.92369400  1
  Rb  Rb8  1  0.50000000  0.05901800  0.64044900  1
  Rb  Rb9  1  0.50000000  0.13654600  0.07630600  1
  Rb  Rb10  1  0.50000000  0.36345400  0.57630600  1
  Rb  Rb11  1  0.00000000  0.05901800  0.85955100  1
  Rb  Rb12  1  0.00000000  0.44098200  0.35955100  1
  Rb  Rb13  1  0.50000000  0.44098200  0.14044900  1
  Rb  Rb14  1  0.00000000  0.13654600  0.42369400  1
  Rb  Rb15  1  0.00000000  0.36345400  0.92369400  1
  Co  Co16  1  0.00000000  0.74343800  0.82931000  1
  Co  Co17  1  0.50000000  0.74343800  0.67069000  1
  Co  Co18  1  0.00000000  0.75656200  0.32931000  1
  Co  Co19  1  0.50000000  0.75656200  0.17069000  1
  Co  Co20  1  0.50000000  0.24343800  0.82931000  1
  Co  Co21  1  0.00000000  0.24343800  0.67069000  1
  Co  Co22  1  0.50000000  0.25656200  0.32931000  1
  Co  Co23  1  0.00000000  0.25656200  0.17069000  1
  O  O24  1  0.75000000  0.77892200  0.75000000  1
  O  O25  1  0.25000000  0.72107800  0.25000000  1
  O  O26  1  0.00000000  0.60066700  0.85988100  1
  O  O27  1  0.00000000  0.83161600  0.93592100  1
  O  O28  1  0.50000000  0.66838400  0.06407900  1
  O  O29  1  0.50000000  0.83161600  0.56407900  1
  O  O30  1  0.00000000  0.66838400  0.43592100  1
  O  O31  1  0.50000000  0.60066700  0.64011900  1
  O  O32  1  0.00000000  0.89933300  0.35988100  1
  O  O33  1  0.50000000  0.89933300  0.14011900  1
  O  O34  1  0.25000000  0.77892200  0.75000000  1
  O  O35  1  0.75000000  0.72107800  0.25000000  1
  O  O36  1  0.25000000  0.27892200  0.75000000  1
  O  O37  1  0.75000000  0.22107800  0.25000000  1
  O  O38  1  0.50000000  0.10066700  0.85988100  1
  O  O39  1  0.50000000  0.33161600  0.93592100  1
  O  O40  1  0.00000000  0.16838400  0.06407900  1
  O  O41  1  0.00000000  0.33161600  0.56407900  1
  O  O42  1  0.50000000  0.16838400  0.43592100  1
  O  O43  1  0.00000000  0.10066700  0.64011900  1
  O  O44  1  0.50000000  0.39933300  0.35988100  1
  O  O45  1  0.00000000  0.39933300  0.14011900  1
  O  O46  1  0.75000000  0.27892200  0.75000000  1
  O  O47  1  0.25000000  0.22107800  0.25000000  1
