# generated using pymatgen
data_Al2H12(SeO5)3
_symmetry_space_group_name_H-M   'P 1'
_cell_length_a   8.99765046
_cell_length_b   8.99765046
_cell_length_c   11.09387900
_cell_angle_alpha   90.00000000
_cell_angle_beta   90.00000000
_cell_angle_gamma   120.00000000
_symmetry_Int_Tables_number   1
_chemical_formula_structural   Al2H12(SeO5)3
_chemical_formula_sum   'Al4 H24 Se6 O30'
_cell_volume   777.80779536
_cell_formula_units_Z   2
loop_
 _symmetry_equiv_pos_site_id
 _symmetry_equiv_pos_as_xyz
  1  'x, y, z'
loop_
 _atom_site_type_symbol
 _atom_site_label
 _atom_site_symmetry_multiplicity
 _atom_site_fract_x
 _atom_site_fract_y
 _atom_site_fract_z
 _atom_site_occupancy
  Al  Al0  1  0.66666667  0.33333333  0.62446800  1
  Al  Al1  1  0.33333333  0.66666667  0.12446800  1
  Al  Al2  1  0.66666667  0.33333333  0.04182300  1
  Al  Al3  1  0.33333333  0.66666667  0.54182300  1
  H  H4  1  0.58407200  0.41067200  0.43145400  1
  H  H5  1  0.58932800  0.17340000  0.43145400  1
  H  H6  1  0.82660000  0.41592800  0.43145400  1
  H  H7  1  0.41067200  0.58407200  0.93145400  1
  H  H8  1  0.17340000  0.58932800  0.93145400  1
  H  H9  1  0.41592800  0.82660000  0.93145400  1
  H  H10  1  0.54449300  0.96259700  0.01172600  1
  H  H11  1  0.03740300  0.58189600  0.01172600  1
  H  H12  1  0.41810400  0.45550700  0.01172600  1
  H  H13  1  0.96259700  0.54449300  0.51172600  1
  H  H14  1  0.58189600  0.03740300  0.51172600  1
  H  H15  1  0.45550700  0.41810400  0.51172600  1
  H  H16  1  0.57833900  0.80023800  0.71037000  1
  H  H17  1  0.19976200  0.77810100  0.71037000  1
  H  H18  1  0.22189900  0.42166100  0.71037000  1
  H  H19  1  0.80023800  0.57833900  0.21037000  1
  H  H20  1  0.77810100  0.19976200  0.21037000  1
  H  H21  1  0.42166100  0.22189900  0.21037000  1
  H  H22  1  0.42355800  0.48762900  0.67905500  1
  H  H23  1  0.51237100  0.93592900  0.67905500  1
  H  H24  1  0.06407100  0.57644200  0.67905500  1
  H  H25  1  0.48762900  0.42355800  0.17905500  1
  H  H26  1  0.93592900  0.51237100  0.17905500  1
  H  H27  1  0.57644200  0.06407100  0.17905500  1
  Se  Se28  1  0.73635800  0.61860300  0.83066900  1
  Se  Se29  1  0.38139700  0.11775500  0.83066900  1
  Se  Se30  1  0.88224500  0.26364200  0.83066900  1
  Se  Se31  1  0.61860300  0.73635800  0.33066900  1
  Se  Se32  1  0.11775500  0.38139700  0.33066900  1
  Se  Se33  1  0.26364200  0.88224500  0.33066900  1
  O  O34  1  0.61831900  0.48291600  0.70917100  1
  O  O35  1  0.51708400  0.13540300  0.70917100  1
  O  O36  1  0.86459700  0.38168100  0.70917100  1
  O  O37  1  0.48291600  0.61831900  0.20917100  1
  O  O38  1  0.13540300  0.51708400  0.20917100  1
  O  O39  1  0.38168100  0.86459700  0.20917100  1
  O  O40  1  0.51109000  0.34757700  0.50022500  1
  O  O41  1  0.65242300  0.16351300  0.50022500  1
  O  O42  1  0.83648700  0.48891000  0.50022500  1
  O  O43  1  0.34757700  0.51109000  0.00022500  1
  O  O44  1  0.16351300  0.65242300  0.00022500  1
  O  O45  1  0.48891000  0.83648700  0.00022500  1
  O  O46  1  0.65836600  0.75316000  0.82505500  1
  O  O47  1  0.24684000  0.90520600  0.82505500  1
  O  O48  1  0.09479400  0.34163400  0.82505500  1
  O  O49  1  0.75316000  0.65836600  0.32505500  1
  O  O50  1  0.90520600  0.24684000  0.32505500  1
  O  O51  1  0.34163400  0.09479400  0.32505500  1
  O  O52  1  0.62114000  0.48377300  0.95209600  1
  O  O53  1  0.51622700  0.13736700  0.95209600  1
  O  O54  1  0.86263300  0.37886000  0.95209600  1
  O  O55  1  0.48377300  0.62114000  0.45209600  1
  O  O56  1  0.13736700  0.51622700  0.45209600  1
  O  O57  1  0.37886000  0.86263300  0.45209600  1
  O  O58  1  0.48164800  0.31661100  0.14774300  1
  O  O59  1  0.68338900  0.16503700  0.14774300  1
  O  O60  1  0.83496300  0.51835200  0.14774300  1
  O  O61  1  0.31661100  0.48164800  0.64774300  1
  O  O62  1  0.16503700  0.68338900  0.64774300  1
  O  O63  1  0.51835200  0.83496300  0.64774300  1
