# generated using pymatgen
data_Tm2WO6
_symmetry_space_group_name_H-M   'P 1'
_cell_length_a   5.54665100
_cell_length_b   10.49748300
_cell_length_c   16.03127700
_cell_angle_alpha   90.00000000
_cell_angle_beta   90.00000000
_cell_angle_gamma   90.00000000
_symmetry_Int_Tables_number   1
_chemical_formula_structural   Tm2WO6
_chemical_formula_sum   'Tm16 W8 O48'
_cell_volume   933.43512395
_cell_formula_units_Z   8
loop_
 _symmetry_equiv_pos_site_id
 _symmetry_equiv_pos_as_xyz
  1  'x, y, z'
loop_
 _atom_site_type_symbol
 _atom_site_label
 _atom_site_symmetry_multiplicity
 _atom_site_fract_x
 _atom_site_fract_y
 _atom_site_fract_z
 _atom_site_occupancy
  Tm  Tm0  1  0.89887800  0.64322900  0.93820500  1
  Tm  Tm1  1  0.39887800  0.85677100  0.93820500  1
  Tm  Tm2  1  0.95379200  0.85346600  0.77127400  1
  Tm  Tm3  1  0.45379200  0.64653400  0.77127400  1
  Tm  Tm4  1  0.95379200  0.35346600  0.72872600  1
  Tm  Tm5  1  0.45379200  0.14653400  0.72872600  1
  Tm  Tm6  1  0.39887800  0.35677100  0.56179500  1
  Tm  Tm7  1  0.89887800  0.14322900  0.56179500  1
  Tm  Tm8  1  0.10112200  0.85677100  0.43820500  1
  Tm  Tm9  1  0.60112200  0.64322900  0.43820500  1
  Tm  Tm10  1  0.54620800  0.85346600  0.27127400  1
  Tm  Tm11  1  0.04620800  0.64653400  0.27127400  1
  Tm  Tm12  1  0.54620800  0.35346600  0.22872600  1
  Tm  Tm13  1  0.04620800  0.14653400  0.22872600  1
  Tm  Tm14  1  0.10112200  0.35677100  0.06179500  1
  Tm  Tm15  1  0.60112200  0.14322900  0.06179500  1
  W  W16  1  0.38756400  0.38053400  0.88013000  1
  W  W17  1  0.88756400  0.11946600  0.88013000  1
  W  W18  1  0.38756400  0.88053400  0.61987000  1
  W  W19  1  0.88756400  0.61946600  0.61987000  1
  W  W20  1  0.11243600  0.38053400  0.38013000  1
  W  W21  1  0.61243600  0.11946600  0.38013000  1
  W  W22  1  0.11243600  0.88053400  0.11987000  1
  W  W23  1  0.61243600  0.61946600  0.11987000  1
  O  O24  1  0.91876900  0.21678000  0.97868000  1
  O  O25  1  0.41876900  0.28322000  0.97868000  1
  O  O26  1  0.11935800  0.46042300  0.92977400  1
  O  O27  1  0.61935800  0.03957700  0.92977400  1
  O  O28  1  0.09734800  0.98569700  0.89315000  1
  O  O29  1  0.59734800  0.51430300  0.89315000  1
  O  O30  1  0.67785300  0.77149300  0.85381000  1
  O  O31  1  0.17785300  0.72850700  0.85381000  1
  O  O32  1  0.66187200  0.26928100  0.82690000  1
  O  O33  1  0.16187200  0.23071900  0.82690000  1
  O  O34  1  0.81065700  0.05412600  0.76863200  1
  O  O35  1  0.31065700  0.44587400  0.76863200  1
  O  O36  1  0.31065700  0.94587400  0.73136800  1
  O  O37  1  0.81065700  0.55412600  0.73136800  1
  O  O38  1  0.66187200  0.76928100  0.67310000  1
  O  O39  1  0.16187200  0.73071900  0.67310000  1
  O  O40  1  0.67785300  0.27149300  0.64619000  1
  O  O41  1  0.17785300  0.22850700  0.64619000  1
  O  O42  1  0.09734800  0.48569700  0.60685000  1
  O  O43  1  0.59734800  0.01430300  0.60685000  1
  O  O44  1  0.11935800  0.96042300  0.57022600  1
  O  O45  1  0.61935800  0.53957700  0.57022600  1
  O  O46  1  0.41876900  0.78322000  0.52132000  1
  O  O47  1  0.91876900  0.71678000  0.52132000  1
  O  O48  1  0.08123100  0.28322000  0.47868000  1
  O  O49  1  0.58123100  0.21678000  0.47868000  1
  O  O50  1  0.38064200  0.46042300  0.42977400  1
  O  O51  1  0.88064200  0.03957700  0.42977400  1
  O  O52  1  0.40265200  0.98569700  0.39315000  1
  O  O53  1  0.90265200  0.51430300  0.39315000  1
  O  O54  1  0.82214700  0.77149300  0.35381000  1
  O  O55  1  0.32214700  0.72850700  0.35381000  1
  O  O56  1  0.83812800  0.26928100  0.32690000  1
  O  O57  1  0.33812800  0.23071900  0.32690000  1
  O  O58  1  0.18934300  0.44587400  0.26863200  1
  O  O59  1  0.68934300  0.05412600  0.26863200  1
  O  O60  1  0.18934300  0.94587400  0.23136800  1
  O  O61  1  0.68934300  0.55412600  0.23136800  1
  O  O62  1  0.83812800  0.76928100  0.17310000  1
  O  O63  1  0.33812800  0.73071900  0.17310000  1
  O  O64  1  0.82214700  0.27149300  0.14619000  1
  O  O65  1  0.32214700  0.22850700  0.14619000  1
  O  O66  1  0.40265200  0.48569700  0.10685000  1
  O  O67  1  0.90265200  0.01430300  0.10685000  1
  O  O68  1  0.38064200  0.96042300  0.07022600  1
  O  O69  1  0.88064200  0.53957700  0.07022600  1
  O  O70  1  0.08123100  0.78322000  0.02132000  1
  O  O71  1  0.58123100  0.71678000  0.02132000  1
