# generated using pymatgen
data_NaLaO2
_symmetry_space_group_name_H-M   'P 1'
_cell_length_a   6.95685800
_cell_length_b   14.09375600
_cell_length_c   6.44321806
_cell_angle_alpha   90.00000000
_cell_angle_beta   122.43030672
_cell_angle_gamma   90.00000000
_symmetry_Int_Tables_number   1
_chemical_formula_structural   NaLaO2
_chemical_formula_sum   'Na8 La8 O16'
_cell_volume   533.22192688
_cell_formula_units_Z   8
loop_
 _symmetry_equiv_pos_site_id
 _symmetry_equiv_pos_as_xyz
  1  'x, y, z'
loop_
 _atom_site_type_symbol
 _atom_site_label
 _atom_site_symmetry_multiplicity
 _atom_site_fract_x
 _atom_site_fract_y
 _atom_site_fract_z
 _atom_site_occupancy
  Na  Na0  1  0.50000000  0.30516100  0.25000000  1
  Na  Na1  1  0.00000000  0.43065300  0.75000000  1
  Na  Na2  1  0.50000000  0.06934700  0.25000000  1
  Na  Na3  1  0.00000000  0.19483900  0.75000000  1
  Na  Na4  1  0.00000000  0.80516100  0.25000000  1
  Na  Na5  1  0.50000000  0.93065300  0.75000000  1
  Na  Na6  1  0.00000000  0.56934700  0.25000000  1
  Na  Na7  1  0.50000000  0.69483900  0.75000000  1
  La  La8  1  0.50000000  0.44274500  0.75000000  1
  La  La9  1  0.50000000  0.18200600  0.75000000  1
  La  La10  1  0.00000000  0.31799400  0.25000000  1
  La  La11  1  0.00000000  0.05725500  0.25000000  1
  La  La12  1  0.00000000  0.94274500  0.75000000  1
  La  La13  1  0.00000000  0.68200600  0.75000000  1
  La  La14  1  0.50000000  0.81799400  0.25000000  1
  La  La15  1  0.50000000  0.55725500  0.25000000  1
  O  O16  1  0.25666100  0.18672300  0.29687400  1
  O  O17  1  0.22725600  0.06180700  0.70301400  1
  O  O18  1  0.77274400  0.06180700  0.79698600  1
  O  O19  1  0.75666100  0.31327700  0.79687400  1
  O  O20  1  0.74333900  0.18672300  0.20312600  1
  O  O21  1  0.72725600  0.43819300  0.20301400  1
  O  O22  1  0.27274400  0.43819300  0.29698600  1
  O  O23  1  0.24333900  0.31327700  0.70312600  1
  O  O24  1  0.75666100  0.68672300  0.29687400  1
  O  O25  1  0.72725600  0.56180700  0.70301400  1
  O  O26  1  0.27274400  0.56180700  0.79698600  1
  O  O27  1  0.25666100  0.81327700  0.79687400  1
  O  O28  1  0.24333900  0.68672300  0.20312600  1
  O  O29  1  0.22725600  0.93819300  0.20301400  1
  O  O30  1  0.77274400  0.93819300  0.29698600  1
  O  O31  1  0.74333900  0.81327700  0.70312600  1
