# generated using pymatgen
data_Li4Nb2Fe3Sn3O16
_symmetry_space_group_name_H-M   'P 1'
_cell_length_a   10.80403800
_cell_length_b   6.19354000
_cell_length_c   9.97154250
_cell_angle_alpha   90.00000000
_cell_angle_beta   90.10733977
_cell_angle_gamma   90.00000000
_symmetry_Int_Tables_number   1
_chemical_formula_structural   Li4Nb2Fe3Sn3O16
_chemical_formula_sum   'Li8 Nb4 Fe6 Sn6 O32'
_cell_volume   667.24700364
_cell_formula_units_Z   2
loop_
 _symmetry_equiv_pos_site_id
 _symmetry_equiv_pos_as_xyz
  1  'x, y, z'
loop_
 _atom_site_type_symbol
 _atom_site_label
 _atom_site_symmetry_multiplicity
 _atom_site_fract_x
 _atom_site_fract_y
 _atom_site_fract_z
 _atom_site_occupancy
  Li  Li0  1  0.67233700  0.00000000  0.90188000  1
  Li  Li1  1  0.99329400  0.00000000  0.98490800  1
  Li  Li2  1  0.99512600  0.00000000  0.49684600  1
  Li  Li3  1  0.82951800  0.50000000  0.40510400  1
  Li  Li4  1  0.17233700  0.50000000  0.90188000  1
  Li  Li5  1  0.49329400  0.50000000  0.98490800  1
  Li  Li6  1  0.49512600  0.50000000  0.49684600  1
  Li  Li7  1  0.32951800  0.00000000  0.40510400  1
  Nb  Nb8  1  0.67590200  0.00000000  0.49696000  1
  Nb  Nb9  1  0.85185300  0.50000000  0.97730600  1
  Nb  Nb10  1  0.17590200  0.50000000  0.49696000  1
  Nb  Nb11  1  0.35185300  0.00000000  0.97730600  1
  Fe  Fe12  1  0.82843400  0.00000000  0.21207500  1
  Fe  Fe13  1  0.91641700  0.74398400  0.71349400  1
  Fe  Fe14  1  0.91641700  0.25601600  0.71349400  1
  Fe  Fe15  1  0.32843400  0.50000000  0.21207500  1
  Fe  Fe16  1  0.41641700  0.24398400  0.71349400  1
  Fe  Fe17  1  0.41641700  0.75601600  0.71349400  1
  Sn  Sn18  1  0.58438550  0.24724850  0.21498700  1
  Sn  Sn19  1  0.58438550  0.75275150  0.21498700  1
  Sn  Sn20  1  0.67125300  0.50000000  0.71491000  1
  Sn  Sn21  1  0.08438550  0.74724850  0.21498700  1
  Sn  Sn22  1  0.08438550  0.25275150  0.21498700  1
  Sn  Sn23  1  0.17125300  0.00000000  0.71491000  1
  O  O24  1  0.59114550  0.24818250  0.58744100  1
  O  O25  1  0.51310300  0.00000000  0.33914500  1
  O  O26  1  0.66306800  0.00000000  0.10248700  1
  O  O27  1  0.99663800  0.00000000  0.31159500  1
  O  O28  1  0.50038700  0.50000000  0.79957400  1
  O  O29  1  0.59114550  0.75181750  0.58744100  1
  O  O30  1  0.73311100  0.22210000  0.34802200  1
  O  O31  1  0.73311100  0.77790000  0.34802200  1
  O  O32  1  0.65814300  0.50000000  0.09741200  1
  O  O33  1  0.82872400  0.00000000  0.58349800  1
  O  O34  1  0.75563100  0.71491800  0.85379700  1
  O  O35  1  0.75563100  0.28508200  0.85379700  1
  O  O36  1  0.83365900  0.50000000  0.60991100  1
  O  O37  1  0.91718850  0.74322150  0.09069200  1
  O  O38  1  0.98728600  0.50000000  0.85837700  1
  O  O39  1  0.91718850  0.25677850  0.09069200  1
  O  O40  1  0.09114550  0.74818250  0.58744100  1
  O  O41  1  0.01310300  0.50000000  0.33914500  1
  O  O42  1  0.16306800  0.50000000  0.10248700  1
  O  O43  1  0.49663800  0.50000000  0.31159500  1
  O  O44  1  0.00038700  0.00000000  0.79957400  1
  O  O45  1  0.09114550  0.25181750  0.58744100  1
  O  O46  1  0.23311100  0.72210000  0.34802200  1
  O  O47  1  0.23311100  0.27790000  0.34802200  1
  O  O48  1  0.15814300  0.00000000  0.09741200  1
  O  O49  1  0.32872400  0.50000000  0.58349800  1
  O  O50  1  0.25563100  0.21491800  0.85379700  1
  O  O51  1  0.25563100  0.78508200  0.85379700  1
  O  O52  1  0.33365900  0.00000000  0.60991100  1
  O  O53  1  0.41718850  0.24322150  0.09069200  1
  O  O54  1  0.48728600  0.00000000  0.85837700  1
  O  O55  1  0.41718850  0.75677850  0.09069200  1
