# generated using pymatgen
data_Rb(BH)5
_symmetry_space_group_name_H-M   'P 1'
_cell_length_a   7.28178700
_cell_length_b   11.46155300
_cell_length_c   15.29525703
_cell_angle_alpha   90.00000000
_cell_angle_beta   113.36224138
_cell_angle_gamma   90.00000000
_symmetry_Int_Tables_number   1
_chemical_formula_structural   Rb(BH)5
_chemical_formula_sum   'Rb8 B40 H40'
_cell_volume   1171.89456494
_cell_formula_units_Z   8
loop_
 _symmetry_equiv_pos_site_id
 _symmetry_equiv_pos_as_xyz
  1  'x, y, z'
loop_
 _atom_site_type_symbol
 _atom_site_label
 _atom_site_symmetry_multiplicity
 _atom_site_fract_x
 _atom_site_fract_y
 _atom_site_fract_z
 _atom_site_occupancy
  Rb  Rb0  1  0.35566400  0.87926800  0.05522200  1
  Rb  Rb1  1  0.94106100  0.57065600  0.18815100  1
  Rb  Rb2  1  0.05893900  0.07065600  0.31184900  1
  Rb  Rb3  1  0.64433600  0.37926800  0.44477800  1
  Rb  Rb4  1  0.35566400  0.62073200  0.55522200  1
  Rb  Rb5  1  0.94106100  0.92934400  0.68815100  1
  Rb  Rb6  1  0.05893900  0.42934400  0.81184900  1
  Rb  Rb7  1  0.64433600  0.12073200  0.94477800  1
  B  B8  1  0.36175400  0.29597300  0.02323400  1
  B  B9  1  0.14201300  0.32762600  0.04661800  1
  B  B10  1  0.22770500  0.17721400  0.04839000  1
  B  B11  1  0.37381900  0.40421300  0.11337300  1
  B  B12  1  0.49453300  0.19096500  0.11718700  1
  B  B13  1  0.09296400  0.22032600  0.11175200  1
  B  B14  1  0.57871900  0.32993900  0.11655600  1
  B  B15  1  0.24630200  0.32871600  0.17715400  1
  B  B16  1  0.33097000  0.17771800  0.17926600  1
  B  B17  1  0.50636900  0.29775700  0.20656400  1
  B  B18  1  0.49363100  0.79775700  0.29343600  1
  B  B19  1  0.66903000  0.67771800  0.32073400  1
  B  B20  1  0.75369800  0.82871600  0.32284600  1
  B  B21  1  0.42128100  0.82993900  0.38344400  1
  B  B22  1  0.50546700  0.69096500  0.38281300  1
  B  B23  1  0.62618100  0.90421300  0.38662700  1
  B  B24  1  0.90703600  0.72032600  0.38824800  1
  B  B25  1  0.77229500  0.67721400  0.45161000  1
  B  B26  1  0.85798700  0.82762600  0.45338200  1
  B  B27  1  0.63824600  0.79597300  0.47676600  1
  B  B28  1  0.36175400  0.20402700  0.52323400  1
  B  B29  1  0.14201300  0.17237400  0.54661800  1
  B  B30  1  0.22770500  0.32278600  0.54839000  1
  B  B31  1  0.09296400  0.27967400  0.61175200  1
  B  B32  1  0.37381900  0.09578700  0.61337300  1
  B  B33  1  0.49453300  0.30903500  0.61718700  1
  B  B34  1  0.57871900  0.17006100  0.61655600  1
  B  B35  1  0.24630200  0.17128400  0.67715400  1
  B  B36  1  0.33097000  0.32228200  0.67926600  1
  B  B37  1  0.50636900  0.20224300  0.70656400  1
  B  B38  1  0.49363100  0.70224300  0.79343600  1
  B  B39  1  0.66903000  0.82228200  0.82073400  1
  B  B40  1  0.75369800  0.67128400  0.82284600  1
  B  B41  1  0.42128100  0.67006100  0.88344400  1
  B  B42  1  0.90703600  0.77967400  0.88824800  1
  B  B43  1  0.50546700  0.80903500  0.88281300  1
  B  B44  1  0.62618100  0.59578700  0.88662700  1
  B  B45  1  0.77229500  0.82278600  0.95161000  1
  B  B46  1  0.85798700  0.67237400  0.95338200  1
  B  B47  1  0.63824600  0.70402700  0.97676600  1
  H  H48  1  0.83448600  0.89922500  0.01077000  1
  H  H49  1  0.99467300  0.61875600  0.01122900  1
  H  H50  1  0.64252500  0.69526800  0.05632200  1
  H  H51  1  0.37126000  0.50896100  0.11194300  1
  H  H52  1  0.93827200  0.18744000  0.11305500  1
  H  H53  1  0.60219900  0.10858200  0.12107700  1
  H  H54  1  0.73529500  0.36229300  0.11714000  1
  H  H55  1  0.37099100  0.80744300  0.21342400  1
  H  H56  1  0.36558300  0.10061600  0.23697900  1
  H  H57  1  0.20048700  0.38143600  0.23407600  1
  H  H58  1  0.63441700  0.60061600  0.26302100  1
  H  H59  1  0.79951300  0.88143600  0.26592400  1
  H  H60  1  0.62900900  0.30744300  0.28657600  1
  H  H61  1  0.39780100  0.60858200  0.37892300  1
  H  H62  1  0.62874000  0.00896100  0.38805700  1
  H  H63  1  0.26470500  0.86229300  0.38286000  1
  H  H64  1  0.06172800  0.68744000  0.38694500  1
  H  H65  1  0.35747500  0.19526800  0.44367800  1
  H  H66  1  0.00532700  0.11875600  0.48877100  1
  H  H67  1  0.16551400  0.39922500  0.48923000  1
  H  H68  1  0.83448600  0.60077500  0.51077000  1
  H  H69  1  0.99467300  0.88124400  0.51122900  1
  H  H70  1  0.64252500  0.80473200  0.55632200  1
  H  H71  1  0.93827200  0.31256000  0.61305500  1
  H  H72  1  0.73529500  0.13770700  0.61714000  1
  H  H73  1  0.37126000  0.99103900  0.61194300  1
  H  H74  1  0.60219900  0.39141800  0.62107700  1
  H  H75  1  0.37099100  0.69255700  0.71342400  1
  H  H76  1  0.20048700  0.11856400  0.73407600  1
  H  H77  1  0.36558300  0.39938400  0.73697900  1
  H  H78  1  0.79951300  0.61856400  0.76592400  1
  H  H79  1  0.63441700  0.89938400  0.76302100  1
  H  H80  1  0.62900900  0.19255700  0.78657600  1
  H  H81  1  0.26470500  0.63770700  0.88286000  1
  H  H82  1  0.39780100  0.89141800  0.87892300  1
  H  H83  1  0.06172800  0.81256000  0.88694500  1
  H  H84  1  0.62874000  0.49103900  0.88805700  1
  H  H85  1  0.35747500  0.30473200  0.94367800  1
  H  H86  1  0.00532700  0.38124400  0.98877100  1
  H  H87  1  0.16551400  0.10077500  0.98923000  1
