# generated using pymatgen
data_Gd2HfO5
_symmetry_space_group_name_H-M   'P 1'
_cell_length_a   11.95641400
_cell_length_b   5.54755800
_cell_length_c   7.72926277
_cell_angle_alpha   90.00000000
_cell_angle_beta   112.76913517
_cell_angle_gamma   90.00000000
_symmetry_Int_Tables_number   1
_chemical_formula_structural   Gd2HfO5
_chemical_formula_sum   'Gd8 Hf4 O20'
_cell_volume   472.72175990
_cell_formula_units_Z   4
loop_
 _symmetry_equiv_pos_site_id
 _symmetry_equiv_pos_as_xyz
  1  'x, y, z'
loop_
 _atom_site_type_symbol
 _atom_site_label
 _atom_site_symmetry_multiplicity
 _atom_site_fract_x
 _atom_site_fract_y
 _atom_site_fract_z
 _atom_site_occupancy
  Gd  Gd0  1  0.14007950  0.49348850  0.75021000  1
  Gd  Gd1  1  0.14007950  0.50651150  0.25021000  1
  Gd  Gd2  1  0.35992050  0.99348850  0.74979000  1
  Gd  Gd3  1  0.35992050  0.00651150  0.24979000  1
  Gd  Gd4  1  0.64007950  0.99348850  0.75021000  1
  Gd  Gd5  1  0.64007950  0.00651150  0.25021000  1
  Gd  Gd6  1  0.85992050  0.49348850  0.74979000  1
  Gd  Gd7  1  0.85992050  0.50651150  0.24979000  1
  Hf  Hf8  1  0.00000000  0.00000000  0.50000000  1
  Hf  Hf9  1  0.00000000  0.00000000  0.00000000  1
  Hf  Hf10  1  0.50000000  0.50000000  0.50000000  1
  Hf  Hf11  1  0.50000000  0.50000000  0.00000000  1
  O  O12  1  0.07337250  0.67695550  0.95611900  1
  O  O13  1  0.07337250  0.32304450  0.45611900  1
  O  O14  1  0.17170400  0.85015800  0.64144600  1
  O  O15  1  0.32829600  0.35015800  0.85855400  1
  O  O16  1  0.17170400  0.14984200  0.14144600  1
  O  O17  1  0.32829600  0.64984200  0.35855400  1
  O  O18  1  0.42662750  0.17695550  0.54388100  1
  O  O19  1  0.00000000  0.17130300  0.75000000  1
  O  O20  1  0.42662750  0.82304450  0.04388100  1
  O  O21  1  0.00000000  0.82869700  0.25000000  1
  O  O22  1  0.57337250  0.17695550  0.95611900  1
  O  O23  1  0.57337250  0.82304450  0.45611900  1
  O  O24  1  0.67170400  0.35015800  0.64144600  1
  O  O25  1  0.82829600  0.85015800  0.85855400  1
  O  O26  1  0.67170400  0.64984200  0.14144600  1
  O  O27  1  0.82829600  0.14984200  0.35855400  1
  O  O28  1  0.92662750  0.67695550  0.54388100  1
  O  O29  1  0.50000000  0.67130300  0.75000000  1
  O  O30  1  0.92662750  0.32304450  0.04388100  1
  O  O31  1  0.50000000  0.32869700  0.25000000  1
