# generated using pymatgen
data_K4P4H7(RuO9)2
_symmetry_space_group_name_H-M   'P 1'
_cell_length_a   9.23039300
_cell_length_b   9.41316200
_cell_length_c   13.87942228
_cell_angle_alpha   90.00000000
_cell_angle_beta   131.07863533
_cell_angle_gamma   90.00000000
_symmetry_Int_Tables_number   1
_chemical_formula_structural   K4P4H7(RuO9)2
_chemical_formula_sum   'K8 P8 H14 Ru4 O36'
_cell_volume   909.05073957
_cell_formula_units_Z   2
loop_
 _symmetry_equiv_pos_site_id
 _symmetry_equiv_pos_as_xyz
  1  'x, y, z'
loop_
 _atom_site_type_symbol
 _atom_site_label
 _atom_site_symmetry_multiplicity
 _atom_site_fract_x
 _atom_site_fract_y
 _atom_site_fract_z
 _atom_site_occupancy
  K  K0  1  0.79012200  0.22563900  0.65220200  1
  K  K1  1  0.37431100  0.37758900  0.21862200  1
  K  K2  1  0.62568900  0.87758900  0.28137800  1
  K  K3  1  0.20987800  0.72563900  0.84779800  1
  K  K4  1  0.79012200  0.27436100  0.15220200  1
  K  K5  1  0.37431100  0.12241100  0.71862200  1
  K  K6  1  0.62568900  0.62241100  0.78137800  1
  K  K7  1  0.20987800  0.77436100  0.34779800  1
  P  P8  1  0.17930100  0.71442800  0.07710600  1
  P  P9  1  0.75540700  0.63276500  0.53739900  1
  P  P10  1  0.24459300  0.13276500  0.96260100  1
  P  P11  1  0.82069900  0.21442800  0.42289400  1
  P  P12  1  0.17930100  0.78557200  0.57710600  1
  P  P13  1  0.75540700  0.86723500  0.03739900  1
  P  P14  1  0.24459300  0.36723500  0.46260100  1
  P  P15  1  0.82069900  0.28557200  0.92289400  1
  H  H16  1  0.50000000  0.50000000  0.50000000  1
  H  H17  1  0.44596600  0.10182700  0.36886800  1
  H  H18  1  0.72984300  0.87335200  0.63331900  1
  H  H19  1  0.01147300  0.37174200  0.89906900  1
  H  H20  1  0.98852700  0.87174200  0.60093100  1
  H  H21  1  0.27015700  0.37335200  0.86668100  1
  H  H22  1  0.55403400  0.60182700  0.13113200  1
  H  H23  1  0.50000000  0.00000000  0.00000000  1
  H  H24  1  0.44596600  0.39817300  0.86886800  1
  H  H25  1  0.72984300  0.62664800  0.13331900  1
  H  H26  1  0.01147300  0.12825800  0.39906900  1
  H  H27  1  0.98852700  0.62825800  0.10093100  1
  H  H28  1  0.27015700  0.12664800  0.36668100  1
  H  H29  1  0.55403400  0.89817300  0.63113200  1
  Ru  Ru30  1  0.10609700  0.03619700  0.10679700  1
  Ru  Ru31  1  0.89390300  0.96380300  0.89320300  1
  Ru  Ru32  1  0.89390300  0.53619700  0.39320300  1
  Ru  Ru33  1  0.10609700  0.46380300  0.60679700  1
  O  O34  1  0.68321700  0.93267900  0.66851800  1
  O  O35  1  0.88939800  0.40659100  0.87969400  1
  O  O36  1  0.58265200  0.61180200  0.53186200  1
  O  O37  1  0.00418200  0.76031500  0.93734400  1
  O  O38  1  0.24269200  0.84240900  0.16925900  1
  O  O39  1  0.31071600  0.10384900  0.09809300  1
  O  O40  1  0.08333900  0.02122600  0.86812400  1
  O  O41  1  0.82456200  0.78675600  0.58169000  1
  O  O42  1  0.34164900  0.65253700  0.08922800  1
  O  O43  1  0.65835100  0.15253700  0.41077200  1
  O  O44  1  0.17543800  0.28675600  0.91831000  1
  O  O45  1  0.68928400  0.60384900  0.40190700  1
  O  O46  1  0.91666100  0.52122600  0.63187600  1
  O  O47  1  0.75730800  0.34240900  0.33074100  1
  O  O48  1  0.99581800  0.26031500  0.56265600  1
  O  O49  1  0.41734800  0.11180200  0.96813800  1
  O  O50  1  0.11060200  0.90659100  0.62030600  1
  O  O51  1  0.31678300  0.43267900  0.83148200  1
  O  O52  1  0.68321700  0.56732100  0.16851800  1
  O  O53  1  0.88939800  0.09340900  0.37969400  1
  O  O54  1  0.58265200  0.88819800  0.03186200  1
  O  O55  1  0.00418200  0.73968500  0.43734400  1
  O  O56  1  0.24269200  0.65759100  0.66925900  1
  O  O57  1  0.08333900  0.47877400  0.36812400  1
  O  O58  1  0.31071600  0.39615100  0.59809300  1
  O  O59  1  0.82456200  0.71324400  0.08169000  1
  O  O60  1  0.34164900  0.84746300  0.58922800  1
  O  O61  1  0.65835100  0.34746300  0.91077200  1
  O  O62  1  0.17543800  0.21324400  0.41831000  1
  O  O63  1  0.91666100  0.97877400  0.13187600  1
  O  O64  1  0.68928400  0.89615100  0.90190700  1
  O  O65  1  0.75730800  0.15759100  0.83074100  1
  O  O66  1  0.99581800  0.23968500  0.06265600  1
  O  O67  1  0.41734800  0.38819800  0.46813800  1
  O  O68  1  0.11060200  0.59340900  0.12030600  1
  O  O69  1  0.31678300  0.06732100  0.33148200  1
