# generated using pymatgen
data_Mn6OF11
_symmetry_space_group_name_H-M   'P 1'
_cell_length_a   4.96321100
_cell_length_b   5.89718400
_cell_length_c   16.22683032
_cell_angle_alpha   90.00000000
_cell_angle_beta   90.77052481
_cell_angle_gamma   90.00000000
_symmetry_Int_Tables_number   1
_chemical_formula_structural   Mn6OF11
_chemical_formula_sum   'Mn12 O2 F22'
_cell_volume   474.89963851
_cell_formula_units_Z   2
loop_
 _symmetry_equiv_pos_site_id
 _symmetry_equiv_pos_as_xyz
  1  'x, y, z'
loop_
 _atom_site_type_symbol
 _atom_site_label
 _atom_site_symmetry_multiplicity
 _atom_site_fract_x
 _atom_site_fract_y
 _atom_site_fract_z
 _atom_site_occupancy
  Mn  Mn0  1  0.99670900  0.16722300  0.58383600  1
  Mn  Mn1  1  0.98486800  0.83341100  0.75473200  1
  Mn  Mn2  1  0.99252700  0.14457800  0.91391000  1
  Mn  Mn3  1  0.98486800  0.16658900  0.25473200  1
  Mn  Mn4  1  0.99252700  0.85542200  0.41391000  1
  Mn  Mn5  1  0.99670900  0.83277700  0.08383600  1
  Mn  Mn6  1  0.52538500  0.31056600  0.41239300  1
  Mn  Mn7  1  0.48542100  0.32997700  0.08079400  1
  Mn  Mn8  1  0.50441600  0.33424500  0.75084800  1
  Mn  Mn9  1  0.52538500  0.68943400  0.91239300  1
  Mn  Mn10  1  0.48542100  0.67002300  0.58079400  1
  Mn  Mn11  1  0.50441600  0.66575500  0.25084800  1
  O  O12  1  0.79497400  0.08751300  0.36458700  1
  O  O13  1  0.79497400  0.91248700  0.86458700  1
  F  F14  1  0.76413500  0.10860200  0.69073300  1
  F  F15  1  0.77587200  0.11444200  0.02362100  1
  F  F16  1  0.77587200  0.88555800  0.52362100  1
  F  F17  1  0.76413500  0.89139800  0.19073300  1
  F  F18  1  0.74235000  0.39427200  0.86226600  1
  F  F19  1  0.72640000  0.60768600  0.69155100  1
  F  F20  1  0.71489400  0.39217000  0.52726000  1
  F  F21  1  0.74235000  0.60572800  0.36226600  1
  F  F22  1  0.72640000  0.39231400  0.19155100  1
  F  F23  1  0.71489400  0.60783000  0.02726000  1
  F  F24  1  0.24786600  0.37202900  0.96742200  1
  F  F25  1  0.28775300  0.61634200  0.80630900  1
  F  F26  1  0.26931400  0.39377500  0.63927700  1
  F  F27  1  0.24786600  0.62797100  0.46742200  1
  F  F28  1  0.26931400  0.60622500  0.13927700  1
  F  F29  1  0.28775300  0.38365800  0.30630900  1
  F  F30  1  0.22962200  0.12074200  0.81013500  1
  F  F31  1  0.23687900  0.10555800  0.47622700  1
  F  F32  1  0.22061500  0.88938200  0.64409800  1
  F  F33  1  0.23687900  0.89444200  0.97622700  1
  F  F34  1  0.22061500  0.11061800  0.14409800  1
  F  F35  1  0.22962200  0.87925800  0.31013500  1
