# generated using pymatgen
data_Li2VF6
_symmetry_space_group_name_H-M   'P 1'
_cell_length_a   8.73601719
_cell_length_b   8.73601719
_cell_length_c   4.53017601
_cell_angle_alpha   90.00000000
_cell_angle_beta   90.00000000
_cell_angle_gamma   120.00000000
_symmetry_Int_Tables_number   1
_chemical_formula_structural   Li2VF6
_chemical_formula_sum   'Li6 V3 F18'
_cell_volume   299.41438950
_cell_formula_units_Z   3
loop_
 _symmetry_equiv_pos_site_id
 _symmetry_equiv_pos_as_xyz
  1  'x, y, z'
loop_
 _atom_site_type_symbol
 _atom_site_label
 _atom_site_symmetry_multiplicity
 _atom_site_fract_x
 _atom_site_fract_y
 _atom_site_fract_z
 _atom_site_occupancy
  Li  Li0  1  0.00000000  0.65617900  0.00000000  1
  Li  Li1  1  0.00000000  0.34382100  0.00000000  1
  Li  Li2  1  0.34382100  0.34382100  0.00000000  1
  Li  Li3  1  0.34382100  0.00000000  0.00000000  1
  Li  Li4  1  0.65617900  0.65617900  0.00000000  1
  Li  Li5  1  0.65617900  0.00000000  0.00000000  1
  V  V6  1  0.33333333  0.66666667  0.49748400  1
  V  V7  1  0.00000000  0.00000000  0.00000000  1
  V  V8  1  0.66666667  0.33333333  0.50251600  1
  F  F9  1  0.10648233  0.89351767  0.21389800  1
  F  F10  1  0.13046333  0.56523167  0.25374100  1
  F  F11  1  0.23308083  0.76691917  0.73627600  1
  F  F12  1  0.10648233  0.21296467  0.21389800  1
  F  F13  1  0.23308083  0.46616167  0.73627600  1
  F  F14  1  0.43476833  0.86953667  0.25374100  1
  F  F15  1  0.21296467  0.10648233  0.78610200  1
  F  F16  1  0.53383833  0.76691917  0.73627600  1
  F  F17  1  0.43476833  0.56523167  0.25374100  1
  F  F18  1  0.56523167  0.43476833  0.74625900  1
  F  F19  1  0.46616167  0.23308083  0.26372400  1
  F  F20  1  0.78703533  0.89351767  0.21389800  1
  F  F21  1  0.56523167  0.13046333  0.74625900  1
  F  F22  1  0.89351767  0.78703533  0.78610200  1
  F  F23  1  0.76691917  0.53383833  0.26372400  1
  F  F24  1  0.76691917  0.23308083  0.26372400  1
  F  F25  1  0.86953667  0.43476833  0.74625900  1
  F  F26  1  0.89351767  0.10648233  0.78610200  1
