# generated using pymatgen
data_Dy2(SeO4)3
_symmetry_space_group_name_H-M   'P 1'
_cell_length_a   7.12105200
_cell_length_b   11.66251600
_cell_length_c   11.29378720
_cell_angle_alpha   90.00000000
_cell_angle_beta   108.19816769
_cell_angle_gamma   90.00000000
_symmetry_Int_Tables_number   1
_chemical_formula_structural   Dy2(SeO4)3
_chemical_formula_sum   'Dy8 Se12 O48'
_cell_volume   891.02810881
_cell_formula_units_Z   4
loop_
 _symmetry_equiv_pos_site_id
 _symmetry_equiv_pos_as_xyz
  1  'x, y, z'
loop_
 _atom_site_type_symbol
 _atom_site_label
 _atom_site_symmetry_multiplicity
 _atom_site_fract_x
 _atom_site_fract_y
 _atom_site_fract_z
 _atom_site_occupancy
  Dy  Dy0  1  0.16807500  0.12514700  0.59442500  1
  Dy  Dy1  1  0.16807500  0.87485300  0.09442500  1
  Dy  Dy2  1  0.83192500  0.12514700  0.90557500  1
  Dy  Dy3  1  0.83192500  0.87485300  0.40557500  1
  Dy  Dy4  1  0.66807500  0.62514700  0.59442500  1
  Dy  Dy5  1  0.66807500  0.37485300  0.09442500  1
  Dy  Dy6  1  0.33192500  0.62514700  0.90557500  1
  Dy  Dy7  1  0.33192500  0.37485300  0.40557500  1
  Se  Se8  1  0.34231850  0.12965850  0.92470200  1
  Se  Se9  1  0.34231850  0.87034150  0.42470200  1
  Se  Se10  1  0.50000000  0.38174600  0.75000000  1
  Se  Se11  1  0.50000000  0.61825400  0.25000000  1
  Se  Se12  1  0.65768150  0.12965850  0.57529800  1
  Se  Se13  1  0.65768150  0.87034150  0.07529800  1
  Se  Se14  1  0.84231850  0.62965850  0.92470200  1
  Se  Se15  1  0.84231850  0.37034150  0.42470200  1
  Se  Se16  1  0.00000000  0.88174600  0.75000000  1
  Se  Se17  1  0.00000000  0.11825400  0.25000000  1
  Se  Se18  1  0.15768150  0.62965850  0.57529800  1
  Se  Se19  1  0.15768150  0.37034150  0.07529800  1
  O  O20  1  0.83124500  0.95810200  0.78848100  1
  O  O21  1  0.22147100  0.19444500  0.79018200  1
  O  O22  1  0.62000850  0.30176550  0.87730400  1
  O  O23  1  0.16203400  0.05048900  0.95753200  1
  O  O24  1  0.83124500  0.04189800  0.28848100  1
  O  O25  1  0.47883300  0.05447100  0.60672900  1
  O  O26  1  0.44843800  0.78545800  0.54442100  1
  O  O27  1  0.55156200  0.78545800  0.95557900  1
  O  O28  1  0.52116700  0.05447100  0.89327100  1
  O  O29  1  0.22147100  0.80555500  0.29018200  1
  O  O30  1  0.83796600  0.05048900  0.54246800  1
  O  O31  1  0.37999150  0.30176550  0.62269600  1
  O  O32  1  0.62000850  0.69823450  0.37730400  1
  O  O33  1  0.16203400  0.94951100  0.45753200  1
  O  O34  1  0.77852900  0.19444500  0.70981800  1
  O  O35  1  0.47883300  0.94552900  0.10672900  1
  O  O36  1  0.44843800  0.21454200  0.04442100  1
  O  O37  1  0.55156200  0.21454200  0.45557900  1
  O  O38  1  0.52116700  0.94552900  0.39327100  1
  O  O39  1  0.16875500  0.95810200  0.71151900  1
  O  O40  1  0.83796600  0.94951100  0.04246800  1
  O  O41  1  0.37999150  0.69823450  0.12269600  1
  O  O42  1  0.77852900  0.80555500  0.20981800  1
  O  O43  1  0.16875500  0.04189800  0.21151900  1
  O  O44  1  0.33124500  0.45810200  0.78848100  1
  O  O45  1  0.72147100  0.69444500  0.79018200  1
  O  O46  1  0.12000850  0.80176550  0.87730400  1
  O  O47  1  0.66203400  0.55048900  0.95753200  1
  O  O48  1  0.33124500  0.54189800  0.28848100  1
  O  O49  1  0.97883300  0.55447100  0.60672900  1
  O  O50  1  0.94843800  0.28545800  0.54442100  1
  O  O51  1  0.05156200  0.28545800  0.95557900  1
  O  O52  1  0.02116700  0.55447100  0.89327100  1
  O  O53  1  0.72147100  0.30555500  0.29018200  1
  O  O54  1  0.33796600  0.55048900  0.54246800  1
  O  O55  1  0.87999150  0.80176550  0.62269600  1
  O  O56  1  0.12000850  0.19823450  0.37730400  1
  O  O57  1  0.66203400  0.44951100  0.45753200  1
  O  O58  1  0.27852900  0.69444500  0.70981800  1
  O  O59  1  0.97883300  0.44552900  0.10672900  1
  O  O60  1  0.94843800  0.71454200  0.04442100  1
  O  O61  1  0.05156200  0.71454200  0.45557900  1
  O  O62  1  0.02116700  0.44552900  0.39327100  1
  O  O63  1  0.66875500  0.45810200  0.71151900  1
  O  O64  1  0.33796600  0.44951100  0.04246800  1
  O  O65  1  0.87999150  0.19823450  0.12269600  1
  O  O66  1  0.27852900  0.30555500  0.20981800  1
  O  O67  1  0.66875500  0.54189800  0.21151900  1
