# generated using pymatgen
data_MnH18C4N8(ClO)4
_symmetry_space_group_name_H-M   'P 1'
_cell_length_a   6.41908300
_cell_length_b   11.50828500
_cell_length_c   11.96740149
_cell_angle_alpha   90.00000000
_cell_angle_beta   107.94028911
_cell_angle_gamma   90.00000000
_symmetry_Int_Tables_number   1
_chemical_formula_structural   MnH18C4N8(ClO)4
_chemical_formula_sum   'Mn2 H36 C8 N16 Cl8 O8'
_cell_volume   841.07860311
_cell_formula_units_Z   2
loop_
 _symmetry_equiv_pos_site_id
 _symmetry_equiv_pos_as_xyz
  1  'x, y, z'
loop_
 _atom_site_type_symbol
 _atom_site_label
 _atom_site_symmetry_multiplicity
 _atom_site_fract_x
 _atom_site_fract_y
 _atom_site_fract_z
 _atom_site_occupancy
  Mn  Mn0  1  0.00000000  0.00000000  0.50000000  1
  Mn  Mn1  1  0.00000000  0.50000000  0.00000000  1
  H  H2  1  0.79397900  0.21424100  0.50081300  1
  H  H3  1  0.79397900  0.28575900  0.00081300  1
  H  H4  1  0.20602100  0.78575900  0.49918700  1
  H  H5  1  0.20602100  0.71424100  0.99918700  1
  H  H6  1  0.63466700  0.11179400  0.50408800  1
  H  H7  1  0.63466700  0.38820600  0.00408800  1
  H  H8  1  0.36533300  0.88820600  0.49591200  1
  H  H9  1  0.36533300  0.61179400  0.99591200  1
  H  H10  1  0.79420600  0.28792900  0.79174300  1
  H  H11  1  0.79420600  0.21207100  0.29174300  1
  H  H12  1  0.20579400  0.71207100  0.20825700  1
  H  H13  1  0.20579400  0.78792900  0.70825700  1
  H  H14  1  0.81708600  0.17566600  0.69626700  1
  H  H15  1  0.81708600  0.32433400  0.19626700  1
  H  H16  1  0.18291400  0.82433400  0.30373300  1
  H  H17  1  0.18291400  0.67566600  0.80373300  1
  H  H18  1  0.83312000  0.99376000  0.74484400  1
  H  H19  1  0.83312000  0.50624000  0.24484400  1
  H  H20  1  0.16688000  0.00624000  0.25515600  1
  H  H21  1  0.16688000  0.49376000  0.75515600  1
  H  H22  1  0.73699800  0.73330100  0.86278200  1
  H  H23  1  0.73699800  0.76669900  0.36278200  1
  H  H24  1  0.26300200  0.26669900  0.13721800  1
  H  H25  1  0.26300200  0.23330100  0.63721800  1
  H  H26  1  0.77702500  0.80662100  0.74146300  1
  H  H27  1  0.77702500  0.69337900  0.24146300  1
  H  H28  1  0.22297500  0.19337900  0.25853700  1
  H  H29  1  0.22297500  0.30662100  0.75853700  1
  H  H30  1  0.68601000  0.84277100  0.01721800  1
  H  H31  1  0.68601000  0.65722900  0.51721800  1
  H  H32  1  0.31399000  0.15722900  0.98278200  1
  H  H33  1  0.31399000  0.34277100  0.48278200  1
  H  H34  1  0.70698500  0.99741600  0.01229600  1
  H  H35  1  0.70698500  0.50258400  0.51229600  1
  H  H36  1  0.29301500  0.00258400  0.98770400  1
  H  H37  1  0.29301500  0.49741600  0.48770400  1
  C  C38  1  0.77396400  0.12300100  0.85230900  1
  C  C39  1  0.77396400  0.37699900  0.35230900  1
  C  C40  1  0.22603600  0.87699900  0.14769100  1
  C  C41  1  0.22603600  0.62300100  0.64769100  1
  C  C42  1  0.74900800  0.91039500  0.87434700  1
  C  C43  1  0.74900800  0.58960500  0.37434700  1
  C  C44  1  0.25099200  0.08960500  0.12565300  1
  C  C45  1  0.25099200  0.41039500  0.62565300  1
  N  N46  1  0.79760000  0.20095900  0.77458700  1
  N  N47  1  0.79760000  0.29904100  0.27458700  1
  N  N48  1  0.20240000  0.79904100  0.22541300  1
  N  N49  1  0.20240000  0.70095900  0.72541300  1
  N  N50  1  0.78490500  0.00776800  0.81787500  1
  N  N51  1  0.78490500  0.49223200  0.31787500  1
  N  N52  1  0.21509500  0.99223200  0.18212500  1
  N  N53  1  0.21509500  0.50776800  0.68212500  1
  N  N54  1  0.76135200  0.80892000  0.82390900  1
  N  N55  1  0.76135200  0.69108000  0.32390900  1
  N  N56  1  0.23864800  0.19108000  0.17609100  1
  N  N57  1  0.23864800  0.30892000  0.67609100  1
  N  N58  1  0.70575200  0.91750500  0.97563000  1
  N  N59  1  0.70575200  0.58249500  0.47563000  1
  N  N60  1  0.29424800  0.08249500  0.02437000  1
  N  N61  1  0.29424800  0.41750500  0.52437000  1
  Cl  Cl62  1  0.20622700  0.99995800  0.70943800  1
  Cl  Cl63  1  0.20622700  0.50004200  0.20943800  1
  Cl  Cl64  1  0.79377300  0.00004200  0.29056200  1
  Cl  Cl65  1  0.79377300  0.49995800  0.79056200  1
  Cl  Cl66  1  0.72930600  0.86047700  0.54493100  1
  Cl  Cl67  1  0.72930600  0.63952300  0.04493100  1
  Cl  Cl68  1  0.27069400  0.13952300  0.45506900  1
  Cl  Cl69  1  0.27069400  0.36047700  0.95506900  1
  O  O70  1  0.79149600  0.13399400  0.53349000  1
  O  O71  1  0.79149600  0.36600600  0.03349000  1
  O  O72  1  0.20850400  0.86600600  0.46651000  1
  O  O73  1  0.20850400  0.63399400  0.96651000  1
  O  O74  1  0.74619600  0.14780100  0.94915400  1
  O  O75  1  0.74619600  0.35219900  0.44915400  1
  O  O76  1  0.25380400  0.85219900  0.05084600  1
  O  O77  1  0.25380400  0.64780100  0.55084600  1
