# generated using pymatgen
data_Tb3NbO7
_symmetry_space_group_name_H-M   'P 1'
_cell_length_a   7.54758600
_cell_length_b   10.62014800
_cell_length_c   7.55436300
_cell_angle_alpha   90.00000000
_cell_angle_beta   90.00000000
_cell_angle_gamma   90.00000000
_symmetry_Int_Tables_number   1
_chemical_formula_structural   Tb3NbO7
_chemical_formula_sum   'Tb12 Nb4 O28'
_cell_volume   605.53114946
_cell_formula_units_Z   4
loop_
 _symmetry_equiv_pos_site_id
 _symmetry_equiv_pos_as_xyz
  1  'x, y, z'
loop_
 _atom_site_type_symbol
 _atom_site_label
 _atom_site_symmetry_multiplicity
 _atom_site_fract_x
 _atom_site_fract_y
 _atom_site_fract_z
 _atom_site_occupancy
  Tb  Tb0  1  0.73197000  0.26773100  0.25410600  1
  Tb  Tb1  1  0.26803000  0.26773100  0.24589400  1
  Tb  Tb2  1  0.47421700  0.00000000  0.00000000  1
  Tb  Tb3  1  0.52578300  0.00000000  0.50000000  1
  Tb  Tb4  1  0.26803000  0.73226900  0.75410600  1
  Tb  Tb5  1  0.73197000  0.73226900  0.74589400  1
  Tb  Tb6  1  0.23197000  0.76773100  0.25410600  1
  Tb  Tb7  1  0.76803000  0.76773100  0.24589400  1
  Tb  Tb8  1  0.97421700  0.50000000  0.00000000  1
  Tb  Tb9  1  0.02578300  0.50000000  0.50000000  1
  Tb  Tb10  1  0.76803000  0.23226900  0.75410600  1
  Tb  Tb11  1  0.23197000  0.23226900  0.74589400  1
  Nb  Nb12  1  0.00340000  0.00000000  0.50000000  1
  Nb  Nb13  1  0.99660000  0.00000000  0.00000000  1
  Nb  Nb14  1  0.50340000  0.50000000  0.50000000  1
  Nb  Nb15  1  0.49660000  0.50000000  0.00000000  1
  O  O16  1  0.50000000  0.57016700  0.75000000  1
  O  O17  1  0.50000000  0.86223400  0.75000000  1
  O  O18  1  0.18806300  0.87316600  0.53833400  1
  O  O19  1  0.81193700  0.87316600  0.96166600  1
  O  O20  1  0.50000000  0.87055900  0.25000000  1
  O  O21  1  0.79559550  0.87698850  0.52790400  1
  O  O22  1  0.20440450  0.87698850  0.97209600  1
  O  O23  1  0.20440450  0.12301150  0.02790400  1
  O  O24  1  0.79559550  0.12301150  0.47209600  1
  O  O25  1  0.50000000  0.12944100  0.75000000  1
  O  O26  1  0.81193700  0.12683400  0.03833400  1
  O  O27  1  0.18806300  0.12683400  0.46166600  1
  O  O28  1  0.50000000  0.13776600  0.25000000  1
  O  O29  1  0.50000000  0.42983300  0.25000000  1
  O  O30  1  0.00000000  0.07016700  0.75000000  1
  O  O31  1  0.00000000  0.36223400  0.75000000  1
  O  O32  1  0.68806300  0.37316600  0.53833400  1
  O  O33  1  0.31193700  0.37316600  0.96166600  1
  O  O34  1  0.00000000  0.37055900  0.25000000  1
  O  O35  1  0.29559550  0.37698850  0.52790400  1
  O  O36  1  0.70440450  0.37698850  0.97209600  1
  O  O37  1  0.70440450  0.62301150  0.02790400  1
  O  O38  1  0.29559550  0.62301150  0.47209600  1
  O  O39  1  0.00000000  0.62944100  0.75000000  1
  O  O40  1  0.31193700  0.62683400  0.03833400  1
  O  O41  1  0.68806300  0.62683400  0.46166600  1
  O  O42  1  0.00000000  0.63776600  0.25000000  1
  O  O43  1  0.00000000  0.92983300  0.25000000  1
