# generated using pymatgen
data_KSnPCO7
_symmetry_space_group_name_H-M   'P 1'
_cell_length_a   5.31685900
_cell_length_b   6.58254000
_cell_length_c   10.62040509
_cell_angle_alpha   90.00000000
_cell_angle_beta   91.93197483
_cell_angle_gamma   90.00000000
_symmetry_Int_Tables_number   1
_chemical_formula_structural   KSnPCO7
_chemical_formula_sum   'K2 Sn2 P2 C2 O14'
_cell_volume   371.48629019
_cell_formula_units_Z   2
loop_
 _symmetry_equiv_pos_site_id
 _symmetry_equiv_pos_as_xyz
  1  'x, y, z'
loop_
 _atom_site_type_symbol
 _atom_site_label
 _atom_site_symmetry_multiplicity
 _atom_site_fract_x
 _atom_site_fract_y
 _atom_site_fract_z
 _atom_site_occupancy
  K  K0  1  0.77712400  0.39331400  0.19436700  1
  K  K1  1  0.22287600  0.89331400  0.80563300  1
  Sn  Sn2  1  0.21900500  0.77990200  0.35842900  1
  Sn  Sn3  1  0.78099500  0.27990200  0.64157100  1
  P  P4  1  0.27444700  0.27651900  0.44353000  1
  P  P5  1  0.72555300  0.77651900  0.55647000  1
  C  C6  1  0.29200100  0.73412000  0.12578700  1
  C  C7  1  0.70799900  0.23412000  0.87421300  1
  O  O8  1  0.67159500  0.20008200  0.98657700  1
  O  O9  1  0.06354700  0.75516100  0.17519500  1
  O  O10  1  0.47836400  0.74929000  0.21528400  1
  O  O11  1  0.21018800  0.09334000  0.35699400  1
  O  O12  1  0.19944100  0.46094100  0.36097700  1
  O  O13  1  0.86573700  0.77208700  0.43165800  1
  O  O14  1  0.56297800  0.28309300  0.47634200  1
  O  O15  1  0.43702200  0.78309300  0.52365800  1
  O  O16  1  0.13426300  0.27208700  0.56834200  1
  O  O17  1  0.80055900  0.96094100  0.63902300  1
  O  O18  1  0.78981200  0.59334000  0.64300600  1
  O  O19  1  0.52163600  0.24929000  0.78471600  1
  O  O20  1  0.93645300  0.25516100  0.82480500  1
  O  O21  1  0.32840500  0.70008200  0.01342300  1
