# generated using pymatgen
data_Dy11Y5O24
_symmetry_space_group_name_H-M   'P 1'
_cell_length_a   9.25718800
_cell_length_b   9.25722578
_cell_length_c   9.25669224
_cell_angle_alpha   109.45989644
_cell_angle_beta   109.47400375
_cell_angle_gamma   109.47827836
_symmetry_Int_Tables_number   1
_chemical_formula_structural   Dy11Y5O24
_chemical_formula_sum   'Dy11 Y5 O24'
_cell_volume   610.66329262
_cell_formula_units_Z   1
loop_
 _symmetry_equiv_pos_site_id
 _symmetry_equiv_pos_as_xyz
  1  'x, y, z'
loop_
 _atom_site_type_symbol
 _atom_site_label
 _atom_site_symmetry_multiplicity
 _atom_site_fract_x
 _atom_site_fract_y
 _atom_site_fract_z
 _atom_site_occupancy
  Dy  Dy0  1  0.74986600  0.03231500  0.78253400  1
  Dy  Dy1  1  0.49992700  0.99973800  0.99995400  1
  Dy  Dy2  1  0.50020500  0.50025500  0.50018100  1
  Dy  Dy3  1  0.75009400  0.53298100  0.28292900  1
  Dy  Dy4  1  0.99995400  0.99982800  0.49988400  1
  Dy  Dy5  1  0.25018600  0.46755200  0.71741000  1
  Dy  Dy6  1  0.28268300  0.75004600  0.53273200  1
  Dy  Dy7  1  0.78266600  0.75004400  0.03275100  1
  Dy  Dy8  1  0.03271700  0.78272800  0.74997000  1
  Dy  Dy9  1  0.46748500  0.71741400  0.25011600  1
  Dy  Dy10  1  0.24994800  0.96716200  0.21721900  1
  Y  Y11  1  0.00005800  0.50018400  0.00014000  1
  Y  Y12  1  0.53246600  0.28248100  0.74995700  1
  Y  Y13  1  0.96745800  0.21737300  0.25006800  1
  Y  Y14  1  0.71728100  0.24995500  0.46723600  1
  Y  Y15  1  0.21756200  0.24995700  0.96748800  1
  O  O16  1  0.96925800  0.23940100  0.51129300  1
  O  O17  1  0.77141800  0.26012600  0.72945900  1
  O  O18  1  0.98898600  0.72886800  0.95797600  1
  O  O19  1  0.48904600  0.03061400  0.76063700  1
  O  O20  1  0.77065500  0.53187400  0.54241300  1
  O  O21  1  0.27016400  0.22823000  0.73868700  1
  O  O22  1  0.72809800  0.95758500  0.98881800  1
  O  O23  1  0.53115600  0.54236900  0.77049300  1
  O  O24  1  0.73867700  0.27057500  0.22793600  1
  O  O25  1  0.45736500  0.22947000  0.46806000  1
  O  O26  1  0.95765800  0.98870600  0.72810000  1
  O  O27  1  0.23992400  0.51132800  0.96901000  1
  O  O28  1  0.04216200  0.01033600  0.27164000  1
  O  O29  1  0.76078300  0.48963200  0.03177800  1
  O  O30  1  0.54197600  0.77047400  0.53107700  1
  O  O31  1  0.26051000  0.72947300  0.77145600  1
  O  O32  1  0.46929600  0.45838500  0.23002100  1
  O  O33  1  0.27165700  0.04165000  0.01087600  1
  O  O34  1  0.22995400  0.46935600  0.45838500  1
  O  O35  1  0.72956500  0.77165600  0.26069000  1
  O  O36  1  0.01052200  0.27124000  0.04187100  1
  O  O37  1  0.51052300  0.96815000  0.23874000  1
  O  O38  1  0.03118200  0.76069900  0.48912500  1
  O  O39  1  0.22891300  0.73979300  0.27089200  1
