# generated using pymatgen
data_Li24Ti11CrO36
_symmetry_space_group_name_H-M   'P 1'
_cell_length_a   5.10238800
_cell_length_b   26.46802800
_cell_length_c   9.81253174
_cell_angle_alpha   90.00000000
_cell_angle_beta   99.75941209
_cell_angle_gamma   90.00000000
_symmetry_Int_Tables_number   1
_chemical_formula_structural   Li24Ti11CrO36
_chemical_formula_sum   'Li48 Ti22 Cr2 O72'
_cell_volume   1306.00610695
_cell_formula_units_Z   2
loop_
 _symmetry_equiv_pos_site_id
 _symmetry_equiv_pos_as_xyz
  1  'x, y, z'
loop_
 _atom_site_type_symbol
 _atom_site_label
 _atom_site_symmetry_multiplicity
 _atom_site_fract_x
 _atom_site_fract_y
 _atom_site_fract_z
 _atom_site_occupancy
  Li  Li0  1  0.24476050  0.02943050  0.24982700  1
  Li  Li1  1  0.24906500  0.08304500  0.74940000  1
  Li  Li2  1  0.75523950  0.02943050  0.75017300  1
  Li  Li3  1  0.50000000  0.08307900  0.50000000  1
  Li  Li4  1  0.25249300  0.13724900  0.25012300  1
  Li  Li5  1  0.75093500  0.08304500  0.25060000  1
  Li  Li6  1  0.00000000  0.08333400  0.00000000  1
  Li  Li7  1  0.74750700  0.13724900  0.74987700  1
  Li  Li8  1  0.25151800  0.19605300  0.75039400  1
  Li  Li9  1  0.74848200  0.19605300  0.24960600  1
  Li  Li10  1  0.25003850  0.24997150  0.24999700  1
  Li  Li11  1  0.50000000  0.25001000  0.00000000  1
  Li  Li12  1  0.74996150  0.24997150  0.75000300  1
  Li  Li13  1  0.00000000  0.24988600  0.50000000  1
  Li  Li14  1  0.75163050  0.30387250  0.25048700  1
  Li  Li15  1  0.24836950  0.30387250  0.74951300  1
  Li  Li16  1  0.75172000  0.36278900  0.75051000  1
  Li  Li17  1  0.50000000  0.41727300  0.50000000  1
  Li  Li18  1  0.24828000  0.36278900  0.24949000  1
  Li  Li19  1  0.74968150  0.41657950  0.24980900  1
  Li  Li20  1  0.00000000  0.41669600  0.00000000  1
  Li  Li21  1  0.74586500  0.47079600  0.74855400  1
  Li  Li22  1  0.25031850  0.41657950  0.75019100  1
  Li  Li23  1  0.25413500  0.47079600  0.25144600  1
  Li  Li24  1  0.74476050  0.52943050  0.24982700  1
  Li  Li25  1  0.74906500  0.58304500  0.74940000  1
  Li  Li26  1  0.25523950  0.52943050  0.75017300  1
  Li  Li27  1  0.00000000  0.58307900  0.50000000  1
  Li  Li28  1  0.75249300  0.63724900  0.25012300  1
  Li  Li29  1  0.25093500  0.58304500  0.25060000  1
  Li  Li30  1  0.50000000  0.58333400  0.00000000  1
  Li  Li31  1  0.24750700  0.63724900  0.74987700  1
  Li  Li32  1  0.75151800  0.69605300  0.75039400  1
  Li  Li33  1  0.24848200  0.69605300  0.24960600  1
  Li  Li34  1  0.75003850  0.74997150  0.24999700  1
  Li  Li35  1  0.00000000  0.75001000  0.00000000  1
  Li  Li36  1  0.24996150  0.74997150  0.75000300  1
  Li  Li37  1  0.50000000  0.74988600  0.50000000  1
  Li  Li38  1  0.25163050  0.80387250  0.25048700  1
  Li  Li39  1  0.74836950  0.80387250  0.74951300  1
  Li  Li40  1  0.25172000  0.86278900  0.75051000  1
  Li  Li41  1  0.00000000  0.91727300  0.50000000  1
  Li  Li42  1  0.74828000  0.86278900  0.24949000  1
  Li  Li43  1  0.24968150  0.91657950  0.24980900  1
  Li  Li44  1  0.50000000  0.91669600  0.00000000  1
  Li  Li45  1  0.24586500  0.97079600  0.74855400  1
  Li  Li46  1  0.75031850  0.91657950  0.75019100  1
  Li  Li47  1  0.75413500  0.97079600  0.25144600  1
  Ti  Ti48  1  0.50000000  0.02740500  0.00000000  1
  Ti  Ti49  1  0.50000000  0.13898800  0.00000000  1
  Ti  Ti50  1  0.50000000  0.19410800  0.50000000  1
  Ti  Ti51  1  0.00000000  0.13881200  0.50000000  1
  Ti  Ti52  1  0.00000000  0.19410300  0.00000000  1
  Ti  Ti53  1  0.50000000  0.30589000  0.50000000  1
  Ti  Ti54  1  0.50000000  0.36080200  0.00000000  1
  Ti  Ti55  1  0.00000000  0.30572800  0.00000000  1
  Ti  Ti56  1  0.00000000  0.36100400  0.50000000  1
  Ti  Ti57  1  0.50000000  0.47242700  0.00000000  1
  Ti  Ti58  1  0.00000000  0.47264400  0.50000000  1
  Ti  Ti59  1  0.00000000  0.52740500  0.00000000  1
  Ti  Ti60  1  0.00000000  0.63898800  0.00000000  1
  Ti  Ti61  1  0.00000000  0.69410800  0.50000000  1
  Ti  Ti62  1  0.50000000  0.63881200  0.50000000  1
  Ti  Ti63  1  0.50000000  0.69410300  0.00000000  1
  Ti  Ti64  1  0.00000000  0.80589000  0.50000000  1
  Ti  Ti65  1  0.00000000  0.86080200  0.00000000  1
  Ti  Ti66  1  0.50000000  0.80572800  0.00000000  1
  Ti  Ti67  1  0.50000000  0.86100400  0.50000000  1
  Ti  Ti68  1  0.00000000  0.97242700  0.00000000  1
  Ti  Ti69  1  0.50000000  0.97264400  0.50000000  1
  Cr  Cr70  1  0.00000000  0.02818300  0.50000000  1
  Cr  Cr71  1  0.50000000  0.52818300  0.50000000  1
  O  O72  1  0.14047250  0.02397650  0.88670100  1
  O  O73  1  0.35107500  0.02439800  0.61164700  1
  O  O74  1  0.85952750  0.02397650  0.11329900  1
  O  O75  1  0.10595450  0.08285050  0.38544900  1
  O  O76  1  0.64892500  0.02439800  0.38835300  1
  O  O77  1  0.39538550  0.08329550  0.11567100  1
  O  O78  1  0.60461450  0.08329550  0.88432900  1
  O  O79  1  0.35961750  0.14252650  0.61367300  1
  O  O80  1  0.89404550  0.08285050  0.61455100  1
  O  O81  1  0.35953450  0.19063550  0.11339300  1
  O  O82  1  0.85950650  0.14261350  0.11341000  1
  O  O83  1  0.64038250  0.14252650  0.38632700  1
  O  O84  1  0.64046550  0.19063550  0.88660700  1
  O  O85  1  0.14049350  0.14261350  0.88659000  1
  O  O86  1  0.85919850  0.19029450  0.61349500  1
  O  O87  1  0.39516650  0.24993350  0.61542000  1
  O  O88  1  0.60483350  0.24993350  0.38458000  1
  O  O89  1  0.14080150  0.19029450  0.38650500  1
  O  O90  1  0.35934000  0.30931000  0.11336400  1
  O  O91  1  0.89531600  0.24996500  0.11555700  1
  O  O92  1  0.10468400  0.24996500  0.88444300  1
  O  O93  1  0.64066000  0.30931000  0.88663600  1
  O  O94  1  0.35937950  0.35732850  0.61328900  1
  O  O95  1  0.85955700  0.30937900  0.61342400  1
  O  O96  1  0.85948450  0.35730050  0.11345800  1
  O  O97  1  0.64062050  0.35732850  0.38671100  1
  O  O98  1  0.14044300  0.30937900  0.38657600  1
  O  O99  1  0.60470350  0.41663650  0.88446500  1
  O  O100  1  0.14051550  0.35730050  0.88654200  1
  O  O101  1  0.89731200  0.41690300  0.61600800  1
  O  O102  1  0.10268800  0.41690300  0.38399200  1
  O  O103  1  0.85931350  0.47605050  0.11362300  1
  O  O104  1  0.39529650  0.41663650  0.11553500  1
  O  O105  1  0.64107900  0.47622700  0.38735800  1
  O  O106  1  0.14068650  0.47605050  0.88637700  1
  O  O107  1  0.35892100  0.47622700  0.61264200  1
  O  O108  1  0.64047250  0.52397650  0.88670100  1
  O  O109  1  0.85107500  0.52439800  0.61164700  1
  O  O110  1  0.35952750  0.52397650  0.11329900  1
  O  O111  1  0.60595450  0.58285050  0.38544900  1
  O  O112  1  0.14892500  0.52439800  0.38835300  1
  O  O113  1  0.89538550  0.58329550  0.11567100  1
  O  O114  1  0.10461450  0.58329550  0.88432900  1
  O  O115  1  0.85961750  0.64252650  0.61367300  1
  O  O116  1  0.39404550  0.58285050  0.61455100  1
  O  O117  1  0.85953450  0.69063550  0.11339300  1
  O  O118  1  0.35950650  0.64261350  0.11341000  1
  O  O119  1  0.14038250  0.64252650  0.38632700  1
  O  O120  1  0.14046550  0.69063550  0.88660700  1
  O  O121  1  0.64049350  0.64261350  0.88659000  1
  O  O122  1  0.35919850  0.69029450  0.61349500  1
  O  O123  1  0.89516650  0.74993350  0.61542000  1
  O  O124  1  0.10483350  0.74993350  0.38458000  1
  O  O125  1  0.64080150  0.69029450  0.38650500  1
  O  O126  1  0.85934000  0.80931000  0.11336400  1
  O  O127  1  0.39531600  0.74996500  0.11555700  1
  O  O128  1  0.60468400  0.74996500  0.88444300  1
  O  O129  1  0.14066000  0.80931000  0.88663600  1
  O  O130  1  0.85937950  0.85732850  0.61328900  1
  O  O131  1  0.35955700  0.80937900  0.61342400  1
  O  O132  1  0.35948450  0.85730050  0.11345800  1
  O  O133  1  0.14062050  0.85732850  0.38671100  1
  O  O134  1  0.64044300  0.80937900  0.38657600  1
  O  O135  1  0.10470350  0.91663650  0.88446500  1
  O  O136  1  0.64051550  0.85730050  0.88654200  1
  O  O137  1  0.39731200  0.91690300  0.61600800  1
  O  O138  1  0.60268800  0.91690300  0.38399200  1
  O  O139  1  0.35931350  0.97605050  0.11362300  1
  O  O140  1  0.89529650  0.91663650  0.11553500  1
  O  O141  1  0.14107900  0.97622700  0.38735800  1
  O  O142  1  0.64068650  0.97605050  0.88637700  1
  O  O143  1  0.85892100  0.97622700  0.61264200  1
