# generated using pymatgen
data_Li3V2(PO4)3
_symmetry_space_group_name_H-M   'P 1'
_cell_length_a   15.18851800
_cell_length_b   8.71371800
_cell_length_c   8.73975671
_cell_angle_alpha   90.00000000
_cell_angle_beta   124.25981022
_cell_angle_gamma   90.00000000
_symmetry_Int_Tables_number   1
_chemical_formula_structural   Li3V2(PO4)3
_chemical_formula_sum   'Li12 V8 P12 O48'
_cell_volume   955.99940032
_cell_formula_units_Z   4
loop_
 _symmetry_equiv_pos_site_id
 _symmetry_equiv_pos_as_xyz
  1  'x, y, z'
loop_
 _atom_site_type_symbol
 _atom_site_label
 _atom_site_symmetry_multiplicity
 _atom_site_fract_x
 _atom_site_fract_y
 _atom_site_fract_z
 _atom_site_occupancy
  Li  Li0  1  0.19264650  0.15640050  0.82321300  1
  Li  Li1  1  0.31460550  0.57414250  0.79604900  1
  Li  Li2  1  0.19264650  0.84359950  0.32321300  1
  Li  Li3  1  0.49149650  0.87132750  0.75236300  1
  Li  Li4  1  0.49149650  0.12867250  0.25236300  1
  Li  Li5  1  0.31460550  0.42585750  0.29604900  1
  Li  Li6  1  0.69264650  0.65640050  0.82321300  1
  Li  Li7  1  0.81460550  0.07414250  0.79604900  1
  Li  Li8  1  0.69264650  0.34359950  0.32321300  1
  Li  Li9  1  0.99149650  0.37132750  0.75236300  1
  Li  Li10  1  0.99149650  0.62867250  0.25236300  1
  Li  Li11  1  0.81460550  0.92585750  0.29604900  1
  V  V12  1  0.10479100  0.25142200  0.14114800  1
  V  V13  1  0.10479100  0.74857800  0.64114800  1
  V  V14  1  0.39835300  0.24507300  0.85951300  1
  V  V15  1  0.39835300  0.75492700  0.35951300  1
  V  V16  1  0.60479100  0.75142200  0.14114800  1
  V  V17  1  0.60479100  0.24857800  0.64114800  1
  V  V18  1  0.89835300  0.74507300  0.85951300  1
  V  V19  1  0.89835300  0.25492700  0.35951300  1
  P  P20  1  0.36156450  0.11166650  0.45975500  1
  P  P21  1  0.14076550  0.61184750  0.04358200  1
  P  P22  1  0.36156450  0.88833350  0.95975500  1
  P  P23  1  0.14076550  0.38815250  0.54358200  1
  P  P24  1  0.49823150  0.45351050  0.24533800  1
  P  P25  1  0.49823150  0.54648950  0.74533800  1
  P  P26  1  0.86156450  0.61166650  0.45975500  1
  P  P27  1  0.64076550  0.11184750  0.04358200  1
  P  P28  1  0.86156450  0.38833350  0.95975500  1
  P  P29  1  0.64076550  0.88815250  0.54358200  1
  P  P30  1  0.99823150  0.95351050  0.24533800  1
  P  P31  1  0.99823150  0.04648950  0.74533800  1
  O  O32  1  0.26619450  0.21080950  0.31671100  1
  O  O33  1  0.11808650  0.36300950  0.35210400  1
  O  O34  1  0.43606850  0.45445850  0.80615400  1
  O  O35  1  0.45547550  0.83628550  0.94764400  1
  O  O36  1  0.26619450  0.78919050  0.81671100  1
  O  O37  1  0.43606850  0.54554150  0.30615400  1
  O  O38  1  0.08432550  0.15622050  0.90016300  1
  O  O39  1  0.04852900  0.67038100  0.05653100  1
  O  O40  1  0.24161850  0.69170350  0.20592400  1
  O  O41  1  0.06211950  0.05302350  0.19377600  1
  O  O42  1  0.16028250  0.43596550  0.08062700  1
  O  O43  1  0.41266100  0.35410300  0.08062100  1
  O  O44  1  0.45547550  0.16371450  0.44764400  1
  O  O45  1  0.08432550  0.84377950  0.40016300  1
  O  O46  1  0.16028250  0.56403450  0.58062700  1
  O  O47  1  0.06211950  0.94697650  0.69377600  1
  O  O48  1  0.33594550  0.06217750  0.91539200  1
  O  O49  1  0.33594550  0.93782250  0.41539200  1
  O  O50  1  0.39173950  0.87136350  0.15893200  1
  O  O51  1  0.24161850  0.30829650  0.70592400  1
  O  O52  1  0.11808650  0.63699050  0.85210400  1
  O  O53  1  0.04852900  0.32961900  0.55653100  1
  O  O54  1  0.41266100  0.64589700  0.58062100  1
  O  O55  1  0.39173950  0.12863650  0.65893200  1
  O  O56  1  0.76619450  0.71080950  0.31671100  1
  O  O57  1  0.61808650  0.86300950  0.35210400  1
  O  O58  1  0.93606850  0.95445850  0.80615400  1
  O  O59  1  0.95547550  0.33628550  0.94764400  1
  O  O60  1  0.76619450  0.28919050  0.81671100  1
  O  O61  1  0.93606850  0.04554150  0.30615400  1
  O  O62  1  0.58432550  0.65622050  0.90016300  1
  O  O63  1  0.54852900  0.17038100  0.05653100  1
  O  O64  1  0.74161850  0.19170350  0.20592400  1
  O  O65  1  0.56211950  0.55302350  0.19377600  1
  O  O66  1  0.66028250  0.93596550  0.08062700  1
  O  O67  1  0.91266100  0.85410300  0.08062100  1
  O  O68  1  0.95547550  0.66371450  0.44764400  1
  O  O69  1  0.58432550  0.34377950  0.40016300  1
  O  O70  1  0.66028250  0.06403450  0.58062700  1
  O  O71  1  0.56211950  0.44697650  0.69377600  1
  O  O72  1  0.83594550  0.56217750  0.91539200  1
  O  O73  1  0.83594550  0.43782250  0.41539200  1
  O  O74  1  0.89173950  0.37136350  0.15893200  1
  O  O75  1  0.74161850  0.80829650  0.70592400  1
  O  O76  1  0.61808650  0.13699050  0.85210400  1
  O  O77  1  0.54852900  0.82961900  0.55653100  1
  O  O78  1  0.91266100  0.14589700  0.58062100  1
  O  O79  1  0.89173950  0.62863650  0.65893200  1
