# generated using pymatgen
data_LiFeF4
_symmetry_space_group_name_H-M   'P 1'
_cell_length_a   10.39338000
_cell_length_b   9.13175000
_cell_length_c   7.23312473
_cell_angle_alpha   90.00000000
_cell_angle_beta   109.71305827
_cell_angle_gamma   90.00000000
_symmetry_Int_Tables_number   1
_chemical_formula_structural   LiFeF4
_chemical_formula_sum   'Li8 Fe8 F32'
_cell_volume   646.26116320
_cell_formula_units_Z   8
loop_
 _symmetry_equiv_pos_site_id
 _symmetry_equiv_pos_as_xyz
  1  'x, y, z'
loop_
 _atom_site_type_symbol
 _atom_site_label
 _atom_site_symmetry_multiplicity
 _atom_site_fract_x
 _atom_site_fract_y
 _atom_site_fract_z
 _atom_site_occupancy
  Li  Li0  1  0.77178400  0.50000000  0.39533200  1
  Li  Li1  1  0.00000000  0.24713300  0.00000000  1
  Li  Li2  1  0.00000000  0.75286700  0.00000000  1
  Li  Li3  1  0.22821600  0.50000000  0.60466800  1
  Li  Li4  1  0.27178400  0.00000000  0.39533200  1
  Li  Li5  1  0.50000000  0.74713300  0.00000000  1
  Li  Li6  1  0.50000000  0.25286700  0.00000000  1
  Li  Li7  1  0.72821600  0.00000000  0.60466800  1
  Fe  Fe8  1  0.71254950  0.50000000  0.87063300  1
  Fe  Fe9  1  0.00000000  0.80938900  0.50000000  1
  Fe  Fe10  1  0.00000000  0.19061100  0.50000000  1
  Fe  Fe11  1  0.28745050  0.50000000  0.12936700  1
  Fe  Fe12  1  0.21254950  0.00000000  0.87063300  1
  Fe  Fe13  1  0.50000000  0.30938900  0.50000000  1
  Fe  Fe14  1  0.50000000  0.69061100  0.50000000  1
  Fe  Fe15  1  0.78745050  0.00000000  0.12936700  1
  F  F16  1  0.63375500  0.50000000  0.54373600  1
  F  F17  1  0.83718100  0.35072400  0.88289900  1
  F  F18  1  0.83718100  0.64927600  0.88289900  1
  F  F19  1  0.69696300  0.50000000  0.12094300  1
  F  F20  1  0.86371300  0.67525300  0.48061100  1
  F  F21  1  0.86371300  0.32474700  0.48061100  1
  F  F22  1  0.05034800  0.14962300  0.78349900  1
  F  F23  1  0.05034800  0.85037700  0.78349900  1
  F  F24  1  0.94965200  0.14962300  0.21650100  1
  F  F25  1  0.94965200  0.85037700  0.21650100  1
  F  F26  1  0.13628700  0.67525300  0.51938900  1
  F  F27  1  0.13628700  0.32474700  0.51938900  1
  F  F28  1  0.30303700  0.50000000  0.87905700  1
  F  F29  1  0.16281900  0.35072400  0.11710100  1
  F  F30  1  0.16281900  0.64927600  0.11710100  1
  F  F31  1  0.36624500  0.50000000  0.45626400  1
  F  F32  1  0.13375500  0.00000000  0.54373600  1
  F  F33  1  0.33718100  0.85072400  0.88289900  1
  F  F34  1  0.33718100  0.14927600  0.88289900  1
  F  F35  1  0.19696300  0.00000000  0.12094300  1
  F  F36  1  0.36371300  0.17525300  0.48061100  1
  F  F37  1  0.36371300  0.82474700  0.48061100  1
  F  F38  1  0.55034800  0.64962300  0.78349900  1
  F  F39  1  0.55034800  0.35037700  0.78349900  1
  F  F40  1  0.44965200  0.64962300  0.21650100  1
  F  F41  1  0.44965200  0.35037700  0.21650100  1
  F  F42  1  0.63628700  0.17525300  0.51938900  1
  F  F43  1  0.63628700  0.82474700  0.51938900  1
  F  F44  1  0.80303700  0.00000000  0.87905700  1
  F  F45  1  0.66281900  0.85072400  0.11710100  1
  F  F46  1  0.66281900  0.14927600  0.11710100  1
  F  F47  1  0.86624500  0.00000000  0.45626400  1
