# generated using pymatgen
data_Na2CrPCO7
_symmetry_space_group_name_H-M   'P 1'
_cell_length_a   5.24211557
_cell_length_b   6.53792600
_cell_length_c   9.01903859
_cell_angle_alpha   90.00000000
_cell_angle_beta   91.82535851
_cell_angle_gamma   90.00000000
_symmetry_Int_Tables_number   1
_chemical_formula_structural   Na2CrPCO7
_chemical_formula_sum   'Na4 Cr2 P2 C2 O14'
_cell_volume   308.94872224
_cell_formula_units_Z   2
loop_
 _symmetry_equiv_pos_site_id
 _symmetry_equiv_pos_as_xyz
  1  'x, y, z'
loop_
 _atom_site_type_symbol
 _atom_site_label
 _atom_site_symmetry_multiplicity
 _atom_site_fract_x
 _atom_site_fract_y
 _atom_site_fract_z
 _atom_site_occupancy
  Na  Na0  1  0.26094000  0.50880500  0.23213300  1
  Na  Na1  1  0.26094000  0.99119500  0.23213300  1
  Na  Na2  1  0.73906000  0.49119500  0.76786700  1
  Na  Na3  1  0.73906000  0.00880500  0.76786700  1
  Cr  Cr4  1  0.28654000  0.75000000  0.64833200  1
  Cr  Cr5  1  0.71346000  0.25000000  0.35166800  1
  P  P6  1  0.78264900  0.75000000  0.42500000  1
  P  P7  1  0.21735100  0.25000000  0.57500000  1
  C  C8  1  0.77596400  0.25000000  0.08255000  1
  C  C9  1  0.22403600  0.75000000  0.91745000  1
  O  O10  1  0.19019800  0.75000000  0.05410300  1
  O  O11  1  0.80980200  0.25000000  0.94589700  1
  O  O12  1  0.55087100  0.25000000  0.14360100  1
  O  O13  1  0.44912900  0.75000000  0.85639900  1
  O  O14  1  0.96528800  0.25000000  0.18403800  1
  O  O15  1  0.03471200  0.75000000  0.81596200  1
  O  O16  1  0.34978200  0.25000000  0.42309300  1
  O  O17  1  0.65021800  0.75000000  0.57690700  1
  O  O18  1  0.07960200  0.75000000  0.45294500  1
  O  O19  1  0.92039800  0.25000000  0.54705500  1
  O  O20  1  0.70178500  0.94078800  0.33347400  1
  O  O21  1  0.70178500  0.55921200  0.33347400  1
  O  O22  1  0.29821500  0.44078800  0.66652600  1
  O  O23  1  0.29821500  0.05921200  0.66652600  1
