# generated using pymatgen
data_Ba4HfO6
_symmetry_space_group_name_H-M   'P 1'
_cell_length_a   10.52641621
_cell_length_b   10.52641621
_cell_length_c   13.05499671
_cell_angle_alpha   90.00000000
_cell_angle_beta   90.00000000
_cell_angle_gamma   120.00000000
_symmetry_Int_Tables_number   1
_chemical_formula_structural   Ba4HfO6
_chemical_formula_sum   'Ba24 Hf6 O36'
_cell_volume   1252.76171853
_cell_formula_units_Z   6
loop_
 _symmetry_equiv_pos_site_id
 _symmetry_equiv_pos_as_xyz
  1  'x, y, z'
loop_
 _atom_site_type_symbol
 _atom_site_label
 _atom_site_symmetry_multiplicity
 _atom_site_fract_x
 _atom_site_fract_y
 _atom_site_fract_z
 _atom_site_occupancy
  Ba  Ba0  1  0.03102967  0.33333333  0.08333333  1
  Ba  Ba1  1  0.00000000  0.63563700  0.25000000  1
  Ba  Ba2  1  0.36436300  0.36436300  0.25000000  1
  Ba  Ba3  1  0.33333333  0.66666667  0.91666667  1
  Ba  Ba4  1  0.33333333  0.66666667  0.41666667  1
  Ba  Ba5  1  0.30230367  0.96897033  0.08333333  1
  Ba  Ba6  1  0.66666667  0.69769633  0.08333333  1
  Ba  Ba7  1  0.63563700  0.00000000  0.25000000  1
  Ba  Ba8  1  0.69769633  0.66666667  0.41666667  1
  Ba  Ba9  1  0.66666667  0.96897033  0.58333333  1
  Ba  Ba10  1  0.03102967  0.69769633  0.58333333  1
  Ba  Ba11  1  0.00000000  0.00000000  0.25000000  1
  Ba  Ba12  1  0.00000000  0.00000000  0.75000000  1
  Ba  Ba13  1  0.96897033  0.30230367  0.41666667  1
  Ba  Ba14  1  0.33333333  0.03102967  0.41666667  1
  Ba  Ba15  1  0.30230367  0.33333333  0.58333333  1
  Ba  Ba16  1  0.36436300  0.00000000  0.75000000  1
  Ba  Ba17  1  0.33333333  0.30230367  0.91666667  1
  Ba  Ba18  1  0.69769633  0.03102967  0.91666667  1
  Ba  Ba19  1  0.66666667  0.33333333  0.58333333  1
  Ba  Ba20  1  0.66666667  0.33333333  0.08333333  1
  Ba  Ba21  1  0.63563700  0.63563700  0.75000000  1
  Ba  Ba22  1  0.00000000  0.36436300  0.75000000  1
  Ba  Ba23  1  0.96897033  0.66666667  0.91666667  1
  Hf  Hf24  1  0.33333333  0.66666667  0.16666667  1
  Hf  Hf25  1  0.00000000  0.00000000  0.00000000  1
  Hf  Hf26  1  1.00000000  0.00000000  0.50000000  1
  Hf  Hf27  1  0.66666667  0.33333333  0.33333333  1
  Hf  Hf28  1  0.66666667  0.33333333  0.83333333  1
  Hf  Hf29  1  0.33333333  0.66666667  0.66666667  1
  O  O30  1  0.81949200  0.31136400  0.23810100  1
  O  O31  1  0.17479467  0.15282533  0.09523233  1
  O  O32  1  0.18050800  0.49187200  0.26189900  1
  O  O33  1  0.97803067  0.82520533  0.09523233  1
  O  O34  1  0.15853867  0.64469733  0.07143433  1
  O  O35  1  0.35530267  0.51384133  0.07143433  1
  O  O36  1  0.31136400  0.81949200  0.26189900  1
  O  O37  1  0.50812800  0.68863600  0.26189900  1
  O  O38  1  0.68863600  0.50812800  0.23810100  1
  O  O39  1  0.48615867  0.84146133  0.07143433  1
  O  O40  1  0.49187200  0.18050800  0.23810100  1
  O  O41  1  0.84717467  0.02196933  0.09523233  1
  O  O42  1  0.48615867  0.64469733  0.57143433  1
  O  O43  1  0.84146133  0.48615867  0.42856567  1
  O  O44  1  0.84717467  0.82520533  0.59523233  1
  O  O45  1  0.64469733  0.15853867  0.42856567  1
  O  O46  1  0.82520533  0.97803067  0.40476767  1
  O  O47  1  0.02196933  0.84717467  0.40476767  1
  O  O48  1  0.97803067  0.15282533  0.59523233  1
  O  O49  1  0.17479467  0.02196933  0.59523233  1
  O  O50  1  0.35530267  0.84146133  0.57143433  1
  O  O51  1  0.15282533  0.17479467  0.40476767  1
  O  O52  1  0.15853867  0.51384133  0.57143433  1
  O  O53  1  0.51384133  0.35530267  0.42856567  1
  O  O54  1  0.15282533  0.97803067  0.90476767  1
  O  O55  1  0.50812800  0.81949200  0.76189900  1
  O  O56  1  0.51384133  0.15853867  0.92856567  1
  O  O57  1  0.31136400  0.49187200  0.76189900  1
  O  O58  1  0.49187200  0.31136400  0.73810100  1
  O  O59  1  0.68863600  0.18050800  0.73810100  1
  O  O60  1  0.64469733  0.48615867  0.92856567  1
  O  O61  1  0.84146133  0.35530267  0.92856567  1
  O  O62  1  0.02196933  0.17479467  0.90476767  1
  O  O63  1  0.81949200  0.50812800  0.73810100  1
  O  O64  1  0.82520533  0.84717467  0.90476767  1
  O  O65  1  0.18050800  0.68863600  0.76189900  1
