# generated using pymatgen
data_LiCuPO4
_symmetry_space_group_name_H-M   'P 1'
_cell_length_a   4.89441900
_cell_length_b   9.76270700
_cell_length_c   7.43297852
_cell_angle_alpha   90.00000000
_cell_angle_beta   98.40596075
_cell_angle_gamma   90.00000000
_symmetry_Int_Tables_number   1
_chemical_formula_structural   LiCuPO4
_chemical_formula_sum   'Li4 Cu4 P4 O16'
_cell_volume   351.35283970
_cell_formula_units_Z   4
loop_
 _symmetry_equiv_pos_site_id
 _symmetry_equiv_pos_as_xyz
  1  'x, y, z'
loop_
 _atom_site_type_symbol
 _atom_site_label
 _atom_site_symmetry_multiplicity
 _atom_site_fract_x
 _atom_site_fract_y
 _atom_site_fract_z
 _atom_site_occupancy
  Li  Li0  1  0.29972200  0.69231800  0.21690700  1
  Li  Li1  1  0.64911500  0.24499100  0.24712900  1
  Li  Li2  1  0.35088500  0.74499100  0.75287100  1
  Li  Li3  1  0.70027800  0.19231800  0.78309300  1
  Cu  Cu4  1  0.12893900  0.00219600  0.06002300  1
  Cu  Cu5  1  0.91276500  0.83934800  0.45951700  1
  Cu  Cu6  1  0.08723500  0.33934800  0.54048300  1
  Cu  Cu7  1  0.87106100  0.50219600  0.93997700  1
  P  P8  1  0.77095000  0.80330400  0.04484600  1
  P  P9  1  0.23219700  0.09945700  0.44568700  1
  P  P10  1  0.76780300  0.59945700  0.55431300  1
  P  P11  1  0.22905000  0.30330400  0.95515400  1
  O  O12  1  0.90941400  0.66203900  0.09427500  1
  O  O13  1  0.45591500  0.79263600  0.01802100  1
  O  O14  1  0.11634400  0.38091700  0.11205000  1
  O  O15  1  0.89305000  0.89935500  0.21102700  1
  O  O16  1  0.36157500  0.08592700  0.26683200  1
  O  O17  1  0.59431100  0.70841900  0.42989700  1
  O  O18  1  0.94309800  0.16937500  0.40759300  1
  O  O19  1  0.78241000  0.46080000  0.45509500  1
  O  O20  1  0.21759000  0.96080000  0.54490500  1
  O  O21  1  0.05690200  0.66937500  0.59240700  1
  O  O22  1  0.40568900  0.20841900  0.57010300  1
  O  O23  1  0.63842500  0.58592700  0.73316800  1
  O  O24  1  0.10695000  0.39935500  0.78897300  1
  O  O25  1  0.88365600  0.88091700  0.88795000  1
  O  O26  1  0.54408500  0.29263600  0.98197900  1
  O  O27  1  0.09058600  0.16203900  0.90572500  1
