# generated using pymatgen
data_SrCaI4
_symmetry_space_group_name_H-M   'P 1'
_cell_length_a   7.19542100
_cell_length_b   7.94285800
_cell_length_c   18.83531600
_cell_angle_alpha   90.00000000
_cell_angle_beta   90.00000000
_cell_angle_gamma   90.00000000
_symmetry_Int_Tables_number   1
_chemical_formula_structural   SrCaI4
_chemical_formula_sum   'Sr4 Ca4 I16'
_cell_volume   1076.47988371
_cell_formula_units_Z   4
loop_
 _symmetry_equiv_pos_site_id
 _symmetry_equiv_pos_as_xyz
  1  'x, y, z'
loop_
 _atom_site_type_symbol
 _atom_site_label
 _atom_site_symmetry_multiplicity
 _atom_site_fract_x
 _atom_site_fract_y
 _atom_site_fract_z
 _atom_site_occupancy
  Sr  Sr0  1  0.00000000  0.25000000  0.92914800  1
  Sr  Sr1  1  0.00000000  0.75000000  0.07085200  1
  Sr  Sr2  1  0.50000000  0.75000000  0.57085200  1
  Sr  Sr3  1  0.50000000  0.25000000  0.42914800  1
  Ca  Ca4  1  0.00000000  0.25000000  0.68232100  1
  Ca  Ca5  1  0.00000000  0.75000000  0.31767900  1
  Ca  Ca6  1  0.50000000  0.25000000  0.18232100  1
  Ca  Ca7  1  0.50000000  0.75000000  0.81767900  1
  I  I8  1  0.25791500  0.59143500  0.94083800  1
  I  I9  1  0.25791500  0.09143500  0.05916200  1
  I  I10  1  0.25276800  0.08623200  0.80187300  1
  I  I11  1  0.25276800  0.58623200  0.19812700  1
  I  I12  1  0.24723200  0.58623200  0.69812700  1
  I  I13  1  0.24723200  0.08623200  0.30187300  1
  I  I14  1  0.24208500  0.09143500  0.55916200  1
  I  I15  1  0.24208500  0.59143500  0.44083800  1
  I  I16  1  0.75791500  0.40856500  0.55916200  1
  I  I17  1  0.75791500  0.90856500  0.44083800  1
  I  I18  1  0.75276800  0.41376800  0.30187300  1
  I  I19  1  0.75276800  0.91376800  0.69812700  1
  I  I20  1  0.74723200  0.41376800  0.80187300  1
  I  I21  1  0.74723200  0.91376800  0.19812700  1
  I  I22  1  0.74208500  0.90856500  0.94083800  1
  I  I23  1  0.74208500  0.40856500  0.05916200  1
