# generated using pymatgen
data_K4Ti2H2O5F8
_symmetry_space_group_name_H-M   'P 1'
_cell_length_a   17.36707200
_cell_length_b   6.60972200
_cell_length_c   12.59588411
_cell_angle_alpha   90.00000000
_cell_angle_beta   118.71194623
_cell_angle_gamma   90.00000000
_symmetry_Int_Tables_number   1
_chemical_formula_structural   K4Ti2H2O5F8
_chemical_formula_sum   'K16 Ti8 H8 O20 F32'
_cell_volume   1268.12141251
_cell_formula_units_Z   4
loop_
 _symmetry_equiv_pos_site_id
 _symmetry_equiv_pos_as_xyz
  1  'x, y, z'
loop_
 _atom_site_type_symbol
 _atom_site_label
 _atom_site_symmetry_multiplicity
 _atom_site_fract_x
 _atom_site_fract_y
 _atom_site_fract_z
 _atom_site_occupancy
  K  K0  1  0.81696900  0.22670300  0.17115300  1
  K  K1  1  0.68303100  0.72670300  0.32884700  1
  K  K2  1  0.18303100  0.77329700  0.82884700  1
  K  K3  1  0.31696900  0.27329700  0.67115300  1
  K  K4  1  0.43017250  0.74495350  0.86441900  1
  K  K5  1  0.06982750  0.24495350  0.63558100  1
  K  K6  1  0.56982750  0.25504650  0.13558100  1
  K  K7  1  0.93017250  0.75504650  0.36441900  1
  K  K8  1  0.31696900  0.72670300  0.17115300  1
  K  K9  1  0.18303100  0.22670300  0.32884700  1
  K  K10  1  0.68303100  0.27329700  0.82884700  1
  K  K11  1  0.81696900  0.77329700  0.67115300  1
  K  K12  1  0.93017250  0.24495350  0.86441900  1
  K  K13  1  0.56982750  0.74495350  0.63558100  1
  K  K14  1  0.06982750  0.75504650  0.13558100  1
  K  K15  1  0.43017250  0.25504650  0.36441900  1
  Ti  Ti16  1  0.17003600  0.82929900  0.53194200  1
  Ti  Ti17  1  0.32996400  0.32929900  0.96805800  1
  Ti  Ti18  1  0.82996400  0.17070100  0.46805800  1
  Ti  Ti19  1  0.67003600  0.67070100  0.03194200  1
  Ti  Ti20  1  0.67003600  0.32929900  0.53194200  1
  Ti  Ti21  1  0.82996400  0.82929900  0.96805800  1
  Ti  Ti22  1  0.32996400  0.67070100  0.46805800  1
  Ti  Ti23  1  0.17003600  0.17070100  0.03194200  1
  H  H24  1  0.97347850  0.56925050  0.67990200  1
  H  H25  1  0.02652150  0.56925050  0.82009800  1
  H  H26  1  0.02652150  0.43074950  0.32009800  1
  H  H27  1  0.97347850  0.43074950  0.17990200  1
  H  H28  1  0.47347850  0.06925050  0.67990200  1
  H  H29  1  0.52652150  0.06925050  0.82009800  1
  H  H30  1  0.52652150  0.93074950  0.32009800  1
  H  H31  1  0.47347850  0.93074950  0.17990200  1
  O  O32  1  0.60597850  0.86533250  0.07220400  1
  O  O33  1  0.89402150  0.36533250  0.42779600  1
  O  O34  1  0.39402150  0.13466750  0.92779600  1
  O  O35  1  0.10597850  0.63466750  0.57220400  1
  O  O36  1  0.57921700  0.65604900  0.07615800  1
  O  O37  1  0.92078300  0.15604900  0.42384200  1
  O  O38  1  0.42078300  0.34395100  0.92384200  1
  O  O39  1  0.07921700  0.84395100  0.57615800  1
  O  O40  1  0.00000000  0.65793900  0.75000000  1
  O  O41  1  0.00000000  0.34206100  0.25000000  1
  O  O42  1  0.10597850  0.36533250  0.07220400  1
  O  O43  1  0.39402150  0.86533250  0.42779600  1
  O  O44  1  0.89402150  0.63466750  0.92779600  1
  O  O45  1  0.60597850  0.13466750  0.57220400  1
  O  O46  1  0.07921700  0.15604900  0.07615800  1
  O  O47  1  0.42078300  0.65604900  0.42384200  1
  O  O48  1  0.92078300  0.84395100  0.92384200  1
  O  O49  1  0.57921700  0.34395100  0.57615800  1
  O  O50  1  0.50000000  0.15793900  0.75000000  1
  O  O51  1  0.50000000  0.84206100  0.25000000  1
  F  F52  1  0.09344500  0.18811900  0.86184500  1
  F  F53  1  0.90655500  0.18811900  0.63815500  1
  F  F54  1  0.90655500  0.81188100  0.13815500  1
  F  F55  1  0.09344500  0.81188100  0.36184500  1
  F  F56  1  0.65709800  0.37516100  0.02195700  1
  F  F57  1  0.84290200  0.87516100  0.47804300  1
  F  F58  1  0.34290200  0.62483900  0.97804300  1
  F  F59  1  0.15709800  0.12483900  0.52195700  1
  F  F60  1  0.76371500  0.63732100  0.19379500  1
  F  F61  1  0.73628500  0.13732100  0.30620500  1
  F  F62  1  0.23628500  0.36267900  0.80620500  1
  F  F63  1  0.26371500  0.86267900  0.69379500  1
  F  F64  1  0.73102800  0.92295300  0.01467200  1
  F  F65  1  0.76897200  0.42295300  0.48532800  1
  F  F66  1  0.26897200  0.07704700  0.98532800  1
  F  F67  1  0.23102800  0.57704700  0.51467200  1
  F  F68  1  0.59344500  0.68811900  0.86184500  1
  F  F69  1  0.40655500  0.68811900  0.63815500  1
  F  F70  1  0.40655500  0.31188100  0.13815500  1
  F  F71  1  0.59344500  0.31188100  0.36184500  1
  F  F72  1  0.15709800  0.87516100  0.02195700  1
  F  F73  1  0.34290200  0.37516100  0.47804300  1
  F  F74  1  0.84290200  0.12483900  0.97804300  1
  F  F75  1  0.65709800  0.62483900  0.52195700  1
  F  F76  1  0.26371500  0.13732100  0.19379500  1
  F  F77  1  0.23628500  0.63732100  0.30620500  1
  F  F78  1  0.73628500  0.86267900  0.80620500  1
  F  F79  1  0.76371500  0.36267900  0.69379500  1
  F  F80  1  0.23102800  0.42295300  0.01467200  1
  F  F81  1  0.26897200  0.92295300  0.48532800  1
  F  F82  1  0.76897200  0.57704700  0.98532800  1
  F  F83  1  0.73102800  0.07704700  0.51467200  1
