# generated using pymatgen
data_Li4CrO4
_symmetry_space_group_name_H-M   'P 1'
_cell_length_a   7.45101050
_cell_length_b   7.93873400
_cell_length_c   6.16964000
_cell_angle_alpha   90.00000000
_cell_angle_beta   90.00000000
_cell_angle_gamma   90.00000000
_symmetry_Int_Tables_number   1
_chemical_formula_structural   Li4CrO4
_chemical_formula_sum   'Li16 Cr4 O16'
_cell_volume   364.94401814
_cell_formula_units_Z   4
loop_
 _symmetry_equiv_pos_site_id
 _symmetry_equiv_pos_as_xyz
  1  'x, y, z'
loop_
 _atom_site_type_symbol
 _atom_site_label
 _atom_site_symmetry_multiplicity
 _atom_site_fract_x
 _atom_site_fract_y
 _atom_site_fract_z
 _atom_site_occupancy
  Li  Li0  1  0.50000000  0.66100925  0.00000000  1
  Li  Li1  1  0.50000000  0.66100925  0.50000000  1
  Li  Li2  1  0.50000000  0.33899075  0.50000000  1
  Li  Li3  1  0.50000000  0.33899075  0.00000000  1
  Li  Li4  1  0.27341100  0.85219975  0.25000000  1
  Li  Li5  1  0.72658900  0.85219975  0.75000000  1
  Li  Li6  1  0.72658900  0.14780025  0.75000000  1
  Li  Li7  1  0.27341100  0.14780025  0.25000000  1
  Li  Li8  1  0.00000000  0.16100925  0.00000000  1
  Li  Li9  1  0.00000000  0.16100925  0.50000000  1
  Li  Li10  1  0.00000000  0.83899075  0.50000000  1
  Li  Li11  1  0.00000000  0.83899075  0.00000000  1
  Li  Li12  1  0.77341100  0.35219975  0.25000000  1
  Li  Li13  1  0.22658900  0.35219975  0.75000000  1
  Li  Li14  1  0.22658900  0.64780025  0.75000000  1
  Li  Li15  1  0.77341100  0.64780025  0.25000000  1
  Cr  Cr16  1  0.33915825  0.00000000  0.75000000  1
  Cr  Cr17  1  0.66084175  0.00000000  0.25000000  1
  Cr  Cr18  1  0.83915825  0.50000000  0.75000000  1
  Cr  Cr19  1  0.16084175  0.50000000  0.25000000  1
  O  O20  1  0.46250725  0.80317100  0.75000000  1
  O  O21  1  0.53749275  0.80317100  0.25000000  1
  O  O22  1  0.53749275  0.19682900  0.25000000  1
  O  O23  1  0.46250725  0.19682900  0.75000000  1
  O  O24  1  0.20324350  0.00000000  0.99498875  1
  O  O25  1  0.79675650  0.00000000  0.00501125  1
  O  O26  1  0.79675650  0.00000000  0.49498875  1
  O  O27  1  0.20324350  0.00000000  0.50501125  1
  O  O28  1  0.96250725  0.30317100  0.75000000  1
  O  O29  1  0.03749275  0.30317100  0.25000000  1
  O  O30  1  0.03749275  0.69682900  0.25000000  1
  O  O31  1  0.96250725  0.69682900  0.75000000  1
  O  O32  1  0.70324350  0.50000000  0.99498875  1
  O  O33  1  0.29675650  0.50000000  0.00501125  1
  O  O34  1  0.29675650  0.50000000  0.49498875  1
  O  O35  1  0.70324350  0.50000000  0.50501125  1
