# generated using pymatgen
data_Fe9(PO4)8
_symmetry_space_group_name_H-M   'P 1'
_cell_length_a   8.82180000
_cell_length_b   8.94020284
_cell_length_c   9.35225797
_cell_angle_alpha   111.46221879
_cell_angle_beta   101.80784955
_cell_angle_gamma   101.00497414
_symmetry_Int_Tables_number   1
_chemical_formula_structural   Fe9(PO4)8
_chemical_formula_sum   'Fe9 P8 O32'
_cell_volume   642.69790619
_cell_formula_units_Z   1
loop_
 _symmetry_equiv_pos_site_id
 _symmetry_equiv_pos_as_xyz
  1  'x, y, z'
loop_
 _atom_site_type_symbol
 _atom_site_label
 _atom_site_symmetry_multiplicity
 _atom_site_fract_x
 _atom_site_fract_y
 _atom_site_fract_z
 _atom_site_occupancy
  Fe  Fe0  1  0.79740900  0.26535200  0.06775200  1
  Fe  Fe1  1  0.28620900  0.14288600  0.57029800  1
  Fe  Fe2  1  0.31634000  0.70416500  0.45906300  1
  Fe  Fe3  1  0.00000000  0.50000000  0.50000000  1
  Fe  Fe4  1  0.71379100  0.85711400  0.42970200  1
  Fe  Fe5  1  0.68366000  0.29583500  0.54093700  1
  Fe  Fe6  1  0.50000000  0.50000000  0.00000000  1
  Fe  Fe7  1  0.20259100  0.73464800  0.93224800  1
  Fe  Fe8  1  0.00000000  0.00000000  0.00000000  1
  P  P9  1  0.39663400  0.96244400  0.29928000  1
  P  P10  1  0.83587800  0.61946500  0.90111500  1
  P  P11  1  0.16412200  0.38053500  0.09888500  1
  P  P12  1  0.66616100  0.45559100  0.27664500  1
  P  P13  1  0.93804800  0.12314100  0.34727100  1
  P  P14  1  0.33383900  0.54440900  0.72335500  1
  P  P15  1  0.60336600  0.03755600  0.70072000  1
  P  P16  1  0.06195200  0.87685900  0.65272900  1
  O  O17  1  0.19775800  0.49834300  0.28331100  1
  O  O18  1  0.12398200  0.17948200  0.41713800  1
  O  O19  1  0.89237200  0.12751200  0.17822500  1
  O  O20  1  0.13134500  0.74251300  0.54543800  1
  O  O21  1  0.71647800  0.13114600  0.63181400  1
  O  O22  1  0.18321400  0.20806000  0.07917100  1
  O  O23  1  0.86841900  0.94955600  0.34150700  1
  O  O24  1  0.98004100  0.35117200  0.01685300  1
  O  O25  1  0.69587700  0.06250700  0.86888800  1
  O  O26  1  0.55124200  0.91027100  0.29296200  1
  O  O27  1  0.37863200  0.58405500  0.59026700  1
  O  O28  1  0.14930600  0.52761800  0.70757600  1
  O  O29  1  0.10762800  0.87248800  0.82177500  1
  O  O30  1  0.72577100  0.52879100  0.96955500  1
  O  O31  1  0.28352200  0.86885400  0.36818600  1
  O  O32  1  0.30412300  0.93749300  0.13111200  1
  O  O33  1  0.80224200  0.50165700  0.71668900  1
  O  O34  1  0.85069400  0.47238200  0.29242400  1
  O  O35  1  0.01995900  0.64882800  0.98314700  1
  O  O36  1  0.81678600  0.79194000  0.92082900  1
  O  O37  1  0.55642000  0.84901400  0.57077500  1
  O  O38  1  0.13158100  0.05044400  0.65849300  1
  O  O39  1  0.27422900  0.47120900  0.03044500  1
  O  O40  1  0.41397200  0.68410900  0.89887900  1
  O  O41  1  0.44358000  0.15098600  0.42922500  1
  O  O42  1  0.87601800  0.82051800  0.58286200  1
  O  O43  1  0.86865500  0.25748700  0.45456200  1
  O  O44  1  0.62136800  0.41594500  0.40973300  1
  O  O45  1  0.58602800  0.31589100  0.10112100  1
  O  O46  1  0.37921900  0.38435000  0.72500300  1
  O  O47  1  0.62078100  0.61565000  0.27499700  1
  O  O48  1  0.44875800  0.08972900  0.70703800  1
