# generated using pymatgen
data_Ba3DyUFeO9
_symmetry_space_group_name_H-M   'P 1'
_cell_length_a   5.99836074
_cell_length_b   5.99836074
_cell_length_c   17.31818700
_cell_angle_alpha   90.00000000
_cell_angle_beta   90.00000000
_cell_angle_gamma   120.00000000
_symmetry_Int_Tables_number   1
_chemical_formula_structural   Ba3DyUFeO9
_chemical_formula_sum   'Ba6 Dy2 U2 Fe2 O18'
_cell_volume   539.63264976
_cell_formula_units_Z   2
loop_
 _symmetry_equiv_pos_site_id
 _symmetry_equiv_pos_as_xyz
  1  'x, y, z'
loop_
 _atom_site_type_symbol
 _atom_site_label
 _atom_site_symmetry_multiplicity
 _atom_site_fract_x
 _atom_site_fract_y
 _atom_site_fract_z
 _atom_site_occupancy
  Ba  Ba0  1  0.66666667  0.33333333  0.94804000  1
  Ba  Ba1  1  0.33333333  0.66666667  0.81869300  1
  Ba  Ba2  1  0.33333333  0.66666667  0.55274100  1
  Ba  Ba3  1  0.00000000  0.00000000  0.69697100  1
  Ba  Ba4  1  0.66666667  0.33333333  0.18370200  1
  Ba  Ba5  1  0.33333333  0.66666667  0.05511700  1
  Dy  Dy6  1  0.00000000  0.00000000  0.34042200  1
  Dy  Dy7  1  0.66666667  0.33333333  0.38464500  1
  U  U8  1  0.00000000  0.00000000  0.00108600  1
  U  U9  1  0.66666667  0.33333333  0.63873900  1
  Fe  Fe10  1  0.33333333  0.66666667  0.35272800  1
  Fe  Fe11  1  0.00000000  0.00000000  0.50294700  1
  O  O12  1  0.16515650  0.33031300  0.93249900  1
  O  O13  1  0.98844000  0.49422000  0.70605200  1
  O  O14  1  0.16515650  0.83484350  0.93249900  1
  O  O15  1  0.50578000  0.49422000  0.70605200  1
  O  O16  1  0.50578000  0.01156000  0.70605200  1
  O  O17  1  0.66968700  0.83484350  0.93249900  1
  O  O18  1  0.69116500  0.84558250  0.42631600  1
  O  O19  1  0.83915950  0.67831900  0.57009300  1
  O  O20  1  0.83915950  0.16084050  0.57009300  1
  O  O21  1  0.15441750  0.84558250  0.42631600  1
  O  O22  1  0.15441750  0.30883500  0.42631600  1
  O  O23  1  0.32168100  0.16084050  0.57009300  1
  O  O24  1  0.50440650  0.00881300  0.30409600  1
  O  O25  1  0.33067600  0.16533800  0.06900000  1
  O  O26  1  0.50440650  0.49559350  0.30409600  1
  O  O27  1  0.83466200  0.16533800  0.06900000  1
  O  O28  1  0.99118700  0.49559350  0.30409600  1
  O  O29  1  0.83466200  0.66932400  0.06900000  1
