# generated using pymatgen
data_LiCr2CoO6
_symmetry_space_group_name_H-M   'P 1'
_cell_length_a   12.85113032
_cell_length_b   2.90571161
_cell_length_c   5.93988782
_cell_angle_alpha   90.00000000
_cell_angle_beta   104.18598247
_cell_angle_gamma   90.00000000
_symmetry_Int_Tables_number   1
_chemical_formula_structural   LiCr2CoO6
_chemical_formula_sum   'Li2 Cr4 Co2 O12'
_cell_volume   215.04150140
_cell_formula_units_Z   2
loop_
 _symmetry_equiv_pos_site_id
 _symmetry_equiv_pos_as_xyz
  1  'x, y, z'
loop_
 _atom_site_type_symbol
 _atom_site_label
 _atom_site_symmetry_multiplicity
 _atom_site_fract_x
 _atom_site_fract_y
 _atom_site_fract_z
 _atom_site_occupancy
  Li  Li0  1  0.82911400  0.50000000  0.16121700  1
  Li  Li1  1  0.32911400  0.00000000  0.16121700  1
  Cr  Cr2  1  0.50724450  0.50000000  0.99166800  1
  Cr  Cr3  1  0.83085150  0.50000000  0.66523500  1
  Cr  Cr4  1  0.00724450  0.00000000  0.99166800  1
  Cr  Cr5  1  0.33085150  0.00000000  0.66523500  1
  Co  Co6  1  0.66348650  0.00000000  0.34174600  1
  Co  Co7  1  0.16348650  0.50000000  0.34174600  1
  O  O8  1  0.51161600  0.00000000  0.21917100  1
  O  O9  1  0.67124850  0.50000000  0.54795100  1
  O  O10  1  0.66317950  0.50000000  0.12713000  1
  O  O11  1  0.84813700  0.00000000  0.90809700  1
  O  O12  1  0.81520050  0.00000000  0.42507500  1
  O  O13  1  0.99204550  0.50000000  0.77966500  1
  O  O14  1  0.01161600  0.50000000  0.21917100  1
  O  O15  1  0.17124850  0.00000000  0.54795100  1
  O  O16  1  0.16317950  0.00000000  0.12713000  1
  O  O17  1  0.34813700  0.50000000  0.90809700  1
  O  O18  1  0.31520050  0.50000000  0.42507500  1
  O  O19  1  0.49204550  0.00000000  0.77966500  1
