# generated using pymatgen
data_ZnCrO4
_symmetry_space_group_name_H-M   'P 1'
_cell_length_a   10.04564400
_cell_length_b   9.29118000
_cell_length_c   6.84744046
_cell_angle_alpha   90.00000000
_cell_angle_beta   104.39234439
_cell_angle_gamma   90.00000000
_symmetry_Int_Tables_number   1
_chemical_formula_structural   ZnCrO4
_chemical_formula_sum   'Zn8 Cr8 O32'
_cell_volume   619.05428145
_cell_formula_units_Z   8
loop_
 _symmetry_equiv_pos_site_id
 _symmetry_equiv_pos_as_xyz
  1  'x, y, z'
loop_
 _atom_site_type_symbol
 _atom_site_label
 _atom_site_symmetry_multiplicity
 _atom_site_fract_x
 _atom_site_fract_y
 _atom_site_fract_z
 _atom_site_occupancy
  Zn  Zn0  1  0.70321100  0.50000000  0.87450500  1
  Zn  Zn1  1  0.00000000  0.18220800  0.50000000  1
  Zn  Zn2  1  0.00000000  0.81779200  0.50000000  1
  Zn  Zn3  1  0.29678900  0.50000000  0.12549500  1
  Zn  Zn4  1  0.20321100  0.00000000  0.87450500  1
  Zn  Zn5  1  0.50000000  0.68220800  0.50000000  1
  Zn  Zn6  1  0.50000000  0.31779200  0.50000000  1
  Zn  Zn7  1  0.79678900  0.00000000  0.12549500  1
  Cr  Cr8  1  0.77324000  0.50000000  0.41528000  1
  Cr  Cr9  1  0.00000000  0.25724900  0.00000000  1
  Cr  Cr10  1  0.00000000  0.74275100  0.00000000  1
  Cr  Cr11  1  0.22676000  0.50000000  0.58472000  1
  Cr  Cr12  1  0.27324000  0.00000000  0.41528000  1
  Cr  Cr13  1  0.50000000  0.75724900  0.00000000  1
  Cr  Cr14  1  0.50000000  0.24275100  0.00000000  1
  Cr  Cr15  1  0.72676000  0.00000000  0.58472000  1
  O  O16  1  0.64297300  0.50000000  0.54634200  1
  O  O17  1  0.70314200  0.50000000  0.17072000  1
  O  O18  1  0.86537350  0.64470350  0.89553400  1
  O  O19  1  0.86537350  0.35529650  0.89553400  1
  O  O20  1  0.86332450  0.35236250  0.47655700  1
  O  O21  1  0.86332450  0.64763750  0.47655700  1
  O  O22  1  0.04434350  0.84211550  0.81603200  1
  O  O23  1  0.04434350  0.15788450  0.81603200  1
  O  O24  1  0.95565650  0.84211550  0.18396800  1
  O  O25  1  0.95565650  0.15788450  0.18396800  1
  O  O26  1  0.13667550  0.35236250  0.52344300  1
  O  O27  1  0.13667550  0.64763750  0.52344300  1
  O  O28  1  0.13462650  0.64470350  0.10446600  1
  O  O29  1  0.13462650  0.35529650  0.10446600  1
  O  O30  1  0.29685800  0.50000000  0.82928000  1
  O  O31  1  0.35702700  0.50000000  0.45365800  1
  O  O32  1  0.14297300  0.00000000  0.54634200  1
  O  O33  1  0.20314200  0.00000000  0.17072000  1
  O  O34  1  0.36537350  0.14470350  0.89553400  1
  O  O35  1  0.36537350  0.85529650  0.89553400  1
  O  O36  1  0.36332450  0.85236250  0.47655700  1
  O  O37  1  0.36332450  0.14763750  0.47655700  1
  O  O38  1  0.54434350  0.34211550  0.81603200  1
  O  O39  1  0.54434350  0.65788450  0.81603200  1
  O  O40  1  0.45565650  0.34211550  0.18396800  1
  O  O41  1  0.45565650  0.65788450  0.18396800  1
  O  O42  1  0.63667550  0.85236250  0.52344300  1
  O  O43  1  0.63667550  0.14763750  0.52344300  1
  O  O44  1  0.63462650  0.14470350  0.10446600  1
  O  O45  1  0.63462650  0.85529650  0.10446600  1
  O  O46  1  0.79685800  0.00000000  0.82928000  1
  O  O47  1  0.85702700  0.00000000  0.45365800  1
