# generated using pymatgen
data_Na4Cr2P(CO4)4
_symmetry_space_group_name_H-M   'P 1'
_cell_length_a   13.66531800
_cell_length_b   13.79395000
_cell_length_c   14.27135800
_cell_angle_alpha   90.00000000
_cell_angle_beta   90.00000000
_cell_angle_gamma   90.00000000
_symmetry_Int_Tables_number   1
_chemical_formula_structural   Na4Cr2P(CO4)4
_chemical_formula_sum   'Na32 Cr16 P8 C32 O128'
_cell_volume   2690.13261899
_cell_formula_units_Z   8
loop_
 _symmetry_equiv_pos_site_id
 _symmetry_equiv_pos_as_xyz
  1  'x, y, z'
loop_
 _atom_site_type_symbol
 _atom_site_label
 _atom_site_symmetry_multiplicity
 _atom_site_fract_x
 _atom_site_fract_y
 _atom_site_fract_z
 _atom_site_occupancy
  Na  Na0  1  0.75000000  0.45984500  0.25000000  1
  Na  Na1  1  0.53989900  0.25000000  0.25000000  1
  Na  Na2  1  0.28989900  0.00000000  0.00000000  1
  Na  Na3  1  0.50000000  0.20984500  0.00000000  1
  Na  Na4  1  0.75000000  0.04015500  0.25000000  1
  Na  Na5  1  0.96010100  0.25000000  0.25000000  1
  Na  Na6  1  0.71010100  0.00000000  0.00000000  1
  Na  Na7  1  0.50000000  0.79015500  0.00000000  1
  Na  Na8  1  0.75000000  0.95984500  0.75000000  1
  Na  Na9  1  0.53989900  0.75000000  0.75000000  1
  Na  Na10  1  0.28989900  0.50000000  0.50000000  1
  Na  Na11  1  0.50000000  0.70984500  0.50000000  1
  Na  Na12  1  0.75000000  0.54015500  0.75000000  1
  Na  Na13  1  0.96010100  0.75000000  0.75000000  1
  Na  Na14  1  0.71010100  0.50000000  0.50000000  1
  Na  Na15  1  0.50000000  0.29015500  0.50000000  1
  Na  Na16  1  0.25000000  0.45984500  0.75000000  1
  Na  Na17  1  0.03989900  0.25000000  0.75000000  1
  Na  Na18  1  0.78989900  0.00000000  0.50000000  1
  Na  Na19  1  0.00000000  0.20984500  0.50000000  1
  Na  Na20  1  0.25000000  0.04015500  0.75000000  1
  Na  Na21  1  0.46010100  0.25000000  0.75000000  1
  Na  Na22  1  0.21010100  0.00000000  0.50000000  1
  Na  Na23  1  0.00000000  0.79015500  0.50000000  1
  Na  Na24  1  0.25000000  0.95984500  0.25000000  1
  Na  Na25  1  0.03989900  0.75000000  0.25000000  1
  Na  Na26  1  0.78989900  0.50000000  0.00000000  1
  Na  Na27  1  0.00000000  0.70984500  0.00000000  1
  Na  Na28  1  0.25000000  0.54015500  0.25000000  1
  Na  Na29  1  0.46010100  0.75000000  0.25000000  1
  Na  Na30  1  0.21010100  0.50000000  0.00000000  1
  Na  Na31  1  0.00000000  0.29015500  0.00000000  1
  Cr  Cr32  1  0.87500000  0.62500000  0.37500000  1
  Cr  Cr33  1  0.62500000  0.87500000  0.37500000  1
  Cr  Cr34  1  0.62500000  0.62500000  0.12500000  1
  Cr  Cr35  1  0.87500000  0.87500000  0.12500000  1
  Cr  Cr36  1  0.87500000  0.12500000  0.87500000  1
  Cr  Cr37  1  0.62500000  0.37500000  0.87500000  1
  Cr  Cr38  1  0.62500000  0.12500000  0.62500000  1
  Cr  Cr39  1  0.87500000  0.37500000  0.62500000  1
  Cr  Cr40  1  0.37500000  0.62500000  0.87500000  1
  Cr  Cr41  1  0.12500000  0.87500000  0.87500000  1
  Cr  Cr42  1  0.12500000  0.62500000  0.62500000  1
  Cr  Cr43  1  0.37500000  0.87500000  0.62500000  1
  Cr  Cr44  1  0.37500000  0.12500000  0.37500000  1
  Cr  Cr45  1  0.12500000  0.37500000  0.37500000  1
  Cr  Cr46  1  0.12500000  0.12500000  0.12500000  1
  Cr  Cr47  1  0.37500000  0.37500000  0.12500000  1
  P  P48  1  0.50000000  0.00000000  0.00000000  1
  P  P49  1  0.75000000  0.25000000  0.25000000  1
  P  P50  1  0.50000000  0.50000000  0.50000000  1
  P  P51  1  0.75000000  0.75000000  0.75000000  1
  P  P52  1  0.00000000  0.00000000  0.50000000  1
  P  P53  1  0.25000000  0.25000000  0.75000000  1
  P  P54  1  0.00000000  0.50000000  0.00000000  1
  P  P55  1  0.25000000  0.75000000  0.25000000  1
  C  C56  1  0.59044600  0.41110050  0.08454350  1
  C  C57  1  0.34044600  0.16110050  0.16545650  1
  C  C58  1  0.90955400  0.41110050  0.41545650  1
  C  C59  1  0.59044600  0.08889950  0.41545650  1
  C  C60  1  0.15955400  0.16110050  0.33454350  1
  C  C61  1  0.84044600  0.83889950  0.33454350  1
  C  C62  1  0.90955400  0.08889950  0.08454350  1
  C  C63  1  0.65955400  0.83889950  0.16545650  1
  C  C64  1  0.59044600  0.91110050  0.58454350  1
  C  C65  1  0.34044600  0.66110050  0.66545650  1
  C  C66  1  0.90955400  0.91110050  0.91545650  1
  C  C67  1  0.59044600  0.58889950  0.91545650  1
  C  C68  1  0.15955400  0.66110050  0.83454350  1
  C  C69  1  0.84044600  0.33889950  0.83454350  1
  C  C70  1  0.90955400  0.58889950  0.58454350  1
  C  C71  1  0.65955400  0.33889950  0.66545650  1
  C  C72  1  0.09044600  0.41110050  0.58454350  1
  C  C73  1  0.84044600  0.16110050  0.66545650  1
  C  C74  1  0.40955400  0.41110050  0.91545650  1
  C  C75  1  0.09044600  0.08889950  0.91545650  1
  C  C76  1  0.65955400  0.16110050  0.83454350  1
  C  C77  1  0.34044600  0.83889950  0.83454350  1
  C  C78  1  0.40955400  0.08889950  0.58454350  1
  C  C79  1  0.15955400  0.83889950  0.66545650  1
  C  C80  1  0.09044600  0.91110050  0.08454350  1
  C  C81  1  0.84044600  0.66110050  0.16545650  1
  C  C82  1  0.40955400  0.91110050  0.41545650  1
  C  C83  1  0.09044600  0.58889950  0.41545650  1
  C  C84  1  0.65955400  0.66110050  0.33454350  1
  C  C85  1  0.34044600  0.33889950  0.33454350  1
  C  C86  1  0.40955400  0.58889950  0.08454350  1
  C  C87  1  0.15955400  0.33889950  0.16545650  1
  O  O88  1  0.10622550  0.98052100  0.14375650  1
  O  O89  1  0.43425050  0.93409350  0.06157100  1
  O  O90  1  0.14702650  0.89991650  0.01276600  1
  O  O91  1  0.39702650  0.14991650  0.23723400  1
  O  O92  1  0.35297350  0.89991650  0.48723400  1
  O  O93  1  0.26952400  0.09980000  0.15018200  1
  O  O94  1  0.06574950  0.93409350  0.43842900  1
  O  O95  1  0.56574950  0.06590650  0.06157100  1
  O  O96  1  0.76952400  0.90020000  0.34981800  1
  O  O97  1  0.64702650  0.10008350  0.48723400  1
  O  O98  1  0.35622550  0.23052100  0.10624350  1
  O  O99  1  0.93425050  0.06590650  0.43842900  1
  O  O100  1  0.39377450  0.98052100  0.35624350  1
  O  O101  1  0.60622550  0.01947900  0.35624350  1
  O  O102  1  0.51952400  0.34980000  0.09981800  1
  O  O103  1  0.23047600  0.09980000  0.34981800  1
  O  O104  1  0.01952400  0.65020000  0.40018200  1
  O  O105  1  0.73047600  0.90020000  0.15018200  1
  O  O106  1  0.14377450  0.23052100  0.39375650  1
  O  O107  1  0.85622550  0.76947900  0.39375650  1
  O  O108  1  0.81574950  0.18409350  0.31157100  1
  O  O109  1  0.89377450  0.01947900  0.14375650  1
  O  O110  1  0.10297350  0.14991650  0.26276600  1
  O  O111  1  0.98047600  0.34980000  0.40018200  1
  O  O112  1  0.68425050  0.18409350  0.18842900  1
  O  O113  1  0.68425050  0.31590650  0.31157100  1
  O  O114  1  0.48047600  0.65020000  0.09981800  1
  O  O115  1  0.89702650  0.85008350  0.26276600  1
  O  O116  1  0.85297350  0.10008350  0.01276600  1
  O  O117  1  0.60297350  0.85008350  0.23723400  1
  O  O118  1  0.81574950  0.31590650  0.18842900  1
  O  O119  1  0.64377450  0.76947900  0.10624350  1
  O  O120  1  0.10622550  0.48052100  0.64375650  1
  O  O121  1  0.43425050  0.43409350  0.56157100  1
  O  O122  1  0.14702650  0.39991650  0.51276600  1
  O  O123  1  0.39702650  0.64991650  0.73723400  1
  O  O124  1  0.35297350  0.39991650  0.98723400  1
  O  O125  1  0.26952400  0.59980000  0.65018200  1
  O  O126  1  0.06574950  0.43409350  0.93842900  1
  O  O127  1  0.56574950  0.56590650  0.56157100  1
  O  O128  1  0.76952400  0.40020000  0.84981800  1
  O  O129  1  0.64702650  0.60008350  0.98723400  1
  O  O130  1  0.35622550  0.73052100  0.60624350  1
  O  O131  1  0.93425050  0.56590650  0.93842900  1
  O  O132  1  0.39377450  0.48052100  0.85624350  1
  O  O133  1  0.60622550  0.51947900  0.85624350  1
  O  O134  1  0.51952400  0.84980000  0.59981800  1
  O  O135  1  0.23047600  0.59980000  0.84981800  1
  O  O136  1  0.01952400  0.15020000  0.90018200  1
  O  O137  1  0.73047600  0.40020000  0.65018200  1
  O  O138  1  0.14377450  0.73052100  0.89375650  1
  O  O139  1  0.85622550  0.26947900  0.89375650  1
  O  O140  1  0.81574950  0.68409350  0.81157100  1
  O  O141  1  0.89377450  0.51947900  0.64375650  1
  O  O142  1  0.10297350  0.64991650  0.76276600  1
  O  O143  1  0.98047600  0.84980000  0.90018200  1
  O  O144  1  0.68425050  0.68409350  0.68842900  1
  O  O145  1  0.68425050  0.81590650  0.81157100  1
  O  O146  1  0.48047600  0.15020000  0.59981800  1
  O  O147  1  0.89702650  0.35008350  0.76276600  1
  O  O148  1  0.85297350  0.60008350  0.51276600  1
  O  O149  1  0.60297350  0.35008350  0.73723400  1
  O  O150  1  0.81574950  0.81590650  0.68842900  1
  O  O151  1  0.64377450  0.26947900  0.60624350  1
  O  O152  1  0.60622550  0.98052100  0.64375650  1
  O  O153  1  0.93425050  0.93409350  0.56157100  1
  O  O154  1  0.64702650  0.89991650  0.51276600  1
  O  O155  1  0.89702650  0.14991650  0.73723400  1
  O  O156  1  0.85297350  0.89991650  0.98723400  1
  O  O157  1  0.76952400  0.09980000  0.65018200  1
  O  O158  1  0.56574950  0.93409350  0.93842900  1
  O  O159  1  0.06574950  0.06590650  0.56157100  1
  O  O160  1  0.26952400  0.90020000  0.84981800  1
  O  O161  1  0.14702650  0.10008350  0.98723400  1
  O  O162  1  0.85622550  0.23052100  0.60624350  1
  O  O163  1  0.43425050  0.06590650  0.93842900  1
  O  O164  1  0.89377450  0.98052100  0.85624350  1
  O  O165  1  0.10622550  0.01947900  0.85624350  1
  O  O166  1  0.01952400  0.34980000  0.59981800  1
  O  O167  1  0.73047600  0.09980000  0.84981800  1
  O  O168  1  0.51952400  0.65020000  0.90018200  1
  O  O169  1  0.23047600  0.90020000  0.65018200  1
  O  O170  1  0.64377450  0.23052100  0.89375650  1
  O  O171  1  0.35622550  0.76947900  0.89375650  1
  O  O172  1  0.31574950  0.18409350  0.81157100  1
  O  O173  1  0.39377450  0.01947900  0.64375650  1
  O  O174  1  0.60297350  0.14991650  0.76276600  1
  O  O175  1  0.48047600  0.34980000  0.90018200  1
  O  O176  1  0.18425050  0.18409350  0.68842900  1
  O  O177  1  0.18425050  0.31590650  0.81157100  1
  O  O178  1  0.98047600  0.65020000  0.59981800  1
  O  O179  1  0.39702650  0.85008350  0.76276600  1
  O  O180  1  0.35297350  0.10008350  0.51276600  1
  O  O181  1  0.10297350  0.85008350  0.73723400  1
  O  O182  1  0.31574950  0.31590650  0.68842900  1
  O  O183  1  0.14377450  0.76947900  0.60624350  1
  O  O184  1  0.60622550  0.48052100  0.14375650  1
  O  O185  1  0.93425050  0.43409350  0.06157100  1
  O  O186  1  0.64702650  0.39991650  0.01276600  1
  O  O187  1  0.89702650  0.64991650  0.23723400  1
  O  O188  1  0.85297350  0.39991650  0.48723400  1
  O  O189  1  0.76952400  0.59980000  0.15018200  1
  O  O190  1  0.56574950  0.43409350  0.43842900  1
  O  O191  1  0.06574950  0.56590650  0.06157100  1
  O  O192  1  0.26952400  0.40020000  0.34981800  1
  O  O193  1  0.14702650  0.60008350  0.48723400  1
  O  O194  1  0.85622550  0.73052100  0.10624350  1
  O  O195  1  0.43425050  0.56590650  0.43842900  1
  O  O196  1  0.89377450  0.48052100  0.35624350  1
  O  O197  1  0.10622550  0.51947900  0.35624350  1
  O  O198  1  0.01952400  0.84980000  0.09981800  1
  O  O199  1  0.73047600  0.59980000  0.34981800  1
  O  O200  1  0.51952400  0.15020000  0.40018200  1
  O  O201  1  0.23047600  0.40020000  0.15018200  1
  O  O202  1  0.64377450  0.73052100  0.39375650  1
  O  O203  1  0.35622550  0.26947900  0.39375650  1
  O  O204  1  0.31574950  0.68409350  0.31157100  1
  O  O205  1  0.39377450  0.51947900  0.14375650  1
  O  O206  1  0.60297350  0.64991650  0.26276600  1
  O  O207  1  0.48047600  0.84980000  0.40018200  1
  O  O208  1  0.18425050  0.68409350  0.18842900  1
  O  O209  1  0.18425050  0.81590650  0.31157100  1
  O  O210  1  0.98047600  0.15020000  0.09981800  1
  O  O211  1  0.39702650  0.35008350  0.26276600  1
  O  O212  1  0.35297350  0.60008350  0.01276600  1
  O  O213  1  0.10297350  0.35008350  0.23723400  1
  O  O214  1  0.31574950  0.81590650  0.18842900  1
  O  O215  1  0.14377450  0.26947900  0.10624350  1
