# generated using pymatgen
data_VCrO3
_symmetry_space_group_name_H-M   'P 1'
_cell_length_a   5.12699319
_cell_length_b   5.49904413
_cell_length_c   8.82791832
_cell_angle_alpha   105.45597136
_cell_angle_beta   89.97797588
_cell_angle_gamma   117.72081329
_symmetry_Int_Tables_number   1
_chemical_formula_structural   VCrO3
_chemical_formula_sum   'V4 Cr4 O12'
_cell_volume   210.11675011
_cell_formula_units_Z   4
loop_
 _symmetry_equiv_pos_site_id
 _symmetry_equiv_pos_as_xyz
  1  'x, y, z'
loop_
 _atom_site_type_symbol
 _atom_site_label
 _atom_site_symmetry_multiplicity
 _atom_site_fract_x
 _atom_site_fract_y
 _atom_site_fract_z
 _atom_site_occupancy
  V  V0  1  0.78011097  0.62904873  0.92421060  1
  V  V1  1  0.47679267  0.12295015  0.82531029  1
  V  V2  1  0.97312657  0.62320965  0.32438632  1
  V  V3  1  0.72182982  0.87120278  0.57543502  1
  Cr  Cr4  1  0.27198429  0.12283159  0.42498327  1
  Cr  Cr5  1  0.02374775  0.37286490  0.67473073  1
  Cr  Cr6  1  0.52503907  0.87512779  0.17493247  1
  Cr  Cr7  1  0.22804496  0.37860782  0.07511873  1
  O  O8  1  0.52389601  0.47274215  0.27678216  1
  O  O9  1  0.02472501  0.97485639  0.77692486  1
  O  O10  1  0.57109700  0.12645625  0.62496646  1
  O  O11  1  0.93277606  0.37629976  0.87464583  1
  O  O12  1  0.47746803  0.22694237  0.02653630  1
  O  O13  1  0.97418792  0.72370076  0.52753323  1
  O  O14  1  0.02477836  0.27506485  0.47295018  1
  O  O15  1  0.52546044  0.77582142  0.97521304  1
  O  O16  1  0.07602704  0.62688712  0.12395564  1
  O  O17  1  0.42628858  0.87489473  0.37447825  1
  O  O18  1  0.97400032  0.02751136  0.22371404  1
  O  O19  1  0.46862215  0.52298143  0.72319359  1
