# generated using pymatgen
data_BaLa2O4
_symmetry_space_group_name_H-M   'P 1'
_cell_length_a   3.69976800
_cell_length_b   10.79769300
_cell_length_c   12.70460800
_cell_angle_alpha   90.00000000
_cell_angle_beta   90.00000000
_cell_angle_gamma   90.00000000
_symmetry_Int_Tables_number   1
_chemical_formula_structural   BaLa2O4
_chemical_formula_sum   'Ba4 La8 O16'
_cell_volume   507.53586455
_cell_formula_units_Z   4
loop_
 _symmetry_equiv_pos_site_id
 _symmetry_equiv_pos_as_xyz
  1  'x, y, z'
loop_
 _atom_site_type_symbol
 _atom_site_label
 _atom_site_symmetry_multiplicity
 _atom_site_fract_x
 _atom_site_fract_y
 _atom_site_fract_z
 _atom_site_occupancy
  Ba  Ba0  1  0.75000000  0.74962500  0.85362000  1
  Ba  Ba1  1  0.25000000  0.75037500  0.35362000  1
  Ba  Ba2  1  0.75000000  0.24962500  0.64638000  1
  Ba  Ba3  1  0.25000000  0.25037500  0.14638000  1
  La  La4  1  0.75000000  0.57541000  0.11336000  1
  La  La5  1  0.75000000  0.58074600  0.61188600  1
  La  La6  1  0.25000000  0.91925400  0.11188600  1
  La  La7  1  0.25000000  0.92459000  0.61336000  1
  La  La8  1  0.75000000  0.07541000  0.38664000  1
  La  La9  1  0.75000000  0.08074600  0.88811400  1
  La  La10  1  0.25000000  0.41925400  0.38811400  1
  La  La11  1  0.25000000  0.42459000  0.88664000  1
  O  O12  1  0.25000000  0.51404900  0.21728600  1
  O  O13  1  0.75000000  0.57079500  0.42381700  1
  O  O14  1  0.25000000  0.62384800  0.98238700  1
  O  O15  1  0.25000000  0.71247000  0.67309600  1
  O  O16  1  0.75000000  0.78753000  0.17309600  1
  O  O17  1  0.75000000  0.87615200  0.48238700  1
  O  O18  1  0.25000000  0.92920500  0.92381700  1
  O  O19  1  0.75000000  0.98595100  0.71728600  1
  O  O20  1  0.25000000  0.01404900  0.28271400  1
  O  O21  1  0.75000000  0.07079500  0.07618300  1
  O  O22  1  0.25000000  0.12384800  0.51761300  1
  O  O23  1  0.25000000  0.21247000  0.82690400  1
  O  O24  1  0.75000000  0.28753000  0.32690400  1
  O  O25  1  0.75000000  0.37615200  0.01761300  1
  O  O26  1  0.25000000  0.42920500  0.57618300  1
  O  O27  1  0.75000000  0.48595100  0.78271400  1
