# generated using pymatgen
data_Li6Mn2C4SO16
_symmetry_space_group_name_H-M   'P 1'
_cell_length_a   13.46405200
_cell_length_b   13.46405200
_cell_length_c   13.46405200
_cell_angle_alpha   90.00000000
_cell_angle_beta   90.00000000
_cell_angle_gamma   90.00000000
_symmetry_Int_Tables_number   1
_chemical_formula_structural   Li6Mn2C4SO16
_chemical_formula_sum   'Li48 Mn16 C32 S8 O128'
_cell_volume   2440.77272102
_cell_formula_units_Z   8
loop_
 _symmetry_equiv_pos_site_id
 _symmetry_equiv_pos_as_xyz
  1  'x, y, z'
loop_
 _atom_site_type_symbol
 _atom_site_label
 _atom_site_symmetry_multiplicity
 _atom_site_fract_x
 _atom_site_fract_y
 _atom_site_fract_z
 _atom_site_occupancy
  Li  Li0  1  0.75000000  0.03318900  0.75000000  1
  Li  Li1  1  0.00000000  0.78318900  0.00000000  1
  Li  Li2  1  0.46681100  0.75000000  0.75000000  1
  Li  Li3  1  0.03318900  0.75000000  0.75000000  1
  Li  Li4  1  0.00000000  0.00000000  0.21681100  1
  Li  Li5  1  0.00000000  0.00000000  0.78318900  1
  Li  Li6  1  0.25000000  0.75000000  0.53318900  1
  Li  Li7  1  0.25000000  0.75000000  0.96681100  1
  Li  Li8  1  0.21681100  0.00000000  0.00000000  1
  Li  Li9  1  0.00000000  0.21681100  0.00000000  1
  Li  Li10  1  0.78318900  0.00000000  0.00000000  1
  Li  Li11  1  0.25000000  0.96681100  0.75000000  1
  Li  Li12  1  0.75000000  0.53318900  0.25000000  1
  Li  Li13  1  0.00000000  0.28318900  0.50000000  1
  Li  Li14  1  0.46681100  0.25000000  0.25000000  1
  Li  Li15  1  0.03318900  0.25000000  0.25000000  1
  Li  Li16  1  0.00000000  0.50000000  0.71681100  1
  Li  Li17  1  0.00000000  0.50000000  0.28318900  1
  Li  Li18  1  0.25000000  0.25000000  0.03318900  1
  Li  Li19  1  0.25000000  0.25000000  0.46681100  1
  Li  Li20  1  0.21681100  0.50000000  0.50000000  1
  Li  Li21  1  0.00000000  0.71681100  0.50000000  1
  Li  Li22  1  0.78318900  0.50000000  0.50000000  1
  Li  Li23  1  0.25000000  0.46681100  0.25000000  1
  Li  Li24  1  0.25000000  0.03318900  0.25000000  1
  Li  Li25  1  0.50000000  0.78318900  0.50000000  1
  Li  Li26  1  0.96681100  0.75000000  0.25000000  1
  Li  Li27  1  0.53318900  0.75000000  0.25000000  1
  Li  Li28  1  0.50000000  0.00000000  0.71681100  1
  Li  Li29  1  0.50000000  0.00000000  0.28318900  1
  Li  Li30  1  0.75000000  0.75000000  0.03318900  1
  Li  Li31  1  0.75000000  0.75000000  0.46681100  1
  Li  Li32  1  0.71681100  0.00000000  0.50000000  1
  Li  Li33  1  0.50000000  0.21681100  0.50000000  1
  Li  Li34  1  0.28318900  0.00000000  0.50000000  1
  Li  Li35  1  0.75000000  0.96681100  0.25000000  1
  Li  Li36  1  0.25000000  0.53318900  0.75000000  1
  Li  Li37  1  0.50000000  0.28318900  0.00000000  1
  Li  Li38  1  0.96681100  0.25000000  0.75000000  1
  Li  Li39  1  0.53318900  0.25000000  0.75000000  1
  Li  Li40  1  0.50000000  0.50000000  0.21681100  1
  Li  Li41  1  0.50000000  0.50000000  0.78318900  1
  Li  Li42  1  0.75000000  0.25000000  0.53318900  1
  Li  Li43  1  0.75000000  0.25000000  0.96681100  1
  Li  Li44  1  0.71681100  0.50000000  0.00000000  1
  Li  Li45  1  0.50000000  0.71681100  0.00000000  1
  Li  Li46  1  0.28318900  0.50000000  0.00000000  1
  Li  Li47  1  0.75000000  0.46681100  0.75000000  1
  Mn  Mn48  1  0.87500000  0.87500000  0.62500000  1
  Mn  Mn49  1  0.87500000  0.12500000  0.37500000  1
  Mn  Mn50  1  0.12500000  0.87500000  0.37500000  1
  Mn  Mn51  1  0.12500000  0.12500000  0.62500000  1
  Mn  Mn52  1  0.87500000  0.37500000  0.12500000  1
  Mn  Mn53  1  0.87500000  0.62500000  0.87500000  1
  Mn  Mn54  1  0.12500000  0.37500000  0.87500000  1
  Mn  Mn55  1  0.12500000  0.62500000  0.12500000  1
  Mn  Mn56  1  0.37500000  0.87500000  0.12500000  1
  Mn  Mn57  1  0.37500000  0.12500000  0.87500000  1
  Mn  Mn58  1  0.62500000  0.87500000  0.87500000  1
  Mn  Mn59  1  0.62500000  0.12500000  0.12500000  1
  Mn  Mn60  1  0.37500000  0.37500000  0.62500000  1
  Mn  Mn61  1  0.37500000  0.62500000  0.37500000  1
  Mn  Mn62  1  0.62500000  0.37500000  0.37500000  1
  Mn  Mn63  1  0.62500000  0.62500000  0.62500000  1
  C  C64  1  0.89869400  0.10130600  0.60130600  1
  C  C65  1  0.14869400  0.85130600  0.14869400  1
  C  C66  1  0.14869400  0.14869400  0.85130600  1
  C  C67  1  0.39869400  0.89869400  0.89869400  1
  C  C68  1  0.85130600  0.85130600  0.85130600  1
  C  C69  1  0.60130600  0.10130600  0.89869400  1
  C  C70  1  0.10130600  0.89869400  0.60130600  1
  C  C71  1  0.85130600  0.14869400  0.14869400  1
  C  C72  1  0.89869400  0.60130600  0.10130600  1
  C  C73  1  0.14869400  0.35130600  0.64869400  1
  C  C74  1  0.14869400  0.64869400  0.35130600  1
  C  C75  1  0.39869400  0.39869400  0.39869400  1
  C  C76  1  0.85130600  0.35130600  0.35130600  1
  C  C77  1  0.60130600  0.60130600  0.39869400  1
  C  C78  1  0.10130600  0.39869400  0.10130600  1
  C  C79  1  0.85130600  0.64869400  0.64869400  1
  C  C80  1  0.39869400  0.10130600  0.10130600  1
  C  C81  1  0.64869400  0.85130600  0.64869400  1
  C  C82  1  0.64869400  0.14869400  0.35130600  1
  C  C83  1  0.89869400  0.89869400  0.39869400  1
  C  C84  1  0.35130600  0.85130600  0.35130600  1
  C  C85  1  0.10130600  0.10130600  0.39869400  1
  C  C86  1  0.60130600  0.89869400  0.10130600  1
  C  C87  1  0.35130600  0.14869400  0.64869400  1
  C  C88  1  0.39869400  0.60130600  0.60130600  1
  C  C89  1  0.64869400  0.35130600  0.14869400  1
  C  C90  1  0.64869400  0.64869400  0.85130600  1
  C  C91  1  0.89869400  0.39869400  0.89869400  1
  C  C92  1  0.35130600  0.35130600  0.85130600  1
  C  C93  1  0.10130600  0.60130600  0.89869400  1
  C  C94  1  0.60130600  0.39869400  0.60130600  1
  C  C95  1  0.35130600  0.64869400  0.14869400  1
  S  S96  1  0.00000000  0.00000000  0.00000000  1
  S  S97  1  0.25000000  0.75000000  0.75000000  1
  S  S98  1  0.00000000  0.50000000  0.50000000  1
  S  S99  1  0.25000000  0.25000000  0.25000000  1
  S  S100  1  0.50000000  0.00000000  0.50000000  1
  S  S101  1  0.75000000  0.75000000  0.25000000  1
  S  S102  1  0.50000000  0.50000000  0.00000000  1
  S  S103  1  0.75000000  0.25000000  0.75000000  1
  O  O104  1  0.93582700  0.06417300  0.93582700  1
  O  O105  1  0.93582700  0.93582700  0.06417300  1
  O  O106  1  0.06417300  0.06417300  0.06417300  1
  O  O107  1  0.06417300  0.93582700  0.93582700  1
  O  O108  1  0.91797150  0.78144500  0.85461350  1
  O  O109  1  0.41797150  0.21855500  0.64538650  1
  O  O110  1  0.64538650  0.91797150  0.71855500  1
  O  O111  1  0.89538650  0.16797150  0.53144500  1
  O  O112  1  0.58202850  0.78144500  0.64538650  1
  O  O113  1  0.08202850  0.21855500  0.85461350  1
  O  O114  1  0.21855500  0.85461350  0.08202850  1
  O  O115  1  0.96855500  0.10461350  0.66797150  1
  O  O116  1  0.53144500  0.10461350  0.83202850  1
  O  O117  1  0.28144500  0.85461350  0.41797150  1
  O  O118  1  0.60461350  0.16797150  0.96855500  1
  O  O119  1  0.85461350  0.91797150  0.78144500  1
  O  O120  1  0.14538650  0.08202850  0.78144500  1
  O  O121  1  0.39538650  0.83202850  0.96855500  1
  O  O122  1  0.46855500  0.89538650  0.83202850  1
  O  O123  1  0.71855500  0.14538650  0.41797150  1
  O  O124  1  0.78144500  0.14538650  0.08202850  1
  O  O125  1  0.03144500  0.89538650  0.66797150  1
  O  O126  1  0.66797150  0.03144500  0.89538650  1
  O  O127  1  0.16797150  0.96855500  0.60461350  1
  O  O128  1  0.10461350  0.83202850  0.53144500  1
  O  O129  1  0.35461350  0.08202850  0.71855500  1
  O  O130  1  0.83202850  0.03144500  0.60461350  1
  O  O131  1  0.33202850  0.96855500  0.89538650  1
  O  O132  1  0.18582700  0.81417300  0.81417300  1
  O  O133  1  0.68582700  0.18582700  0.68582700  1
  O  O134  1  0.31417300  0.81417300  0.68582700  1
  O  O135  1  0.81417300  0.18582700  0.81417300  1
  O  O136  1  0.93582700  0.56417300  0.43582700  1
  O  O137  1  0.93582700  0.43582700  0.56417300  1
  O  O138  1  0.06417300  0.56417300  0.56417300  1
  O  O139  1  0.06417300  0.43582700  0.43582700  1
  O  O140  1  0.91797150  0.28144500  0.35461350  1
  O  O141  1  0.41797150  0.71855500  0.14538650  1
  O  O142  1  0.64538650  0.41797150  0.21855500  1
  O  O143  1  0.89538650  0.66797150  0.03144500  1
  O  O144  1  0.58202850  0.28144500  0.14538650  1
  O  O145  1  0.08202850  0.71855500  0.35461350  1
  O  O146  1  0.21855500  0.35461350  0.58202850  1
  O  O147  1  0.96855500  0.60461350  0.16797150  1
  O  O148  1  0.53144500  0.60461350  0.33202850  1
  O  O149  1  0.28144500  0.35461350  0.91797150  1
  O  O150  1  0.60461350  0.66797150  0.46855500  1
  O  O151  1  0.85461350  0.41797150  0.28144500  1
  O  O152  1  0.14538650  0.58202850  0.28144500  1
  O  O153  1  0.39538650  0.33202850  0.46855500  1
  O  O154  1  0.46855500  0.39538650  0.33202850  1
  O  O155  1  0.71855500  0.64538650  0.91797150  1
  O  O156  1  0.78144500  0.64538650  0.58202850  1
  O  O157  1  0.03144500  0.39538650  0.16797150  1
  O  O158  1  0.66797150  0.53144500  0.39538650  1
  O  O159  1  0.16797150  0.46855500  0.10461350  1
  O  O160  1  0.10461350  0.33202850  0.03144500  1
  O  O161  1  0.35461350  0.58202850  0.21855500  1
  O  O162  1  0.83202850  0.53144500  0.10461350  1
  O  O163  1  0.33202850  0.46855500  0.39538650  1
  O  O164  1  0.18582700  0.31417300  0.31417300  1
  O  O165  1  0.68582700  0.68582700  0.18582700  1
  O  O166  1  0.31417300  0.31417300  0.18582700  1
  O  O167  1  0.81417300  0.68582700  0.31417300  1
  O  O168  1  0.43582700  0.06417300  0.43582700  1
  O  O169  1  0.43582700  0.93582700  0.56417300  1
  O  O170  1  0.56417300  0.06417300  0.56417300  1
  O  O171  1  0.56417300  0.93582700  0.43582700  1
  O  O172  1  0.41797150  0.78144500  0.35461350  1
  O  O173  1  0.91797150  0.21855500  0.14538650  1
  O  O174  1  0.14538650  0.91797150  0.21855500  1
  O  O175  1  0.39538650  0.16797150  0.03144500  1
  O  O176  1  0.08202850  0.78144500  0.14538650  1
  O  O177  1  0.58202850  0.21855500  0.35461350  1
  O  O178  1  0.71855500  0.85461350  0.58202850  1
  O  O179  1  0.46855500  0.10461350  0.16797150  1
  O  O180  1  0.03144500  0.10461350  0.33202850  1
  O  O181  1  0.78144500  0.85461350  0.91797150  1
  O  O182  1  0.10461350  0.16797150  0.46855500  1
  O  O183  1  0.35461350  0.91797150  0.28144500  1
  O  O184  1  0.64538650  0.08202850  0.28144500  1
  O  O185  1  0.89538650  0.83202850  0.46855500  1
  O  O186  1  0.96855500  0.89538650  0.33202850  1
  O  O187  1  0.21855500  0.14538650  0.91797150  1
  O  O188  1  0.28144500  0.14538650  0.58202850  1
  O  O189  1  0.53144500  0.89538650  0.16797150  1
  O  O190  1  0.16797150  0.03144500  0.39538650  1
  O  O191  1  0.66797150  0.96855500  0.10461350  1
  O  O192  1  0.60461350  0.83202850  0.03144500  1
  O  O193  1  0.85461350  0.08202850  0.21855500  1
  O  O194  1  0.33202850  0.03144500  0.10461350  1
  O  O195  1  0.83202850  0.96855500  0.39538650  1
  O  O196  1  0.68582700  0.81417300  0.31417300  1
  O  O197  1  0.18582700  0.18582700  0.18582700  1
  O  O198  1  0.81417300  0.81417300  0.18582700  1
  O  O199  1  0.31417300  0.18582700  0.31417300  1
  O  O200  1  0.43582700  0.56417300  0.93582700  1
  O  O201  1  0.43582700  0.43582700  0.06417300  1
  O  O202  1  0.56417300  0.56417300  0.06417300  1
  O  O203  1  0.56417300  0.43582700  0.93582700  1
  O  O204  1  0.41797150  0.28144500  0.85461350  1
  O  O205  1  0.91797150  0.71855500  0.64538650  1
  O  O206  1  0.14538650  0.41797150  0.71855500  1
  O  O207  1  0.39538650  0.66797150  0.53144500  1
  O  O208  1  0.08202850  0.28144500  0.64538650  1
  O  O209  1  0.58202850  0.71855500  0.85461350  1
  O  O210  1  0.71855500  0.35461350  0.08202850  1
  O  O211  1  0.46855500  0.60461350  0.66797150  1
  O  O212  1  0.03144500  0.60461350  0.83202850  1
  O  O213  1  0.78144500  0.35461350  0.41797150  1
  O  O214  1  0.10461350  0.66797150  0.96855500  1
  O  O215  1  0.35461350  0.41797150  0.78144500  1
  O  O216  1  0.64538650  0.58202850  0.78144500  1
  O  O217  1  0.89538650  0.33202850  0.96855500  1
  O  O218  1  0.96855500  0.39538650  0.83202850  1
  O  O219  1  0.21855500  0.64538650  0.41797150  1
  O  O220  1  0.28144500  0.64538650  0.08202850  1
  O  O221  1  0.53144500  0.39538650  0.66797150  1
  O  O222  1  0.16797150  0.53144500  0.89538650  1
  O  O223  1  0.66797150  0.46855500  0.60461350  1
  O  O224  1  0.60461350  0.33202850  0.53144500  1
  O  O225  1  0.85461350  0.58202850  0.71855500  1
  O  O226  1  0.33202850  0.53144500  0.60461350  1
  O  O227  1  0.83202850  0.46855500  0.89538650  1
  O  O228  1  0.68582700  0.31417300  0.81417300  1
  O  O229  1  0.18582700  0.68582700  0.68582700  1
  O  O230  1  0.81417300  0.31417300  0.68582700  1
  O  O231  1  0.31417300  0.68582700  0.81417300  1
