# generated using pymatgen
data_Fe3OF5
_symmetry_space_group_name_H-M   'P 1'
_cell_length_a   9.24899240
_cell_length_b   6.98806338
_cell_length_c   7.31584912
_cell_angle_alpha   90.00000000
_cell_angle_beta   110.01438385
_cell_angle_gamma   90.00000000
_symmetry_Int_Tables_number   1
_chemical_formula_structural   Fe3OF5
_chemical_formula_sum   'Fe12 O4 F20'
_cell_volume   444.28547573
_cell_formula_units_Z   4
loop_
 _symmetry_equiv_pos_site_id
 _symmetry_equiv_pos_as_xyz
  1  'x, y, z'
loop_
 _atom_site_type_symbol
 _atom_site_label
 _atom_site_symmetry_multiplicity
 _atom_site_fract_x
 _atom_site_fract_y
 _atom_site_fract_z
 _atom_site_occupancy
  Fe  Fe0  1  0.83746250  0.50000000  0.83018850  1
  Fe  Fe1  1  0.50000000  0.50000000  0.00000000  1
  Fe  Fe2  1  0.81233750  0.50000000  0.34576950  1
  Fe  Fe3  1  0.50000000  0.50000000  0.50000000  1
  Fe  Fe4  1  0.16253750  0.50000000  0.16981150  1
  Fe  Fe5  1  0.18766250  0.50000000  0.65423050  1
  Fe  Fe6  1  0.33746250  0.00000000  0.83018850  1
  Fe  Fe7  1  0.00000000  0.00000000  0.00000000  1
  Fe  Fe8  1  0.31233750  0.00000000  0.34576950  1
  Fe  Fe9  1  0.00000000  0.00000000  0.50000000  1
  Fe  Fe10  1  0.66253750  0.00000000  0.16981150  1
  Fe  Fe11  1  0.68766250  0.00000000  0.65423050  1
  O  O12  1  0.41823750  0.50000000  0.71634750  1
  O  O13  1  0.58176250  0.50000000  0.28365250  1
  O  O14  1  0.91823750  0.00000000  0.71634750  1
  O  O15  1  0.08176250  0.00000000  0.28365250  1
  F  F16  1  0.50000000  0.79751050  0.00000000  1
  F  F17  1  0.83485300  0.81088350  0.34932450  1
  F  F18  1  0.04729350  0.50000000  0.35771650  1
  F  F19  1  0.72646650  0.50000000  0.02534350  1
  F  F20  1  0.95270650  0.50000000  0.64228350  1
  F  F21  1  0.27353350  0.50000000  0.97465650  1
  F  F22  1  0.83485300  0.18911650  0.34932450  1
  F  F23  1  0.50000000  0.20248950  0.00000000  1
  F  F24  1  0.66514700  0.68911650  0.65067550  1
  F  F25  1  0.66514700  0.31088350  0.65067550  1
  F  F26  1  0.00000000  0.29751050  0.00000000  1
  F  F27  1  0.33485300  0.31088350  0.34932450  1
  F  F28  1  0.54729350  0.00000000  0.35771650  1
  F  F29  1  0.22646650  0.00000000  0.02534350  1
  F  F30  1  0.45270650  0.00000000  0.64228350  1
  F  F31  1  0.77353350  0.00000000  0.97465650  1
  F  F32  1  0.33485300  0.68911650  0.34932450  1
  F  F33  1  0.00000000  0.70248950  0.00000000  1
  F  F34  1  0.16514700  0.18911650  0.65067550  1
  F  F35  1  0.16514700  0.81088350  0.65067550  1
