# generated using pymatgen
data_Ti3CrNi2(PO4)6
_symmetry_space_group_name_H-M   'P 1'
_cell_length_a   8.61094387
_cell_length_b   8.61094387
_cell_length_c   20.69859564
_cell_angle_alpha   90.00000000
_cell_angle_beta   90.00000000
_cell_angle_gamma   120.00000000
_symmetry_Int_Tables_number   1
_chemical_formula_structural   Ti3CrNi2(PO4)6
_chemical_formula_sum   'Ti9 Cr3 Ni6 P18 O72'
_cell_volume   1329.14704099
_cell_formula_units_Z   3
loop_
 _symmetry_equiv_pos_site_id
 _symmetry_equiv_pos_as_xyz
  1  'x, y, z'
loop_
 _atom_site_type_symbol
 _atom_site_label
 _atom_site_symmetry_multiplicity
 _atom_site_fract_x
 _atom_site_fract_y
 _atom_site_fract_z
 _atom_site_occupancy
  Ti  Ti0  1  0.33333333  0.66666667  0.80978867  1
  Ti  Ti1  1  0.33333333  0.66666667  0.02220867  1
  Ti  Ti2  1  0.33333333  0.66666667  0.31074367  1
  Ti  Ti3  1  0.00000000  0.00000000  0.14312200  1
  Ti  Ti4  1  0.00000000  0.00000000  0.35554200  1
  Ti  Ti5  1  0.00000000  0.00000000  0.64407700  1
  Ti  Ti6  1  0.66666667  0.33333333  0.47645533  1
  Ti  Ti7  1  0.66666667  0.33333333  0.68887533  1
  Ti  Ti8  1  0.66666667  0.33333333  0.97741033  1
  Cr  Cr9  1  0.33333333  0.66666667  0.52567167  1
  Cr  Cr10  1  0.00000000  0.00000000  0.85900500  1
  Cr  Cr11  1  0.66666667  0.33333333  0.19233833  1
  Ni  Ni12  1  0.33333333  0.66666667  0.66675467  1
  Ni  Ni13  1  0.33333333  0.66666667  0.16554567  1
  Ni  Ni14  1  0.00000000  0.00000000  0.00008800  1
  Ni  Ni15  1  0.00000000  0.00000000  0.49887900  1
  Ni  Ni16  1  0.66666667  0.33333333  0.33342133  1
  Ni  Ni17  1  0.66666667  0.33333333  0.83221233  1
  P  P18  1  0.29578467  0.29523133  0.24951133  1
  P  P19  1  0.70476867  0.00055333  0.24951133  1
  P  P20  1  0.99944667  0.70421533  0.24951133  1
  P  P21  1  0.66621000  0.62606200  0.08447600  1
  P  P22  1  0.95985200  0.33379000  0.08447600  1
  P  P23  1  0.37393800  0.04014800  0.08447600  1
  P  P24  1  0.96245133  0.62856467  0.58284467  1
  P  P25  1  0.37143533  0.33388667  0.58284467  1
  P  P26  1  0.66611333  0.03754867  0.58284467  1
  P  P27  1  0.33287667  0.95939533  0.41780933  1
  P  P28  1  0.62651867  0.66712333  0.41780933  1
  P  P29  1  0.04060467  0.37348133  0.41780933  1
  P  P30  1  0.62911800  0.96189800  0.91617800  1
  P  P31  1  0.03810200  0.66722000  0.91617800  1
  P  P32  1  0.33278000  0.37088200  0.91617800  1
  P  P33  1  0.99954333  0.29272867  0.75114267  1
  P  P34  1  0.29318533  0.00045667  0.75114267  1
  P  P35  1  0.70727133  0.70681467  0.75114267  1
  O  O36  1  0.34034467  0.47731233  0.97692933  1
  O  O37  1  0.52268767  0.86303233  0.97692933  1
  O  O38  1  0.83562267  0.81585733  0.07511333  1
  O  O39  1  0.13696767  0.65965533  0.97692933  1
  O  O40  1  0.66847367  0.53055533  0.14523133  1
  O  O41  1  0.49824667  0.65017033  0.08985033  1
  O  O42  1  0.98023467  0.16437733  0.07511333  1
  O  O43  1  0.15192367  0.50175333  0.08985033  1
  O  O44  1  0.19587867  0.19054333  0.18872233  1
  O  O45  1  0.34982967  0.84807633  0.08985033  1
  O  O46  1  0.48370367  0.31481633  0.25848433  1
  O  O47  1  0.80945667  0.00533533  0.18872233  1
  O  O48  1  0.86208167  0.33152633  0.14523133  1
  O  O49  1  0.18414267  0.01976533  0.07511333  1
  O  O50  1  0.31432400  0.48418600  0.24202800  1
  O  O51  1  0.46944467  0.13791833  0.14523133  1
  O  O52  1  0.51581400  0.83013800  0.24202800  1
  O  O53  1  0.68518367  0.16888733  0.25848433  1
  O  O54  1  0.16986200  0.68567600  0.24202800  1
  O  O55  1  0.99466467  0.80412133  0.18872233  1
  O  O56  1  0.52679767  0.67248133  0.35608233  1
  O  O57  1  0.83111267  0.51629633  0.25848433  1
  O  O58  1  0.14568367  0.47320233  0.35608233  1
  O  O59  1  0.32751867  0.85431633  0.35608233  1
  O  O60  1  0.00701133  0.81064567  0.31026267  1
  O  O61  1  0.18935433  0.19636567  0.31026267  1
  O  O62  1  0.50228933  0.14919067  0.40844667  1
  O  O63  1  0.80363433  0.99298867  0.31026267  1
  O  O64  1  0.33514033  0.86388867  0.47856467  1
  O  O65  1  0.16491333  0.98350367  0.42318367  1
  O  O66  1  0.64690133  0.49771067  0.40844667  1
  O  O67  1  0.81859033  0.83508667  0.42318367  1
  O  O68  1  0.86254533  0.52387667  0.52205567  1
  O  O69  1  0.01649633  0.18140967  0.42318367  1
  O  O70  1  0.15037033  0.64814967  0.59181767  1
  O  O71  1  0.47612333  0.33866867  0.52205567  1
  O  O72  1  0.52874833  0.66485967  0.47856467  1
  O  O73  1  0.85080933  0.35309867  0.40844667  1
  O  O74  1  0.98099067  0.81751933  0.57536133  1
  O  O75  1  0.13611133  0.47125167  0.47856467  1
  O  O76  1  0.18248067  0.16347133  0.57536133  1
  O  O77  1  0.35185033  0.50222067  0.59181767  1
  O  O78  1  0.83652867  0.01900933  0.57536133  1
  O  O79  1  0.66133133  0.13745467  0.52205567  1
  O  O80  1  0.19346433  0.00581467  0.68941567  1
  O  O81  1  0.49777933  0.84962967  0.59181767  1
  O  O82  1  0.81235033  0.80653567  0.68941567  1
  O  O83  1  0.99418533  0.18764967  0.68941567  1
  O  O84  1  0.67367800  0.14397900  0.64359600  1
  O  O85  1  0.85602100  0.52969900  0.64359600  1
  O  O86  1  0.16895600  0.48252400  0.74178000  1
  O  O87  1  0.47030100  0.32632200  0.64359600  1
  O  O88  1  0.00180700  0.19722200  0.81189800  1
  O  O89  1  0.83158000  0.31683700  0.75651700  1
  O  O90  1  0.31356800  0.83104400  0.74178000  1
  O  O91  1  0.48525700  0.16842000  0.75651700  1
  O  O92  1  0.52921200  0.85721000  0.85538900  1
  O  O93  1  0.68316300  0.51474300  0.75651700  1
  O  O94  1  0.81703700  0.98148300  0.92515100  1
  O  O95  1  0.14279000  0.67200200  0.85538900  1
  O  O96  1  0.19541500  0.99819300  0.81189800  1
  O  O97  1  0.51747600  0.68643200  0.74178000  1
  O  O98  1  0.64765733  0.15085267  0.90869467  1
  O  O99  1  0.80277800  0.80458500  0.81189800  1
  O  O100  1  0.84914733  0.49680467  0.90869467  1
  O  O101  1  0.01851700  0.83555400  0.92515100  1
  O  O102  1  0.50319533  0.35234267  0.90869467  1
  O  O103  1  0.32799800  0.47078800  0.85538900  1
  O  O104  1  0.86013100  0.33914800  0.02274900  1
  O  O105  1  0.16444600  0.18296300  0.92515100  1
  O  O106  1  0.47901700  0.13986900  0.02274900  1
  O  O107  1  0.66085200  0.52098300  0.02274900  1
