# generated using pymatgen
data_YAl3O6
_symmetry_space_group_name_H-M   'P 1'
_cell_length_a   11.19729000
_cell_length_b   9.28371600
_cell_length_c   5.88754684
_cell_angle_alpha   90.00000000
_cell_angle_beta   119.93818750
_cell_angle_gamma   90.00000000
_symmetry_Int_Tables_number   1
_chemical_formula_structural   YAl3O6
_chemical_formula_sum   'Y4 Al12 O24'
_cell_volume   530.35900755
_cell_formula_units_Z   4
loop_
 _symmetry_equiv_pos_site_id
 _symmetry_equiv_pos_as_xyz
  1  'x, y, z'
loop_
 _atom_site_type_symbol
 _atom_site_label
 _atom_site_symmetry_multiplicity
 _atom_site_fract_x
 _atom_site_fract_y
 _atom_site_fract_z
 _atom_site_occupancy
  Y  Y0  1  0.00000000  0.73885400  0.25000000  1
  Y  Y1  1  0.00000000  0.26114600  0.75000000  1
  Y  Y2  1  0.50000000  0.23885400  0.25000000  1
  Y  Y3  1  0.50000000  0.76114600  0.75000000  1
  Al  Al4  1  0.78248600  0.57440500  0.75492000  1
  Al  Al5  1  0.00000000  0.17324600  0.25000000  1
  Al  Al6  1  0.78248600  0.42559500  0.25492000  1
  Al  Al7  1  0.21751400  0.57440500  0.74508000  1
  Al  Al8  1  0.00000000  0.82675400  0.75000000  1
  Al  Al9  1  0.21751400  0.42559500  0.24508000  1
  Al  Al10  1  0.28248600  0.07440500  0.75492000  1
  Al  Al11  1  0.50000000  0.67324600  0.25000000  1
  Al  Al12  1  0.28248600  0.92559500  0.25492000  1
  Al  Al13  1  0.71751400  0.07440500  0.74508000  1
  Al  Al14  1  0.50000000  0.32675400  0.75000000  1
  Al  Al15  1  0.71751400  0.92559500  0.24508000  1
  O  O16  1  0.83138800  0.44374200  0.59597800  1
  O  O17  1  0.11540450  0.27157050  0.19165500  1
  O  O18  1  0.89716700  0.10961900  0.91953800  1
  O  O19  1  0.83138800  0.55625800  0.09597800  1
  O  O20  1  0.10283300  0.10961900  0.58046200  1
  O  O21  1  0.88459550  0.27157050  0.30834500  1
  O  O22  1  0.11540450  0.72842950  0.69165500  1
  O  O23  1  0.89716700  0.89038100  0.41953800  1
  O  O24  1  0.16861200  0.44374200  0.90402200  1
  O  O25  1  0.10283300  0.89038100  0.08046200  1
  O  O26  1  0.88459550  0.72842950  0.80834500  1
  O  O27  1  0.16861200  0.55625800  0.40402200  1
  O  O28  1  0.33138800  0.94374200  0.59597800  1
  O  O29  1  0.61540450  0.77157050  0.19165500  1
  O  O30  1  0.39716700  0.60961900  0.91953800  1
  O  O31  1  0.33138800  0.05625800  0.09597800  1
  O  O32  1  0.60283300  0.60961900  0.58046200  1
  O  O33  1  0.38459550  0.77157050  0.30834500  1
  O  O34  1  0.61540450  0.22842950  0.69165500  1
  O  O35  1  0.39716700  0.39038100  0.41953800  1
  O  O36  1  0.66861200  0.94374200  0.90402200  1
  O  O37  1  0.60283300  0.39038100  0.08046200  1
  O  O38  1  0.38459550  0.22842950  0.80834500  1
  O  O39  1  0.66861200  0.05625800  0.40402200  1
