# generated using pymatgen
data_Ti3Sb2(PO4)6
_symmetry_space_group_name_H-M   'P 1'
_cell_length_a   8.71669985
_cell_length_b   8.71669985
_cell_length_c   21.68427693
_cell_angle_alpha   90.00000000
_cell_angle_beta   90.00000000
_cell_angle_gamma   120.00000000
_symmetry_Int_Tables_number   1
_chemical_formula_structural   Ti3Sb2(PO4)6
_chemical_formula_sum   'Ti9 Sb6 P18 O72'
_cell_volume   1426.85473231
_cell_formula_units_Z   3
loop_
 _symmetry_equiv_pos_site_id
 _symmetry_equiv_pos_as_xyz
  1  'x, y, z'
loop_
 _atom_site_type_symbol
 _atom_site_label
 _atom_site_symmetry_multiplicity
 _atom_site_fract_x
 _atom_site_fract_y
 _atom_site_fract_z
 _atom_site_occupancy
  Ti  Ti0  1  0.00000000  0.00000000  0.13728200  1
  Ti  Ti1  1  0.33333333  0.66666667  0.01655667  1
  Ti  Ti2  1  0.33333333  0.66666667  0.32251367  1
  Ti  Ti3  1  0.66666667  0.33333333  0.47061533  1
  Ti  Ti4  1  0.00000000  0.00000000  0.34989000  1
  Ti  Ti5  1  0.00000000  0.00000000  0.65584700  1
  Ti  Ti6  1  0.33333333  0.66666667  0.80394867  1
  Ti  Ti7  1  0.66666667  0.33333333  0.68322333  1
  Ti  Ti8  1  0.66666667  0.33333333  0.98918033  1
  Sb  Sb9  1  0.66666667  0.33333333  0.30171233  1
  Sb  Sb10  1  0.33333333  0.66666667  0.16427867  1
  Sb  Sb11  1  0.33333333  0.66666667  0.63504567  1
  Sb  Sb12  1  0.00000000  0.00000000  0.49761200  1
  Sb  Sb13  1  0.00000000  0.00000000  0.96837900  1
  Sb  Sb14  1  0.66666667  0.33333333  0.83094533  1
  P  P15  1  0.27956400  0.29177200  0.24721000  1
  P  P16  1  0.70822800  0.98779200  0.24721000  1
  P  P17  1  0.01220800  0.72043600  0.24721000  1
  P  P18  1  0.66078400  0.62261100  0.09092800  1
  P  P19  1  0.96182700  0.33921600  0.09092800  1
  P  P20  1  0.37738900  0.03817300  0.09092800  1
  P  P21  1  0.94623067  0.62510533  0.58054333  1
  P  P22  1  0.37489467  0.32112533  0.58054333  1
  P  P23  1  0.67887467  0.05376933  0.58054333  1
  P  P24  1  0.32745067  0.95594433  0.42426133  1
  P  P25  1  0.62849367  0.67254933  0.42426133  1
  P  P26  1  0.04405567  0.37150633  0.42426133  1
  P  P27  1  0.61289733  0.95843867  0.91387667  1
  P  P28  1  0.04156133  0.65445867  0.91387667  1
  P  P29  1  0.34554133  0.38710267  0.91387667  1
  P  P30  1  0.99411733  0.28927767  0.75759467  1
  P  P31  1  0.29516033  0.00588267  0.75759467  1
  P  P32  1  0.71072233  0.70483967  0.75759467  1
  O  O33  1  0.01777067  0.82384233  0.30604333  1
  O  O34  1  0.17615767  0.19392833  0.30604333  1
  O  O35  1  0.83112500  0.80986000  0.08473200  1
  O  O36  1  0.80607167  0.98222933  0.30604333  1
  O  O37  1  0.63056033  0.52832267  0.14997867  1
  O  O38  1  0.50078733  0.65991967  0.07969067  1
  O  O39  1  0.97873500  0.16887500  0.08473200  1
  O  O40  1  0.15913233  0.49921267  0.07969067  1
  O  O41  1  0.17831367  0.19638033  0.18918633  1
  O  O42  1  0.34008033  0.84086767  0.07969067  1
  O  O43  1  0.46221467  0.30537033  0.25047833  1
  O  O44  1  0.80361967  0.98193333  0.18918633  1
  O  O45  1  0.89776233  0.36943967  0.14997867  1
  O  O46  1  0.19014000  0.02126500  0.08473200  1
  O  O47  1  0.30147600  0.48127400  0.24865000  1
  O  O48  1  0.47167733  0.10223767  0.14997867  1
  O  O49  1  0.51872600  0.82020200  0.24865000  1
  O  O50  1  0.69462967  0.15684433  0.25047833  1
  O  O51  1  0.17979800  0.69852400  0.24865000  1
  O  O52  1  0.01806667  0.82168633  0.18918633  1
  O  O53  1  0.84997967  0.32836233  0.03096933  1
  O  O54  1  0.84315567  0.53778533  0.25047833  1
  O  O55  1  0.47838267  0.15002033  0.03096933  1
  O  O56  1  0.67163767  0.52161733  0.03096933  1
  O  O57  1  0.68443733  0.15717567  0.63937667  1
  O  O58  1  0.84282433  0.52726167  0.63937667  1
  O  O59  1  0.49779167  0.14319333  0.41806533  1
  O  O60  1  0.47273833  0.31556267  0.63937667  1
  O  O61  1  0.29722700  0.86165600  0.48331200  1
  O  O62  1  0.16745400  0.99325300  0.41302400  1
  O  O63  1  0.64540167  0.50220833  0.41806533  1
  O  O64  1  0.82579900  0.83254600  0.41302400  1
  O  O65  1  0.84498033  0.52971367  0.52251967  1
  O  O66  1  0.00674700  0.17420100  0.41302400  1
  O  O67  1  0.12888133  0.63870367  0.58381167  1
  O  O68  1  0.47028633  0.31526667  0.52251967  1
  O  O69  1  0.56442900  0.70277300  0.48331200  1
  O  O70  1  0.85680667  0.35459833  0.41806533  1
  O  O71  1  0.96814267  0.81460733  0.58198333  1
  O  O72  1  0.13834400  0.43557100  0.48331200  1
  O  O73  1  0.18539267  0.15353533  0.58198333  1
  O  O74  1  0.36129633  0.49017767  0.58381167  1
  O  O75  1  0.84646467  0.03185733  0.58198333  1
  O  O76  1  0.68473333  0.15501967  0.52251967  1
  O  O77  1  0.51664633  0.66169567  0.36430267  1
  O  O78  1  0.50982233  0.87111867  0.58381167  1
  O  O79  1  0.14504933  0.48335367  0.36430267  1
  O  O80  1  0.33830433  0.85495067  0.36430267  1
  O  O81  1  0.35110400  0.49050900  0.97271000  1
  O  O82  1  0.50949100  0.86059500  0.97271000  1
  O  O83  1  0.16445833  0.47652667  0.75139867  1
  O  O84  1  0.13940500  0.64889600  0.97271000  1
  O  O85  1  0.96389367  0.19498933  0.81664533  1
  O  O86  1  0.83412067  0.32658633  0.74635733  1
  O  O87  1  0.31206833  0.83554167  0.75139867  1
  O  O88  1  0.49246567  0.16587933  0.74635733  1
  O  O89  1  0.51164700  0.86304700  0.85585300  1
  O  O90  1  0.67341367  0.50753433  0.74635733  1
  O  O91  1  0.79554800  0.97203700  0.91714500  1
  O  O92  1  0.13695300  0.64860000  0.85585300  1
  O  O93  1  0.23109567  0.03610633  0.81664533  1
  O  O94  1  0.52347333  0.68793167  0.75139867  1
  O  O95  1  0.63480933  0.14794067  0.91531667  1
  O  O96  1  0.80501067  0.76890433  0.81664533  1
  O  O97  1  0.85205933  0.48686867  0.91531667  1
  O  O98  1  0.02796300  0.82351100  0.91714500  1
  O  O99  1  0.51313133  0.36519067  0.91531667  1
  O  O100  1  0.35140000  0.48835300  0.85585300  1
  O  O101  1  0.18331300  0.99502900  0.69763600  1
  O  O102  1  0.17648900  0.20445200  0.91714500  1
  O  O103  1  0.81171600  0.81668700  0.69763600  1
  O  O104  1  0.00497100  0.18828400  0.69763600  1
