# generated using pymatgen
data_BaCaI4
_symmetry_space_group_name_H-M   'P 1'
_cell_length_a   8.16291200
_cell_length_b   8.16291200
_cell_length_c   17.10424400
_cell_angle_alpha   90.00000000
_cell_angle_beta   90.00000000
_cell_angle_gamma   90.00000000
_symmetry_Int_Tables_number   1
_chemical_formula_structural   BaCaI4
_chemical_formula_sum   'Ba4 Ca4 I16'
_cell_volume   1139.70935368
_cell_formula_units_Z   4
loop_
 _symmetry_equiv_pos_site_id
 _symmetry_equiv_pos_as_xyz
  1  'x, y, z'
loop_
 _atom_site_type_symbol
 _atom_site_label
 _atom_site_symmetry_multiplicity
 _atom_site_fract_x
 _atom_site_fract_y
 _atom_site_fract_z
 _atom_site_occupancy
  Ba  Ba0  1  0.50000000  0.00000000  0.25000000  1
  Ba  Ba1  1  0.50000000  0.50000000  0.00000000  1
  Ba  Ba2  1  0.00000000  0.50000000  0.75000000  1
  Ba  Ba3  1  0.00000000  0.00000000  0.50000000  1
  Ca  Ca4  1  0.00000000  0.00000000  0.00000000  1
  Ca  Ca5  1  0.00000000  0.50000000  0.25000000  1
  Ca  Ca6  1  0.50000000  0.50000000  0.50000000  1
  Ca  Ca7  1  0.50000000  0.00000000  0.75000000  1
  I  I8  1  0.82587400  0.77345400  0.33570200  1
  I  I9  1  0.72654600  0.82587400  0.08570200  1
  I  I10  1  0.27345400  0.17412600  0.08570200  1
  I  I11  1  0.32587400  0.77345400  0.41429800  1
  I  I12  1  0.17412600  0.22654600  0.33570200  1
  I  I13  1  0.72654600  0.32587400  0.16429800  1
  I  I14  1  0.27345400  0.67412600  0.16429800  1
  I  I15  1  0.67412600  0.22654600  0.41429800  1
  I  I16  1  0.32587400  0.27345400  0.83570200  1
  I  I17  1  0.22654600  0.32587400  0.58570200  1
  I  I18  1  0.77345400  0.67412600  0.58570200  1
  I  I19  1  0.82587400  0.27345400  0.91429800  1
  I  I20  1  0.67412600  0.72654600  0.83570200  1
  I  I21  1  0.22654600  0.82587400  0.66429800  1
  I  I22  1  0.77345400  0.17412600  0.66429800  1
  I  I23  1  0.17412600  0.72654600  0.91429800  1
