# generated using pymatgen
data_CaH12S2(NO5)2
_symmetry_space_group_name_H-M   'P 1'
_cell_length_a   11.78073200
_cell_length_b   7.66059000
_cell_length_c   11.79250870
_cell_angle_alpha   90.00000000
_cell_angle_beta   99.21411997
_cell_angle_gamma   90.00000000
_symmetry_Int_Tables_number   1
_chemical_formula_structural   CaH12S2(NO5)2
_chemical_formula_sum   'Ca4 H48 S8 N8 O40'
_cell_volume   1050.51065031
_cell_formula_units_Z   4
loop_
 _symmetry_equiv_pos_site_id
 _symmetry_equiv_pos_as_xyz
  1  'x, y, z'
loop_
 _atom_site_type_symbol
 _atom_site_label
 _atom_site_symmetry_multiplicity
 _atom_site_fract_x
 _atom_site_fract_y
 _atom_site_fract_z
 _atom_site_occupancy
  Ca  Ca0  1  0.50000000  0.42574000  0.75000000  1
  Ca  Ca1  1  0.50000000  0.57426000  0.25000000  1
  Ca  Ca2  1  0.00000000  0.92574000  0.75000000  1
  Ca  Ca3  1  0.00000000  0.07426000  0.25000000  1
  H  H4  1  0.58853000  0.60446800  0.98864000  1
  H  H5  1  0.58853000  0.39553200  0.48864000  1
  H  H6  1  0.19285550  0.00753150  0.94341200  1
  H  H7  1  0.19285550  0.99246850  0.44341200  1
  H  H8  1  0.32881250  0.01466550  0.69260000  1
  H  H9  1  0.36387150  0.80847950  0.64301000  1
  H  H10  1  0.42801600  0.12918900  0.89879200  1
  H  H11  1  0.32881250  0.98533450  0.19260000  1
  H  H12  1  0.36387150  0.19152050  0.14301000  1
  H  H13  1  0.42801600  0.87081100  0.39879200  1
  H  H14  1  0.45331600  0.19089300  0.53535200  1
  H  H15  1  0.54668400  0.19089300  0.96464800  1
  H  H16  1  0.45331600  0.80910700  0.03535200  1
  H  H17  1  0.54668400  0.80910700  0.46464800  1
  H  H18  1  0.57198400  0.12918900  0.60120800  1
  H  H19  1  0.63612850  0.80847950  0.85699000  1
  H  H20  1  0.67118750  0.01466550  0.80740000  1
  H  H21  1  0.57198400  0.87081100  0.10120800  1
  H  H22  1  0.63612850  0.19152050  0.35699000  1
  H  H23  1  0.67118750  0.98533450  0.30740000  1
  H  H24  1  0.80714450  0.00753150  0.55658800  1
  H  H25  1  0.80714450  0.99246850  0.05658800  1
  H  H26  1  0.41147000  0.60446800  0.51136000  1
  H  H27  1  0.41147000  0.39553200  0.01136000  1
  H  H28  1  0.08853000  0.10446800  0.98864000  1
  H  H29  1  0.08853000  0.89553200  0.48864000  1
  H  H30  1  0.69285550  0.50753150  0.94341200  1
  H  H31  1  0.69285550  0.49246850  0.44341200  1
  H  H32  1  0.82881250  0.51466550  0.69260000  1
  H  H33  1  0.86387150  0.30847950  0.64301000  1
  H  H34  1  0.92801600  0.62918900  0.89879200  1
  H  H35  1  0.82881250  0.48533450  0.19260000  1
  H  H36  1  0.86387150  0.69152050  0.14301000  1
  H  H37  1  0.92801600  0.37081100  0.39879200  1
  H  H38  1  0.95331600  0.69089300  0.53535200  1
  H  H39  1  0.04668400  0.69089300  0.96464800  1
  H  H40  1  0.95331600  0.30910700  0.03535200  1
  H  H41  1  0.04668400  0.30910700  0.46464800  1
  H  H42  1  0.07198400  0.62918900  0.60120800  1
  H  H43  1  0.13612850  0.30847950  0.85699000  1
  H  H44  1  0.17118750  0.51466550  0.80740000  1
  H  H45  1  0.07198400  0.37081100  0.10120800  1
  H  H46  1  0.13612850  0.69152050  0.35699000  1
  H  H47  1  0.17118750  0.48533450  0.30740000  1
  H  H48  1  0.30714450  0.50753150  0.55658800  1
  H  H49  1  0.30714450  0.49246850  0.05658800  1
  H  H50  1  0.91147000  0.10446800  0.51136000  1
  H  H51  1  0.91147000  0.89553200  0.01136000  1
  S  S52  1  0.31518150  0.79731150  0.81657900  1
  S  S53  1  0.31518150  0.20268850  0.31657900  1
  S  S54  1  0.68481850  0.79731150  0.68342100  1
  S  S55  1  0.68481850  0.20268850  0.18342100  1
  S  S56  1  0.81518150  0.29731150  0.81657900  1
  S  S57  1  0.81518150  0.70268850  0.31657900  1
  S  S58  1  0.18481850  0.29731150  0.68342100  1
  S  S59  1  0.18481850  0.70268850  0.18342100  1
  N  N60  1  0.36279650  0.89248950  0.71071700  1
  N  N61  1  0.36279650  0.10751050  0.21071700  1
  N  N62  1  0.63720350  0.89248950  0.78928300  1
  N  N63  1  0.63720350  0.10751050  0.28928300  1
  N  N64  1  0.86279650  0.39248950  0.71071700  1
  N  N65  1  0.86279650  0.60751050  0.21071700  1
  N  N66  1  0.13720350  0.39248950  0.78928300  1
  N  N67  1  0.13720350  0.60751050  0.28928300  1
  O  O68  1  0.11914450  0.06728750  0.91942000  1
  O  O69  1  0.11914450  0.93271250  0.41942000  1
  O  O70  1  0.31057400  0.26696700  0.70839400  1
  O  O71  1  0.34307250  0.91765250  0.91622600  1
  O  O72  1  0.37762250  0.63085450  0.83322300  1
  O  O73  1  0.31057400  0.73303300  0.20839400  1
  O  O74  1  0.34307250  0.08234750  0.41622600  1
  O  O75  1  0.37762250  0.36914550  0.33322300  1
  O  O76  1  0.47717650  0.23348450  0.91429600  1
  O  O77  1  0.47717650  0.76651550  0.41429600  1
  O  O78  1  0.52282350  0.23348450  0.58570400  1
  O  O79  1  0.52282350  0.76651550  0.08570400  1
  O  O80  1  0.62237750  0.63085450  0.66677700  1
  O  O81  1  0.65692750  0.91765250  0.58377400  1
  O  O82  1  0.68942600  0.26696700  0.79160600  1
  O  O83  1  0.62237750  0.36914550  0.16677700  1
  O  O84  1  0.65692750  0.08234750  0.08377400  1
  O  O85  1  0.68942600  0.73303300  0.29160600  1
  O  O86  1  0.88085550  0.06728750  0.58058000  1
  O  O87  1  0.88085550  0.93271250  0.08058000  1
  O  O88  1  0.61914450  0.56728750  0.91942000  1
  O  O89  1  0.61914450  0.43271250  0.41942000  1
  O  O90  1  0.81057400  0.76696700  0.70839400  1
  O  O91  1  0.84307250  0.41765250  0.91622600  1
  O  O92  1  0.87762250  0.13085450  0.83322300  1
  O  O93  1  0.81057400  0.23303300  0.20839400  1
  O  O94  1  0.84307250  0.58234750  0.41622600  1
  O  O95  1  0.87762250  0.86914550  0.33322300  1
  O  O96  1  0.97717650  0.73348450  0.91429600  1
  O  O97  1  0.97717650  0.26651550  0.41429600  1
  O  O98  1  0.02282350  0.73348450  0.58570400  1
  O  O99  1  0.02282350  0.26651550  0.08570400  1
  O  O100  1  0.12237750  0.13085450  0.66677700  1
  O  O101  1  0.15692750  0.41765250  0.58377400  1
  O  O102  1  0.18942600  0.76696700  0.79160600  1
  O  O103  1  0.12237750  0.86914550  0.16677700  1
  O  O104  1  0.15692750  0.58234750  0.08377400  1
  O  O105  1  0.18942600  0.23303300  0.29160600  1
  O  O106  1  0.38085550  0.56728750  0.58058000  1
  O  O107  1  0.38085550  0.43271250  0.08058000  1
