# generated using pymatgen
data_Lu3TaO7
_symmetry_space_group_name_H-M   'P 1'
_cell_length_a   7.27782000
_cell_length_b   10.39415200
_cell_length_c   7.43946400
_cell_angle_alpha   90.00000000
_cell_angle_beta   90.00000000
_cell_angle_gamma   90.00000000
_symmetry_Int_Tables_number   1
_chemical_formula_structural   Lu3TaO7
_chemical_formula_sum   'Lu12 Ta4 O28'
_cell_volume   562.77140211
_cell_formula_units_Z   4
loop_
 _symmetry_equiv_pos_site_id
 _symmetry_equiv_pos_as_xyz
  1  'x, y, z'
loop_
 _atom_site_type_symbol
 _atom_site_label
 _atom_site_symmetry_multiplicity
 _atom_site_fract_x
 _atom_site_fract_y
 _atom_site_fract_z
 _atom_site_occupancy
  Lu  Lu0  1  0.27723350  0.23347850  0.25000000  1
  Lu  Lu1  1  0.72276650  0.23347850  0.75000000  1
  Lu  Lu2  1  0.00000000  0.00000000  0.00000000  1
  Lu  Lu3  1  0.00000000  0.00000000  0.50000000  1
  Lu  Lu4  1  0.72276650  0.76652150  0.75000000  1
  Lu  Lu5  1  0.27723350  0.76652150  0.25000000  1
  Lu  Lu6  1  0.77723350  0.73347850  0.25000000  1
  Lu  Lu7  1  0.22276650  0.73347850  0.75000000  1
  Lu  Lu8  1  0.50000000  0.50000000  0.00000000  1
  Lu  Lu9  1  0.50000000  0.50000000  0.50000000  1
  Lu  Lu10  1  0.22276650  0.26652150  0.75000000  1
  Lu  Lu11  1  0.77723350  0.26652150  0.25000000  1
  Ta  Ta12  1  0.50000000  0.00000000  0.00000000  1
  Ta  Ta13  1  0.50000000  0.00000000  0.50000000  1
  Ta  Ta14  1  0.00000000  0.50000000  0.00000000  1
  Ta  Ta15  1  0.00000000  0.50000000  0.50000000  1
  O  O16  1  0.51689100  0.36616900  0.25000000  1
  O  O17  1  0.48310900  0.36616900  0.75000000  1
  O  O18  1  0.69798350  0.13051650  0.03210200  1
  O  O19  1  0.69798350  0.13051650  0.46789800  1
  O  O20  1  0.30201650  0.13051650  0.96789800  1
  O  O21  1  0.30201650  0.13051650  0.53210200  1
  O  O22  1  0.57833700  0.00000000  0.75000000  1
  O  O23  1  0.42166300  0.00000000  0.25000000  1
  O  O24  1  0.69798350  0.86948350  0.03210200  1
  O  O25  1  0.30201650  0.86948350  0.53210200  1
  O  O26  1  0.30201650  0.86948350  0.96789800  1
  O  O27  1  0.69798350  0.86948350  0.46789800  1
  O  O28  1  0.48310900  0.63383100  0.75000000  1
  O  O29  1  0.51689100  0.63383100  0.25000000  1
  O  O30  1  0.01689100  0.86616900  0.25000000  1
  O  O31  1  0.98310900  0.86616900  0.75000000  1
  O  O32  1  0.19798350  0.63051650  0.03210200  1
  O  O33  1  0.19798350  0.63051650  0.46789800  1
  O  O34  1  0.80201650  0.63051650  0.96789800  1
  O  O35  1  0.80201650  0.63051650  0.53210200  1
  O  O36  1  0.07833700  0.50000000  0.75000000  1
  O  O37  1  0.92166300  0.50000000  0.25000000  1
  O  O38  1  0.19798350  0.36948350  0.03210200  1
  O  O39  1  0.80201650  0.36948350  0.53210200  1
  O  O40  1  0.80201650  0.36948350  0.96789800  1
  O  O41  1  0.19798350  0.36948350  0.46789800  1
  O  O42  1  0.98310900  0.13383100  0.75000000  1
  O  O43  1  0.01689100  0.13383100  0.25000000  1
