# generated using pymatgen
data_LiCrSiO4
_symmetry_space_group_name_H-M   'P 1'
_cell_length_a   4.77336800
_cell_length_b   5.77826400
_cell_length_c   10.19376700
_cell_angle_alpha   90.00000000
_cell_angle_beta   90.00000000
_cell_angle_gamma   90.00000000
_symmetry_Int_Tables_number   1
_chemical_formula_structural   LiCrSiO4
_chemical_formula_sum   'Li4 Cr4 Si4 O16'
_cell_volume   281.16224362
_cell_formula_units_Z   4
loop_
 _symmetry_equiv_pos_site_id
 _symmetry_equiv_pos_as_xyz
  1  'x, y, z'
loop_
 _atom_site_type_symbol
 _atom_site_label
 _atom_site_symmetry_multiplicity
 _atom_site_fract_x
 _atom_site_fract_y
 _atom_site_fract_z
 _atom_site_occupancy
  Li  Li0  1  0.00000000  0.00000000  0.00000000  1
  Li  Li1  1  0.50000000  0.00000000  0.50000000  1
  Li  Li2  1  0.50000000  0.50000000  0.50000000  1
  Li  Li3  1  0.00000000  0.50000000  0.00000000  1
  Cr  Cr4  1  0.49887300  0.75000000  0.76899100  1
  Cr  Cr5  1  0.99887300  0.25000000  0.73100900  1
  Cr  Cr6  1  0.00112700  0.75000000  0.26899100  1
  Cr  Cr7  1  0.50112700  0.25000000  0.23100900  1
  Si  Si8  1  0.05899700  0.25000000  0.40834900  1
  Si  Si9  1  0.44100300  0.25000000  0.90834900  1
  Si  Si10  1  0.55899700  0.75000000  0.09165100  1
  Si  Si11  1  0.94100300  0.75000000  0.59165100  1
  O  O12  1  0.18903200  0.25000000  0.55667200  1
  O  O13  1  0.31096800  0.25000000  0.05667200  1
  O  O14  1  0.68903200  0.75000000  0.94332800  1
  O  O15  1  0.81096800  0.75000000  0.44332800  1
  O  O16  1  0.22026100  0.75000000  0.10024000  1
  O  O17  1  0.27973900  0.75000000  0.60024000  1
  O  O18  1  0.72026100  0.25000000  0.39976000  1
  O  O19  1  0.77973900  0.25000000  0.89976000  1
  O  O20  1  0.22050800  0.03271200  0.32900400  1
  O  O21  1  0.22050800  0.46728800  0.32900400  1
  O  O22  1  0.27949200  0.46728800  0.82900400  1
  O  O23  1  0.27949200  0.03271200  0.82900400  1
  O  O24  1  0.72050800  0.53271200  0.17099600  1
  O  O25  1  0.72050800  0.96728800  0.17099600  1
  O  O26  1  0.77949200  0.96728800  0.67099600  1
  O  O27  1  0.77949200  0.53271200  0.67099600  1
