# generated using pymatgen
data_Nb3Sb(PO4)6
_symmetry_space_group_name_H-M   'P 1'
_cell_length_a   8.92549589
_cell_length_b   8.92549589
_cell_length_c   22.60773791
_cell_angle_alpha   90.00000000
_cell_angle_beta   90.00000000
_cell_angle_gamma   120.00000000
_symmetry_Int_Tables_number   1
_chemical_formula_structural   Nb3Sb(PO4)6
_chemical_formula_sum   'Nb9 Sb3 P18 O72'
_cell_volume   1559.74086232
_cell_formula_units_Z   3
loop_
 _symmetry_equiv_pos_site_id
 _symmetry_equiv_pos_as_xyz
  1  'x, y, z'
loop_
 _atom_site_type_symbol
 _atom_site_label
 _atom_site_symmetry_multiplicity
 _atom_site_fract_x
 _atom_site_fract_y
 _atom_site_fract_z
 _atom_site_occupancy
  Nb  Nb0  1  0.66666667  0.33333333  0.19277533  1
  Nb  Nb1  1  0.33333333  0.66666667  0.30935067  1
  Nb  Nb2  1  0.33333333  0.66666667  0.02532467  1
  Nb  Nb3  1  0.33333333  0.66666667  0.52610867  1
  Nb  Nb4  1  0.00000000  0.00000000  0.64268400  1
  Nb  Nb5  1  0.00000000  0.00000000  0.35865800  1
  Nb  Nb6  1  0.00000000  0.00000000  0.85944200  1
  Nb  Nb7  1  0.66666667  0.33333333  0.97601733  1
  Nb  Nb8  1  0.66666667  0.33333333  0.69199133  1
  Sb  Sb9  1  0.00000000  0.00000000  0.14020100  1
  Sb  Sb10  1  0.66666667  0.33333333  0.47353433  1
  Sb  Sb11  1  0.33333333  0.66666667  0.80686767  1
  P  P12  1  0.29007567  0.00156633  0.25101733  1
  P  P13  1  0.99843367  0.28850933  0.25101733  1
  P  P14  1  0.71149067  0.70992433  0.25101733  1
  P  P15  1  0.95168267  0.61204233  0.08272033  1
  P  P16  1  0.66035967  0.04831733  0.08272033  1
  P  P17  1  0.38795767  0.33964033  0.08272033  1
  P  P18  1  0.95674233  0.33489967  0.58435067  1
  P  P19  1  0.66510033  0.62184267  0.58435067  1
  P  P20  1  0.37815733  0.04325767  0.58435067  1
  P  P21  1  0.61834933  0.94537567  0.41605367  1
  P  P22  1  0.32702633  0.38165067  0.41605367  1
  P  P23  1  0.05462433  0.67297367  0.41605367  1
  P  P24  1  0.62340900  0.66823300  0.91768400  1
  P  P25  1  0.33176700  0.95517600  0.91768400  1
  P  P26  1  0.04482400  0.37659100  0.91768400  1
  P  P27  1  0.28501600  0.27870900  0.74938700  1
  P  P28  1  0.99369300  0.71498400  0.74938700  1
  P  P29  1  0.72129100  0.00630700  0.74938700  1
  O  O30  1  0.48777333  0.33065167  0.02843967  1
  O  O31  1  0.84287833  0.51222667  0.02843967  1
  O  O32  1  0.47319367  0.16712633  0.24374433  1
  O  O33  1  0.66934833  0.15712167  0.02843967  1
  O  O34  1  0.32351500  0.84921700  0.26383700  1
  O  O35  1  0.18882333  0.96143367  0.19457567  1
  O  O36  1  0.83287367  0.30606733  0.24374433  1
  O  O37  1  0.15078300  0.47429800  0.26383700  1
  O  O38  1  0.52570200  0.67648500  0.26383700  1
  O  O39  1  0.86340833  0.50335267  0.13939767  1
  O  O40  1  0.97019667  0.78907333  0.08237533  1
  O  O41  1  0.63994433  0.13659167  0.13939767  1
  O  O42  1  0.03856633  0.22738967  0.19457567  1
  O  O43  1  0.69393267  0.52680633  0.24374433  1
  O  O44  1  0.77261033  0.81117667  0.19457567  1
  O  O45  1  0.13332600  0.62594000  0.07508000  1
  O  O46  1  0.49261400  0.86667400  0.07508000  1
  O  O47  1  0.81887667  0.02980333  0.08237533  1
  O  O48  1  0.49664733  0.36005567  0.13939767  1
  O  O49  1  0.37406000  0.50738600  0.07508000  1
  O  O50  1  0.97154467  0.16958333  0.30515233  1
  O  O51  1  0.21092667  0.18112333  0.08237533  1
  O  O52  1  0.83041667  0.80196133  0.30515233  1
  O  O53  1  0.19803867  0.02845533  0.30515233  1
  O  O54  1  0.15444000  0.66398500  0.36177300  1
  O  O55  1  0.50954500  0.84556000  0.36177300  1
  O  O56  1  0.13986033  0.50045967  0.57707767  1
  O  O57  1  0.33601500  0.49045500  0.36177300  1
  O  O58  1  0.99018167  0.18255033  0.59717033  1
  O  O59  1  0.85549000  0.29476700  0.52790900  1
  O  O60  1  0.49954033  0.63940067  0.57707767  1
  O  O61  1  0.81744967  0.80763133  0.59717033  1
  O  O62  1  0.19236867  0.00981833  0.59717033  1
  O  O63  1  0.53007500  0.83668600  0.47273100  1
  O  O64  1  0.63686333  0.12240667  0.41570867  1
  O  O65  1  0.30661100  0.46992500  0.47273100  1
  O  O66  1  0.70523300  0.56072300  0.52790900  1
  O  O67  1  0.36059933  0.86013967  0.57707767  1
  O  O68  1  0.43927700  0.14451000  0.52790900  1
  O  O69  1  0.79999267  0.95927333  0.40841333  1
  O  O70  1  0.15928067  0.20000733  0.40841333  1
  O  O71  1  0.48554333  0.36313667  0.41570867  1
  O  O72  1  0.16331400  0.69338900  0.47273100  1
  O  O73  1  0.04072667  0.84071933  0.40841333  1
  O  O74  1  0.63821133  0.50291667  0.63848567  1
  O  O75  1  0.87759333  0.51445667  0.41570867  1
  O  O76  1  0.49708333  0.13529467  0.63848567  1
  O  O77  1  0.86470533  0.36178867  0.63848567  1
  O  O78  1  0.82110667  0.99731833  0.69510633  1
  O  O79  1  0.17621167  0.17889333  0.69510633  1
  O  O80  1  0.80652700  0.83379300  0.91041100  1
  O  O81  1  0.00268167  0.82378833  0.69510633  1
  O  O82  1  0.65684833  0.51588367  0.93050367  1
  O  O83  1  0.52215667  0.62810033  0.86124233  1
  O  O84  1  0.16620700  0.97273400  0.91041100  1
  O  O85  1  0.48411633  0.14096467  0.93050367  1
  O  O86  1  0.85903533  0.34315167  0.93050367  1
  O  O87  1  0.19674167  0.17001933  0.80606433  1
  O  O88  1  0.30353000  0.45574000  0.74904200  1
  O  O89  1  0.97327767  0.80325833  0.80606433  1
  O  O90  1  0.37189967  0.89405633  0.86124233  1
  O  O91  1  0.02726600  0.19347300  0.91041100  1
  O  O92  1  0.10594367  0.47784333  0.86124233  1
  O  O93  1  0.46665933  0.29260667  0.74174667  1
  O  O94  1  0.82594733  0.53334067  0.74174667  1
  O  O95  1  0.15221000  0.69647000  0.74904200  1
  O  O96  1  0.82998067  0.02672233  0.80606433  1
  O  O97  1  0.70739333  0.17405267  0.74174667  1
  O  O98  1  0.30487800  0.83625000  0.97181900  1
  O  O99  1  0.54426000  0.84779000  0.74904200  1
  O  O100  1  0.16375000  0.46862800  0.97181900  1
  O  O101  1  0.53137200  0.69512200  0.97181900  1
