# generated using pymatgen
data_Sb4O5F2
_symmetry_space_group_name_H-M   'P 1'
_cell_length_a   7.87975300
_cell_length_b   9.59508900
_cell_length_c   9.96745600
_cell_angle_alpha   90.00000000
_cell_angle_beta   90.00000000
_cell_angle_gamma   90.00000000
_symmetry_Int_Tables_number   1
_chemical_formula_structural   Sb4O5F2
_chemical_formula_sum   'Sb16 O20 F8'
_cell_volume   753.60876136
_cell_formula_units_Z   4
loop_
 _symmetry_equiv_pos_site_id
 _symmetry_equiv_pos_as_xyz
  1  'x, y, z'
loop_
 _atom_site_type_symbol
 _atom_site_label
 _atom_site_symmetry_multiplicity
 _atom_site_fract_x
 _atom_site_fract_y
 _atom_site_fract_z
 _atom_site_occupancy
  Sb  Sb0  1  0.75000000  0.02985500  0.55330800  1
  Sb  Sb1  1  0.25000000  0.04642000  0.97878200  1
  Sb  Sb2  1  0.97373800  0.22747600  0.18273400  1
  Sb  Sb3  1  0.52626200  0.22747600  0.18273400  1
  Sb  Sb4  1  0.02626200  0.27252400  0.68273400  1
  Sb  Sb5  1  0.47373800  0.27252400  0.68273400  1
  Sb  Sb6  1  0.75000000  0.45358000  0.47878200  1
  Sb  Sb7  1  0.25000000  0.47014500  0.05330800  1
  Sb  Sb8  1  0.75000000  0.52985500  0.94669200  1
  Sb  Sb9  1  0.25000000  0.54642000  0.52121800  1
  Sb  Sb10  1  0.52626200  0.72747600  0.31726600  1
  Sb  Sb11  1  0.97373800  0.72747600  0.31726600  1
  Sb  Sb12  1  0.02626200  0.77252400  0.81726600  1
  Sb  Sb13  1  0.47373800  0.77252400  0.81726600  1
  Sb  Sb14  1  0.75000000  0.95358000  0.02121800  1
  Sb  Sb15  1  0.25000000  0.97014500  0.44669200  1
  O  O16  1  0.06853000  0.04531200  0.12561400  1
  O  O17  1  0.43147000  0.04531200  0.12561400  1
  O  O18  1  0.55573900  0.16322400  0.52350900  1
  O  O19  1  0.94426100  0.16322400  0.52350900  1
  O  O20  1  0.75000000  0.16474600  0.06654100  1
  O  O21  1  0.25000000  0.33525400  0.56654100  1
  O  O22  1  0.05573900  0.33677600  0.02350900  1
  O  O23  1  0.44426100  0.33677600  0.02350900  1
  O  O24  1  0.56853000  0.45468800  0.62561400  1
  O  O25  1  0.93147000  0.45468800  0.62561400  1
  O  O26  1  0.06853000  0.54531200  0.37438600  1
  O  O27  1  0.43147000  0.54531200  0.37438600  1
  O  O28  1  0.55573900  0.66322400  0.97649100  1
  O  O29  1  0.94426100  0.66322400  0.97649100  1
  O  O30  1  0.75000000  0.66474600  0.43345900  1
  O  O31  1  0.25000000  0.83525400  0.93345900  1
  O  O32  1  0.05573900  0.83677600  0.47649100  1
  O  O33  1  0.44426100  0.83677600  0.47649100  1
  O  O34  1  0.56853000  0.95468800  0.87438600  1
  O  O35  1  0.93147000  0.95468800  0.87438600  1
  F  F36  1  0.25000000  0.00025900  0.64749400  1
  F  F37  1  0.75000000  0.21365700  0.74068500  1
  F  F38  1  0.25000000  0.28634300  0.24068500  1
  F  F39  1  0.75000000  0.49974100  0.14749400  1
  F  F40  1  0.25000000  0.50025900  0.85250600  1
  F  F41  1  0.75000000  0.71365700  0.75931500  1
  F  F42  1  0.25000000  0.78634300  0.25931500  1
  F  F43  1  0.75000000  0.99974100  0.35250600  1
