# generated using pymatgen
data_Cs3HoO3
_symmetry_space_group_name_H-M   'P 1'
_cell_length_a   8.08556800
_cell_length_b   12.90724000
_cell_length_c   7.61881883
_cell_angle_alpha   90.00000000
_cell_angle_beta   101.29755994
_cell_angle_gamma   90.00000000
_symmetry_Int_Tables_number   1
_chemical_formula_structural   Cs3HoO3
_chemical_formula_sum   'Cs12 Ho4 O12'
_cell_volume   779.71096620
_cell_formula_units_Z   4
loop_
 _symmetry_equiv_pos_site_id
 _symmetry_equiv_pos_as_xyz
  1  'x, y, z'
loop_
 _atom_site_type_symbol
 _atom_site_label
 _atom_site_symmetry_multiplicity
 _atom_site_fract_x
 _atom_site_fract_y
 _atom_site_fract_z
 _atom_site_occupancy
  Cs  Cs0  1  0.36135700  0.00000000  0.65145100  1
  Cs  Cs1  1  0.50000000  0.70498300  0.50000000  1
  Cs  Cs2  1  0.50000000  0.29501700  0.50000000  1
  Cs  Cs3  1  0.50000000  0.76223400  0.00000000  1
  Cs  Cs4  1  0.50000000  0.23776600  0.00000000  1
  Cs  Cs5  1  0.63864300  0.00000000  0.34854900  1
  Cs  Cs6  1  0.86135700  0.50000000  0.65145100  1
  Cs  Cs7  1  0.00000000  0.20498300  0.50000000  1
  Cs  Cs8  1  0.00000000  0.79501700  0.50000000  1
  Cs  Cs9  1  0.00000000  0.26223400  0.00000000  1
  Cs  Cs10  1  0.00000000  0.73776600  0.00000000  1
  Cs  Cs11  1  0.13864300  0.50000000  0.34854900  1
  Ho  Ho12  1  0.17262400  0.00000000  0.14883300  1
  Ho  Ho13  1  0.82737600  0.00000000  0.85116700  1
  Ho  Ho14  1  0.67262400  0.50000000  0.14883300  1
  Ho  Ho15  1  0.32737600  0.50000000  0.85116700  1
  O  O16  1  0.09773900  0.00000000  0.85414800  1
  O  O17  1  0.29942950  0.86497150  0.26509300  1
  O  O18  1  0.29942950  0.13502850  0.26509300  1
  O  O19  1  0.70057050  0.86497150  0.73490700  1
  O  O20  1  0.70057050  0.13502850  0.73490700  1
  O  O21  1  0.90226100  0.00000000  0.14585200  1
  O  O22  1  0.59773900  0.50000000  0.85414800  1
  O  O23  1  0.79942950  0.36497150  0.26509300  1
  O  O24  1  0.79942950  0.63502850  0.26509300  1
  O  O25  1  0.20057050  0.36497150  0.73490700  1
  O  O26  1  0.20057050  0.63502850  0.73490700  1
  O  O27  1  0.40226100  0.50000000  0.14585200  1
