# generated using pymatgen
data_NaAl3P2(HO3)4
_symmetry_space_group_name_H-M   'P 1'
_cell_length_a   7.17158300
_cell_length_b   10.25542500
_cell_length_c   12.57173920
_cell_angle_alpha   90.00000000
_cell_angle_beta   116.46665601
_cell_angle_gamma   90.00000000
_symmetry_Int_Tables_number   1
_chemical_formula_structural   NaAl3P2(HO3)4
_chemical_formula_sum   'Na4 Al12 P8 H16 O48'
_cell_volume   827.71563675
_cell_formula_units_Z   4
loop_
 _symmetry_equiv_pos_site_id
 _symmetry_equiv_pos_as_xyz
  1  'x, y, z'
loop_
 _atom_site_type_symbol
 _atom_site_label
 _atom_site_symmetry_multiplicity
 _atom_site_fract_x
 _atom_site_fract_y
 _atom_site_fract_z
 _atom_site_occupancy
  Na  Na0  1  0.73426600  0.57575300  0.19596900  1
  Na  Na1  1  0.73426600  0.92424700  0.69596900  1
  Na  Na2  1  0.26573400  0.42424700  0.80403100  1
  Na  Na3  1  0.26573400  0.07575300  0.30403100  1
  Al  Al4  1  0.51693100  0.71972800  0.45600500  1
  Al  Al5  1  0.51693100  0.78027200  0.95600500  1
  Al  Al6  1  0.48306900  0.28027200  0.54399500  1
  Al  Al7  1  0.48306900  0.21972800  0.04399500  1
  Al  Al8  1  0.24680800  0.56613500  0.23702200  1
  Al  Al9  1  0.24680800  0.93386500  0.73702200  1
  Al  Al10  1  0.75319200  0.43386500  0.76297800  1
  Al  Al11  1  0.75319200  0.06613500  0.26297800  1
  Al  Al12  1  0.97192100  0.75303500  0.04137900  1
  Al  Al13  1  0.97192100  0.74696500  0.54137900  1
  Al  Al14  1  0.02807900  0.24696500  0.95862100  1
  Al  Al15  1  0.02807900  0.25303500  0.45862100  1
  P  P16  1  0.05410600  0.81151000  0.31933500  1
  P  P17  1  0.05410600  0.68849000  0.81933500  1
  P  P18  1  0.94589400  0.18849000  0.68066500  1
  P  P19  1  0.94589400  0.31151000  0.18066500  1
  P  P20  1  0.43932000  0.82866300  0.18829400  1
  P  P21  1  0.43932000  0.67133700  0.68829400  1
  P  P22  1  0.56068000  0.17133700  0.81170600  1
  P  P23  1  0.56068000  0.32866300  0.31170600  1
  H  H24  1  0.30029000  0.50963900  0.43465700  1
  H  H25  1  0.30029000  0.99036100  0.93465700  1
  H  H26  1  0.69971000  0.49036100  0.56534300  1
  H  H27  1  0.69971000  0.00963900  0.06534300  1
  H  H28  1  0.22084800  0.59664300  0.03203500  1
  H  H29  1  0.22084800  0.90335700  0.53203500  1
  H  H30  1  0.77915200  0.40335700  0.96796500  1
  H  H31  1  0.77915200  0.09664300  0.46796500  1
  H  H32  1  0.68526100  0.90432500  0.42684100  1
  H  H33  1  0.68526100  0.59567500  0.92684100  1
  H  H34  1  0.31473900  0.09567500  0.57315900  1
  H  H35  1  0.31473900  0.40432500  0.07315900  1
  H  H36  1  0.78381200  0.54661300  0.45108100  1
  H  H37  1  0.78381200  0.95338700  0.95108100  1
  H  H38  1  0.21618800  0.45338700  0.54891900  1
  H  H39  1  0.21618800  0.04661300  0.04891900  1
  O  O40  1  0.34764900  0.57832300  0.39668600  1
  O  O41  1  0.34764900  0.92167700  0.89668600  1
  O  O42  1  0.65235100  0.42167700  0.60331400  1
  O  O43  1  0.65235100  0.07832300  0.10331400  1
  O  O44  1  0.14389400  0.60576700  0.07915200  1
  O  O45  1  0.14389400  0.89423300  0.57915200  1
  O  O46  1  0.85610600  0.39423300  0.92084800  1
  O  O47  1  0.85610600  0.10576700  0.42084800  1
  O  O48  1  0.71831900  0.85026100  0.49748300  1
  O  O49  1  0.71831900  0.64973900  0.99748300  1
  O  O50  1  0.28168100  0.14973900  0.50251700  1
  O  O51  1  0.28168100  0.35026100  0.00251700  1
  O  O52  1  0.77221900  0.88601400  0.00321000  1
  O  O53  1  0.77221900  0.61398600  0.50321000  1
  O  O54  1  0.22778100  0.11398600  0.99679000  1
  O  O55  1  0.22778100  0.38601400  0.49679000  1
  O  O56  1  0.95075100  0.73870200  0.38616800  1
  O  O57  1  0.95075100  0.76129800  0.88616800  1
  O  O58  1  0.04924900  0.26129800  0.61383200  1
  O  O59  1  0.04924900  0.23870200  0.11383200  1
  O  O60  1  0.02971100  0.72046500  0.21279600  1
  O  O61  1  0.02971100  0.77953500  0.71279600  1
  O  O62  1  0.97028900  0.27953500  0.78720400  1
  O  O63  1  0.97028900  0.22046500  0.28720400  1
  O  O64  1  0.45596300  0.71556300  0.27680400  1
  O  O65  1  0.45596300  0.78443700  0.77680400  1
  O  O66  1  0.54403700  0.28443700  0.72319600  1
  O  O67  1  0.54403700  0.21556300  0.22319600  1
  O  O68  1  0.54447100  0.78093600  0.11229500  1
  O  O69  1  0.54447100  0.71906400  0.61229500  1
  O  O70  1  0.45552900  0.21906400  0.88770500  1
  O  O71  1  0.45552900  0.28093600  0.38770500  1
  O  O72  1  0.28879900  0.83979300  0.40244300  1
  O  O73  1  0.28879900  0.66020700  0.90244300  1
  O  O74  1  0.71120100  0.16020700  0.59755700  1
  O  O75  1  0.71120100  0.33979300  0.09755700  1
  O  O76  1  0.21008700  0.86938600  0.10999900  1
  O  O77  1  0.21008700  0.63061400  0.60999900  1
  O  O78  1  0.78991300  0.13061400  0.89000100  1
  O  O79  1  0.78991300  0.36938600  0.39000100  1
  O  O80  1  0.95571500  0.94589700  0.27308700  1
  O  O81  1  0.95571500  0.55410300  0.77308700  1
  O  O82  1  0.04428500  0.05410300  0.72691300  1
  O  O83  1  0.04428500  0.44589700  0.22691300  1
  O  O84  1  0.55463900  0.94844300  0.26627200  1
  O  O85  1  0.55463900  0.55155700  0.76627200  1
  O  O86  1  0.44536100  0.05155700  0.73372800  1
  O  O87  1  0.44536100  0.44844300  0.23372800  1
