# generated using pymatgen
data_CuSb3(PO4)6
_symmetry_space_group_name_H-M   'P 1'
_cell_length_a   8.60194583
_cell_length_b   8.60194583
_cell_length_c   22.07107677
_cell_angle_alpha   90.00000000
_cell_angle_beta   90.00000000
_cell_angle_gamma   120.00000000
_symmetry_Int_Tables_number   1
_chemical_formula_structural   CuSb3(PO4)6
_chemical_formula_sum   'Cu3 Sb9 P18 O72'
_cell_volume   1414.31959921
_cell_formula_units_Z   3
loop_
 _symmetry_equiv_pos_site_id
 _symmetry_equiv_pos_as_xyz
  1  'x, y, z'
loop_
 _atom_site_type_symbol
 _atom_site_label
 _atom_site_symmetry_multiplicity
 _atom_site_fract_x
 _atom_site_fract_y
 _atom_site_fract_z
 _atom_site_occupancy
  Cu  Cu0  1  0.00000000  0.00000000  0.14481300  1
  Cu  Cu1  1  0.66666667  0.33333333  0.47814633  1
  Cu  Cu2  1  0.33333333  0.66666667  0.81147967  1
  Sb  Sb3  1  0.66666667  0.33333333  0.19018833  1
  Sb  Sb4  1  0.33333333  0.66666667  0.31016667  1
  Sb  Sb5  1  0.33333333  0.66666667  0.02329167  1
  Sb  Sb6  1  0.33333333  0.66666667  0.52352167  1
  Sb  Sb7  1  0.00000000  0.00000000  0.64350000  1
  Sb  Sb8  1  0.00000000  0.00000000  0.35662500  1
  Sb  Sb9  1  0.00000000  0.00000000  0.85685500  1
  Sb  Sb10  1  0.66666667  0.33333333  0.97683333  1
  Sb  Sb11  1  0.66666667  0.33333333  0.68995833  1
  P  P12  1  0.28406300  0.99980100  0.24824000  1
  P  P13  1  0.00019900  0.28426200  0.24824000  1
  P  P14  1  0.71573800  0.71593700  0.24824000  1
  P  P15  1  0.95550100  0.62705600  0.08390900  1
  P  P16  1  0.67155500  0.04449900  0.08390900  1
  P  P17  1  0.37294400  0.32844500  0.08390900  1
  P  P18  1  0.95072967  0.33313433  0.58157333  1
  P  P19  1  0.66686567  0.61759533  0.58157333  1
  P  P20  1  0.38240467  0.04927033  0.58157333  1
  P  P21  1  0.62216767  0.96038933  0.41724233  1
  P  P22  1  0.33822167  0.37783233  0.41724233  1
  P  P23  1  0.03961067  0.66177833  0.41724233  1
  P  P24  1  0.61739633  0.66646767  0.91490667  1
  P  P25  1  0.33353233  0.95092867  0.91490667  1
  P  P26  1  0.04907133  0.38260367  0.91490667  1
  P  P27  1  0.28883433  0.29372267  0.75057567  1
  P  P28  1  0.00488833  0.71116567  0.75057567  1
  P  P29  1  0.70627733  0.99511167  0.75057567  1
  O  O30  1  0.46128600  0.30264200  0.02593600  1
  O  O31  1  0.84135600  0.53871400  0.02593600  1
  O  O32  1  0.47443300  0.16959500  0.24562400  1
  O  O33  1  0.69735800  0.15864400  0.02593600  1
  O  O34  1  0.30506800  0.83124300  0.25531000  1
  O  O35  1  0.17301433  0.96663767  0.19216367  1
  O  O36  1  0.83040500  0.30483800  0.24562400  1
  O  O37  1  0.16875700  0.47382500  0.25531000  1
  O  O38  1  0.52617500  0.69493200  0.25531000  1
  O  O39  1  0.87349133  0.50479967  0.14062667  1
  O  O40  1  0.96957533  0.80800467  0.08803967  1
  O  O41  1  0.63130833  0.12650867  0.14062667  1
  O  O42  1  0.03336233  0.20637667  0.19216367  1
  O  O43  1  0.69516200  0.52556700  0.24562400  1
  O  O44  1  0.79362333  0.82698567  0.19216367  1
  O  O45  1  0.13949433  0.63450867  0.07830567  1
  O  O46  1  0.49501433  0.86050567  0.07830567  1
  O  O47  1  0.83842933  0.03042467  0.08803967  1
  O  O48  1  0.49520033  0.36869167  0.14062667  1
  O  O49  1  0.36549133  0.50498567  0.07830567  1
  O  O50  1  0.96708067  0.17500233  0.30791433  1
  O  O51  1  0.19199533  0.16157067  0.08803967  1
  O  O52  1  0.82499767  0.79207833  0.30791433  1
  O  O53  1  0.20792167  0.03291933  0.30791433  1
  O  O54  1  0.12795267  0.63597533  0.35926933  1
  O  O55  1  0.50802267  0.87204733  0.35926933  1
  O  O56  1  0.14109967  0.50292833  0.57895733  1
  O  O57  1  0.36402467  0.49197733  0.35926933  1
  O  O58  1  0.97173467  0.16457633  0.58864333  1
  O  O59  1  0.83968100  0.29997100  0.52549700  1
  O  O60  1  0.49707167  0.63817133  0.57895733  1
  O  O61  1  0.83542367  0.80715833  0.58864333  1
  O  O62  1  0.19284167  0.02826533  0.58864333  1
  O  O63  1  0.54015800  0.83813300  0.47396000  1
  O  O64  1  0.63624200  0.14133800  0.42137300  1
  O  O65  1  0.29797500  0.45984200  0.47396000  1
  O  O66  1  0.70002900  0.53971000  0.52549700  1
  O  O67  1  0.36182867  0.85890033  0.57895733  1
  O  O68  1  0.46029000  0.16031900  0.52549700  1
  O  O69  1  0.80616100  0.96784200  0.41163900  1
  O  O70  1  0.16168100  0.19383900  0.41163900  1
  O  O71  1  0.50509600  0.36375800  0.42137300  1
  O  O72  1  0.16186700  0.70202500  0.47396000  1
  O  O73  1  0.03215800  0.83831900  0.41163900  1
  O  O74  1  0.63374733  0.50833567  0.64124767  1
  O  O75  1  0.85866200  0.49490400  0.42137300  1
  O  O76  1  0.49166433  0.12541167  0.64124767  1
  O  O77  1  0.87458833  0.36625267  0.64124767  1
  O  O78  1  0.79461933  0.96930867  0.69260267  1
  O  O79  1  0.17468933  0.20538067  0.69260267  1
  O  O80  1  0.80776633  0.83626167  0.91229067  1
  O  O81  1  0.03069133  0.82531067  0.69260267  1
  O  O82  1  0.63840133  0.49790967  0.92197667  1
  O  O83  1  0.50634767  0.63330433  0.85883033  1
  O  O84  1  0.16373833  0.97150467  0.91229067  1
  O  O85  1  0.50209033  0.14049167  0.92197667  1
  O  O86  1  0.85950833  0.36159867  0.92197667  1
  O  O87  1  0.20682467  0.17146633  0.80729333  1
  O  O88  1  0.30290867  0.47467133  0.75470633  1
  O  O89  1  0.96464167  0.79317533  0.80729333  1
  O  O90  1  0.36669567  0.87304333  0.85883033  1
  O  O91  1  0.02849533  0.19223367  0.91229067  1
  O  O92  1  0.12695667  0.49365233  0.85883033  1
  O  O93  1  0.47282767  0.30117533  0.74497233  1
  O  O94  1  0.82834767  0.52717233  0.74497233  1
  O  O95  1  0.17176267  0.69709133  0.75470633  1
  O  O96  1  0.82853367  0.03535833  0.80729333  1
  O  O97  1  0.69882467  0.17165233  0.74497233  1
  O  O98  1  0.30041400  0.84166900  0.97458100  1
  O  O99  1  0.52532867  0.82823733  0.75470633  1
  O  O100  1  0.15833100  0.45874500  0.97458100  1
  O  O101  1  0.54125500  0.69958600  0.97458100  1
