# generated using pymatgen
data_SbH6CN3F4
_symmetry_space_group_name_H-M   'P 1'
_cell_length_a   5.16422800
_cell_length_b   10.63328000
_cell_length_c   12.50923600
_cell_angle_alpha   90.00000000
_cell_angle_beta   90.00000000
_cell_angle_gamma   90.00000000
_symmetry_Int_Tables_number   1
_chemical_formula_structural   SbH6CN3F4
_chemical_formula_sum   'Sb4 H24 C4 N12 F16'
_cell_volume   686.91570238
_cell_formula_units_Z   4
loop_
 _symmetry_equiv_pos_site_id
 _symmetry_equiv_pos_as_xyz
  1  'x, y, z'
loop_
 _atom_site_type_symbol
 _atom_site_label
 _atom_site_symmetry_multiplicity
 _atom_site_fract_x
 _atom_site_fract_y
 _atom_site_fract_z
 _atom_site_occupancy
  Sb  Sb0  1  0.39945700  0.12008000  0.07108900  1
  Sb  Sb1  1  0.10054300  0.87992000  0.57108900  1
  Sb  Sb2  1  0.89945700  0.37992000  0.92891100  1
  Sb  Sb3  1  0.60054300  0.62008000  0.42891100  1
  H  H4  1  0.62456500  0.60391200  0.05738500  1
  H  H5  1  0.87543500  0.39608800  0.55738500  1
  H  H6  1  0.12456500  0.89608800  0.94261500  1
  H  H7  1  0.37543500  0.10391200  0.44261500  1
  H  H8  1  0.57892400  0.76714900  0.07390600  1
  H  H9  1  0.92107600  0.23285100  0.57390600  1
  H  H10  1  0.07892400  0.73285100  0.92609400  1
  H  H11  1  0.42107600  0.26714900  0.42609400  1
  H  H12  1  0.33467600  0.46505500  0.14485700  1
  H  H13  1  0.16532400  0.53494500  0.64485700  1
  H  H14  1  0.83467600  0.03494500  0.85514300  1
  H  H15  1  0.66532400  0.96505500  0.35514300  1
  H  H16  1  0.08904900  0.52706700  0.22575000  1
  H  H17  1  0.41095100  0.47293300  0.72575000  1
  H  H18  1  0.58904900  0.97293300  0.77425000  1
  H  H19  1  0.91095100  0.02706700  0.27425000  1
  H  H20  1  0.08053200  0.74294700  0.26590600  1
  H  H21  1  0.41946800  0.25705300  0.76590600  1
  H  H22  1  0.58053200  0.75705300  0.73409400  1
  H  H23  1  0.91946800  0.24294700  0.23409400  1
  H  H24  1  0.25070800  0.84365800  0.18141400  1
  H  H25  1  0.24929200  0.15634200  0.68141400  1
  H  H26  1  0.75070800  0.65634200  0.81858600  1
  H  H27  1  0.74929200  0.34365800  0.31858600  1
  C  C28  1  0.33183700  0.65648000  0.15951700  1
  C  C29  1  0.16816300  0.34352000  0.65951700  1
  C  C30  1  0.83183700  0.84352000  0.84048300  1
  C  C31  1  0.66816300  0.15648000  0.34048300  1
  N  N32  1  0.52821100  0.67697000  0.09214500  1
  N  N33  1  0.97178900  0.32303000  0.59214500  1
  N  N34  1  0.02821100  0.82303000  0.90785500  1
  N  N35  1  0.47178900  0.17697000  0.40785500  1
  N  N36  1  0.25734200  0.53969200  0.18417400  1
  N  N37  1  0.24265800  0.46030800  0.68417400  1
  N  N38  1  0.75734200  0.96030800  0.81582600  1
  N  N39  1  0.74265800  0.03969200  0.31582600  1
  N  N40  1  0.21442400  0.75448200  0.20665700  1
  N  N41  1  0.28557600  0.24551800  0.70665700  1
  N  N42  1  0.71442400  0.74551800  0.79334300  1
  N  N43  1  0.78557600  0.25448200  0.29334300  1
  F  F44  1  0.15183700  0.09626600  0.95234400  1
  F  F45  1  0.34816300  0.90373400  0.45234400  1
  F  F46  1  0.65183700  0.40373400  0.04765600  1
  F  F47  1  0.84816300  0.59626600  0.54765600  1
  F  F48  1  0.13967700  0.26898600  0.10625900  1
  F  F49  1  0.36032300  0.73101400  0.60625900  1
  F  F50  1  0.63967700  0.23101400  0.89374100  1
  F  F51  1  0.86032300  0.76898600  0.39374100  1
  F  F52  1  0.17059100  0.03164800  0.17718500  1
  F  F53  1  0.32940900  0.96835200  0.67718500  1
  F  F54  1  0.67059100  0.46835200  0.82281500  1
  F  F55  1  0.82940900  0.53164800  0.32281500  1
  F  F56  1  0.48413600  0.93458700  0.03607300  1
  F  F57  1  0.01586400  0.06541300  0.53607300  1
  F  F58  1  0.98413600  0.56541300  0.96392700  1
  F  F59  1  0.51586400  0.43458700  0.46392700  1
