# generated using pymatgen
data_K4Co2O5
_symmetry_space_group_name_H-M   'P 1'
_cell_length_a   7.10233900
_cell_length_b   7.10233900
_cell_length_c   10.40151400
_cell_angle_alpha   90.00000000
_cell_angle_beta   90.00000000
_cell_angle_gamma   90.00000000
_symmetry_Int_Tables_number   1
_chemical_formula_structural   K4Co2O5
_chemical_formula_sum   'K8 Co4 O10'
_cell_volume   524.68585145
_cell_formula_units_Z   2
loop_
 _symmetry_equiv_pos_site_id
 _symmetry_equiv_pos_as_xyz
  1  'x, y, z'
loop_
 _atom_site_type_symbol
 _atom_site_label
 _atom_site_symmetry_multiplicity
 _atom_site_fract_x
 _atom_site_fract_y
 _atom_site_fract_z
 _atom_site_occupancy
  K  K0  1  0.50000000  0.50000000  0.26830000  1
  K  K1  1  0.50000000  0.00000000  0.25000000  1
  K  K2  1  0.50000000  0.50000000  0.73170000  1
  K  K3  1  0.50000000  0.00000000  0.75000000  1
  K  K4  1  0.00000000  0.00000000  0.23170000  1
  K  K5  1  0.00000000  0.00000000  0.76830000  1
  K  K6  1  0.00000000  0.50000000  0.25000000  1
  K  K7  1  0.00000000  0.50000000  0.75000000  1
  Co  Co8  1  0.67581800  0.32418200  0.00000000  1
  Co  Co9  1  0.82418200  0.82418200  0.50000000  1
  Co  Co10  1  0.17581800  0.17581800  0.50000000  1
  Co  Co11  1  0.32418200  0.67581800  0.00000000  1
  O  O12  1  0.50000000  0.50000000  0.00000000  1
  O  O13  1  0.75809400  0.75809400  0.34443100  1
  O  O14  1  0.75809400  0.75809400  0.65556900  1
  O  O15  1  0.74190600  0.25809400  0.84443100  1
  O  O16  1  0.74190600  0.25809400  0.15556900  1
  O  O17  1  0.00000000  0.00000000  0.50000000  1
  O  O18  1  0.25809400  0.74190600  0.15556900  1
  O  O19  1  0.25809400  0.74190600  0.84443100  1
  O  O20  1  0.24190600  0.24190600  0.65556900  1
  O  O21  1  0.24190600  0.24190600  0.34443100  1
