# generated using pymatgen
data_K2O
_symmetry_space_group_name_H-M   'P 1'
_cell_length_a   9.36386100
_cell_length_b   9.36386100
_cell_length_c   6.66570400
_cell_angle_alpha   90.00000000
_cell_angle_beta   90.00000000
_cell_angle_gamma   90.00000000
_symmetry_Int_Tables_number   1
_chemical_formula_structural   K2O
_chemical_formula_sum   'K16 O8'
_cell_volume   584.46154375
_cell_formula_units_Z   8
loop_
 _symmetry_equiv_pos_site_id
 _symmetry_equiv_pos_as_xyz
  1  'x, y, z'
loop_
 _atom_site_type_symbol
 _atom_site_label
 _atom_site_symmetry_multiplicity
 _atom_site_fract_x
 _atom_site_fract_y
 _atom_site_fract_z
 _atom_site_occupancy
  K  K0  1  0.24915000  0.24915000  0.50000000  1
  K  K1  1  0.24915000  0.75085000  0.50000000  1
  K  K2  1  0.50000000  0.00000000  0.96398600  1
  K  K3  1  0.50000000  0.50000000  0.24448700  1
  K  K4  1  0.50000000  0.00000000  0.46398600  1
  K  K5  1  0.50000000  0.50000000  0.75551300  1
  K  K6  1  0.75085000  0.24915000  0.50000000  1
  K  K7  1  0.75085000  0.75085000  0.50000000  1
  K  K8  1  0.74915000  0.74915000  0.00000000  1
  K  K9  1  0.74915000  0.25085000  0.00000000  1
  K  K10  1  0.00000000  0.00000000  0.25551300  1
  K  K11  1  0.00000000  0.00000000  0.74448700  1
  K  K12  1  0.00000000  0.50000000  0.03601400  1
  K  K13  1  0.00000000  0.50000000  0.53601400  1
  K  K14  1  0.25085000  0.74915000  0.00000000  1
  K  K15  1  0.25085000  0.25085000  0.00000000  1
  O  O16  1  0.26717000  0.00000000  0.72649000  1
  O  O17  1  0.50000000  0.76717000  0.22649000  1
  O  O18  1  0.50000000  0.23283000  0.22649000  1
  O  O19  1  0.73283000  0.00000000  0.72649000  1
  O  O20  1  0.76717000  0.50000000  0.77351000  1
  O  O21  1  0.00000000  0.26717000  0.27351000  1
  O  O22  1  0.00000000  0.73283000  0.27351000  1
  O  O23  1  0.23283000  0.50000000  0.77351000  1
