# generated using pymatgen
data_Ba3Y2F12
_symmetry_space_group_name_H-M   'P 1'
_cell_length_a   9.83222000
_cell_length_b   9.83222000
_cell_length_c   5.80475900
_cell_angle_alpha   90.00000000
_cell_angle_beta   90.00000000
_cell_angle_gamma   90.00000000
_symmetry_Int_Tables_number   1
_chemical_formula_structural   Ba3Y2F12
_chemical_formula_sum   'Ba6 Y4 F24'
_cell_volume   561.16085541
_cell_formula_units_Z   2
loop_
 _symmetry_equiv_pos_site_id
 _symmetry_equiv_pos_as_xyz
  1  'x, y, z'
loop_
 _atom_site_type_symbol
 _atom_site_label
 _atom_site_symmetry_multiplicity
 _atom_site_fract_x
 _atom_site_fract_y
 _atom_site_fract_z
 _atom_site_occupancy
  Ba  Ba0  1  0.00000000  0.00000000  0.00000000  1
  Ba  Ba1  1  0.17927600  0.67927600  0.50000000  1
  Ba  Ba2  1  0.32072400  0.17927600  0.50000000  1
  Ba  Ba3  1  0.50000000  0.50000000  0.00000000  1
  Ba  Ba4  1  0.67927600  0.82072400  0.50000000  1
  Ba  Ba5  1  0.82072400  0.32072400  0.50000000  1
  Y  Y6  1  0.13307400  0.36692600  0.00000000  1
  Y  Y7  1  0.36692600  0.86692600  0.00000000  1
  Y  Y8  1  0.63307400  0.13307400  0.00000000  1
  Y  Y9  1  0.86692600  0.63307400  0.00000000  1
  F  F10  1  0.00000000  0.50000000  0.23327100  1
  F  F11  1  0.00000000  0.50000000  0.76672900  1
  F  F12  1  0.05544200  0.22089400  0.26024600  1
  F  F13  1  0.05544200  0.22089400  0.73975400  1
  F  F14  1  0.20346300  0.70346300  0.00000000  1
  F  F15  1  0.22089400  0.94455800  0.26024600  1
  F  F16  1  0.22089400  0.94455800  0.73975400  1
  F  F17  1  0.27910600  0.44455800  0.26024600  1
  F  F18  1  0.27910600  0.44455800  0.73975400  1
  F  F19  1  0.29653700  0.20346300  0.00000000  1
  F  F20  1  0.44455800  0.72089400  0.26024600  1
  F  F21  1  0.44455800  0.72089400  0.73975400  1
  F  F22  1  0.50000000  0.00000000  0.23327100  1
  F  F23  1  0.50000000  0.00000000  0.76672900  1
  F  F24  1  0.55544200  0.27910600  0.26024600  1
  F  F25  1  0.55544200  0.27910600  0.73975400  1
  F  F26  1  0.70346300  0.79653700  0.00000000  1
  F  F27  1  0.72089400  0.55544200  0.26024600  1
  F  F28  1  0.72089400  0.55544200  0.73975400  1
  F  F29  1  0.77910600  0.05544200  0.26024600  1
  F  F30  1  0.77910600  0.05544200  0.73975400  1
  F  F31  1  0.79653700  0.29653700  0.00000000  1
  F  F32  1  0.94455800  0.77910600  0.26024600  1
  F  F33  1  0.94455800  0.77910600  0.73975400  1
