# generated using pymatgen
data_V6O7F5
_symmetry_space_group_name_H-M   'P 1'
_cell_length_a   5.61223700
_cell_length_b   5.61919234
_cell_length_c   7.36335495
_cell_angle_alpha   72.36632581
_cell_angle_beta   72.78913633
_cell_angle_gamma   71.72972467
_symmetry_Int_Tables_number   1
_chemical_formula_structural   V6O7F5
_chemical_formula_sum   'V6 O7 F5'
_cell_volume   204.90056391
_cell_formula_units_Z   1
loop_
 _symmetry_equiv_pos_site_id
 _symmetry_equiv_pos_as_xyz
  1  'x, y, z'
loop_
 _atom_site_type_symbol
 _atom_site_label
 _atom_site_symmetry_multiplicity
 _atom_site_fract_x
 _atom_site_fract_y
 _atom_site_fract_z
 _atom_site_occupancy
  V  V0  1  0.67385200  0.70672600  0.84482000  1
  V  V1  1  0.32339600  0.34575000  0.66918300  1
  V  V2  1  0.66893300  0.62744700  0.32501900  1
  V  V3  1  0.31897900  0.34444900  0.16290500  1
  V  V4  1  0.98130700  0.99988900  0.50310300  1
  V  V5  1  0.02979300  0.98856600  0.99840400  1
  O  O6  1  0.01872800  0.65164100  0.66840800  1
  O  O7  1  0.23176200  0.23261300  0.96229200  1
  O  O8  1  0.77586800  0.77225700  0.03074600  1
  O  O9  1  0.43112700  0.42509700  0.37105200  1
  O  O10  1  0.31975700  0.69806100  0.98952500  1
  O  O11  1  0.62366900  0.03171800  0.67551300  1
  O  O12  1  0.97059200  0.34989700  0.33612300  1
  F  F13  1  0.36722400  0.95612700  0.33557600  1
  F  F14  1  0.57215700  0.56993000  0.63408900  1
  F  F15  1  0.89225800  0.89030000  0.30090200  1
  F  F16  1  0.09442700  0.10414200  0.69853300  1
  F  F17  1  0.70616800  0.30538900  0.99380500  1
