# generated using pymatgen
data_LiFeF4
_symmetry_space_group_name_H-M   'P 1'
_cell_length_a   10.21593800
_cell_length_b   10.21593800
_cell_length_c   6.00401000
_cell_angle_alpha   90.00000000
_cell_angle_beta   90.00000000
_cell_angle_gamma   90.00000000
_symmetry_Int_Tables_number   1
_chemical_formula_structural   LiFeF4
_chemical_formula_sum   'Li8 Fe8 F32'
_cell_volume   626.61084053
_cell_formula_units_Z   8
loop_
 _symmetry_equiv_pos_site_id
 _symmetry_equiv_pos_as_xyz
  1  'x, y, z'
loop_
 _atom_site_type_symbol
 _atom_site_label
 _atom_site_symmetry_multiplicity
 _atom_site_fract_x
 _atom_site_fract_y
 _atom_site_fract_z
 _atom_site_occupancy
  Li  Li0  1  0.93741000  0.75000000  0.37500000  1
  Li  Li1  1  0.75000000  0.06259000  0.62500000  1
  Li  Li2  1  0.25000000  0.93741000  0.62500000  1
  Li  Li3  1  0.06259000  0.25000000  0.37500000  1
  Li  Li4  1  0.43741000  0.25000000  0.87500000  1
  Li  Li5  1  0.25000000  0.56259000  0.12500000  1
  Li  Li6  1  0.75000000  0.43741000  0.12500000  1
  Li  Li7  1  0.56259000  0.75000000  0.87500000  1
  Fe  Fe8  1  0.96430300  0.25000000  0.87500000  1
  Fe  Fe9  1  0.25000000  0.03569700  0.12500000  1
  Fe  Fe10  1  0.75000000  0.96430300  0.12500000  1
  Fe  Fe11  1  0.03569700  0.75000000  0.87500000  1
  Fe  Fe12  1  0.46430300  0.75000000  0.37500000  1
  Fe  Fe13  1  0.75000000  0.53569700  0.62500000  1
  Fe  Fe14  1  0.25000000  0.46430300  0.62500000  1
  Fe  Fe15  1  0.53569700  0.25000000  0.37500000  1
  F  F16  1  0.84084800  0.10760500  0.96592500  1
  F  F17  1  0.93193550  0.17360250  0.58939950  1
  F  F18  1  0.93193550  0.32639750  0.16060050  1
  F  F19  1  0.34084800  0.89239500  0.28407500  1
  F  F20  1  0.10760500  0.34084800  0.71592500  1
  F  F21  1  0.89239500  0.84084800  0.03407500  1
  F  F22  1  0.17360250  0.06806450  0.41060050  1
  F  F23  1  0.32639750  0.06806450  0.83939950  1
  F  F24  1  0.82639750  0.93193550  0.41060050  1
  F  F25  1  0.67360250  0.93193550  0.83939950  1
  F  F26  1  0.89239500  0.65915200  0.71592500  1
  F  F27  1  0.10760500  0.15915200  0.03407500  1
  F  F28  1  0.65915200  0.10760500  0.28407500  1
  F  F29  1  0.06806450  0.67360250  0.16060050  1
  F  F30  1  0.06806450  0.82639750  0.58939950  1
  F  F31  1  0.15915200  0.89239500  0.96592500  1
  F  F32  1  0.34084800  0.60760500  0.46592500  1
  F  F33  1  0.43193550  0.67360250  0.08939950  1
  F  F34  1  0.43193550  0.82639750  0.66060050  1
  F  F35  1  0.84084800  0.39239500  0.78407500  1
  F  F36  1  0.60760500  0.84084800  0.21592500  1
  F  F37  1  0.39239500  0.34084800  0.53407500  1
  F  F38  1  0.67360250  0.56806450  0.91060050  1
  F  F39  1  0.82639750  0.56806450  0.33939950  1
  F  F40  1  0.32639750  0.43193550  0.91060050  1
  F  F41  1  0.17360250  0.43193550  0.33939950  1
  F  F42  1  0.39239500  0.15915200  0.21592500  1
  F  F43  1  0.60760500  0.65915200  0.53407500  1
  F  F44  1  0.15915200  0.60760500  0.78407500  1
  F  F45  1  0.56806450  0.17360250  0.66060050  1
  F  F46  1  0.56806450  0.32639750  0.08939950  1
  F  F47  1  0.65915200  0.39239500  0.46592500  1
