# generated using pymatgen
data_Na3GaP2H2O9
_symmetry_space_group_name_H-M   'P 1'
_cell_length_a   15.59760000
_cell_length_b   7.23960200
_cell_length_c   7.14522838
_cell_angle_alpha   90.00000000
_cell_angle_beta   96.58402375
_cell_angle_gamma   90.00000000
_symmetry_Int_Tables_number   1
_chemical_formula_structural   Na3GaP2H2O9
_chemical_formula_sum   'Na12 Ga4 P8 H8 O36'
_cell_volume   801.52085759
_cell_formula_units_Z   4
loop_
 _symmetry_equiv_pos_site_id
 _symmetry_equiv_pos_as_xyz
  1  'x, y, z'
loop_
 _atom_site_type_symbol
 _atom_site_label
 _atom_site_symmetry_multiplicity
 _atom_site_fract_x
 _atom_site_fract_y
 _atom_site_fract_z
 _atom_site_occupancy
  Na  Na0  1  0.00000000  0.23563300  0.00000000  1
  Na  Na1  1  0.00000000  0.76436700  0.00000000  1
  Na  Na2  1  0.61063000  0.00000000  0.70676200  1
  Na  Na3  1  0.88937000  0.50000000  0.29323800  1
  Na  Na4  1  0.75000000  0.75000000  0.50000000  1
  Na  Na5  1  0.75000000  0.25000000  0.50000000  1
  Na  Na6  1  0.50000000  0.73563300  0.00000000  1
  Na  Na7  1  0.50000000  0.26436700  0.00000000  1
  Na  Na8  1  0.11063000  0.50000000  0.70676200  1
  Na  Na9  1  0.38937000  0.00000000  0.29323800  1
  Na  Na10  1  0.25000000  0.25000000  0.50000000  1
  Na  Na11  1  0.25000000  0.75000000  0.50000000  1
  Ga  Ga12  1  0.75000000  0.75000000  0.00000000  1
  Ga  Ga13  1  0.75000000  0.25000000  0.00000000  1
  Ga  Ga14  1  0.25000000  0.25000000  0.00000000  1
  Ga  Ga15  1  0.25000000  0.75000000  0.00000000  1
  P  P16  1  0.87889600  0.50000000  0.77293900  1
  P  P17  1  0.62110400  0.00000000  0.22706100  1
  P  P18  1  0.61812800  0.50000000  0.70341900  1
  P  P19  1  0.88187200  0.00000000  0.29658100  1
  P  P20  1  0.37889600  0.00000000  0.77293900  1
  P  P21  1  0.12110400  0.50000000  0.22706100  1
  P  P22  1  0.11812800  0.00000000  0.70341900  1
  P  P23  1  0.38187200  0.50000000  0.29658100  1
  H  H24  1  0.55881100  0.50000000  0.39639500  1
  H  H25  1  0.94118900  0.00000000  0.60360500  1
  H  H26  1  0.68811200  0.50000000  0.17667900  1
  H  H27  1  0.81188800  0.00000000  0.82332100  1
  H  H28  1  0.05881100  0.00000000  0.39639500  1
  H  H29  1  0.44118900  0.50000000  0.60360500  1
  H  H30  1  0.18811200  0.00000000  0.17667900  1
  H  H31  1  0.31188800  0.50000000  0.82332100  1
  O  O32  1  0.97708800  0.50000000  0.78171400  1
  O  O33  1  0.52291200  0.00000000  0.21828600  1
  O  O34  1  0.83268800  0.50000000  0.57171500  1
  O  O35  1  0.66731200  0.00000000  0.42828500  1
  O  O36  1  0.85245900  0.67739500  0.88287600  1
  O  O37  1  0.85245900  0.32260500  0.88287600  1
  O  O38  1  0.64754100  0.82260500  0.11712400  1
  O  O39  1  0.64754100  0.17739500  0.11712400  1
  O  O40  1  0.66875650  0.67778250  0.76623800  1
  O  O41  1  0.66875650  0.32221750  0.76623800  1
  O  O42  1  0.83124350  0.82221750  0.23376200  1
  O  O43  1  0.83124350  0.17778250  0.23376200  1
  O  O44  1  0.52643800  0.50000000  0.76039200  1
  O  O45  1  0.97356200  0.00000000  0.23960800  1
  O  O46  1  0.61677050  0.50000000  0.47767000  1
  O  O47  1  0.88322950  0.00000000  0.52233000  1
  O  O48  1  0.74160400  0.50000000  0.11839300  1
  O  O49  1  0.75839600  0.00000000  0.88160700  1
  O  O50  1  0.47708800  0.00000000  0.78171400  1
  O  O51  1  0.02291200  0.50000000  0.21828600  1
  O  O52  1  0.33268800  0.00000000  0.57171500  1
  O  O53  1  0.16731200  0.50000000  0.42828500  1
  O  O54  1  0.35245900  0.17739500  0.88287600  1
  O  O55  1  0.35245900  0.82260500  0.88287600  1
  O  O56  1  0.14754100  0.32260500  0.11712400  1
  O  O57  1  0.14754100  0.67739500  0.11712400  1
  O  O58  1  0.16875650  0.17778250  0.76623800  1
  O  O59  1  0.16875650  0.82221750  0.76623800  1
  O  O60  1  0.33124350  0.32221750  0.23376200  1
  O  O61  1  0.33124350  0.67778250  0.23376200  1
  O  O62  1  0.02643800  0.00000000  0.76039200  1
  O  O63  1  0.47356200  0.50000000  0.23960800  1
  O  O64  1  0.11677050  0.00000000  0.47767000  1
  O  O65  1  0.38322950  0.50000000  0.52233000  1
  O  O66  1  0.24160400  0.00000000  0.11839300  1
  O  O67  1  0.25839600  0.50000000  0.88160700  1
