# generated using pymatgen
data_Li4Bi2C4SO16
_symmetry_space_group_name_H-M   'P 1'
_cell_length_a   13.19837400
_cell_length_b   13.92436000
_cell_length_c   15.16967000
_cell_angle_alpha   90.00000000
_cell_angle_beta   90.00000000
_cell_angle_gamma   90.00000000
_symmetry_Int_Tables_number   1
_chemical_formula_structural   Li4Bi2C4SO16
_chemical_formula_sum   'Li32 Bi16 C32 S8 O128'
_cell_volume   2787.86543269
_cell_formula_units_Z   8
loop_
 _symmetry_equiv_pos_site_id
 _symmetry_equiv_pos_as_xyz
  1  'x, y, z'
loop_
 _atom_site_type_symbol
 _atom_site_label
 _atom_site_symmetry_multiplicity
 _atom_site_fract_x
 _atom_site_fract_y
 _atom_site_fract_z
 _atom_site_occupancy
  Li  Li0  1  0.75000000  0.43993700  0.25000000  1
  Li  Li1  1  0.55214500  0.25000000  0.25000000  1
  Li  Li2  1  0.30214500  0.00000000  0.00000000  1
  Li  Li3  1  0.50000000  0.18993700  0.00000000  1
  Li  Li4  1  0.75000000  0.06006300  0.25000000  1
  Li  Li5  1  0.94785500  0.25000000  0.25000000  1
  Li  Li6  1  0.69785500  0.00000000  0.00000000  1
  Li  Li7  1  0.50000000  0.81006300  0.00000000  1
  Li  Li8  1  0.75000000  0.93993700  0.75000000  1
  Li  Li9  1  0.55214500  0.75000000  0.75000000  1
  Li  Li10  1  0.30214500  0.50000000  0.50000000  1
  Li  Li11  1  0.50000000  0.68993700  0.50000000  1
  Li  Li12  1  0.75000000  0.56006300  0.75000000  1
  Li  Li13  1  0.94785500  0.75000000  0.75000000  1
  Li  Li14  1  0.69785500  0.50000000  0.50000000  1
  Li  Li15  1  0.50000000  0.31006300  0.50000000  1
  Li  Li16  1  0.25000000  0.43993700  0.75000000  1
  Li  Li17  1  0.05214500  0.25000000  0.75000000  1
  Li  Li18  1  0.80214500  0.00000000  0.50000000  1
  Li  Li19  1  0.00000000  0.18993700  0.50000000  1
  Li  Li20  1  0.25000000  0.06006300  0.75000000  1
  Li  Li21  1  0.44785500  0.25000000  0.75000000  1
  Li  Li22  1  0.19785500  0.00000000  0.50000000  1
  Li  Li23  1  0.00000000  0.81006300  0.50000000  1
  Li  Li24  1  0.25000000  0.93993700  0.25000000  1
  Li  Li25  1  0.05214500  0.75000000  0.25000000  1
  Li  Li26  1  0.80214500  0.50000000  0.00000000  1
  Li  Li27  1  0.00000000  0.68993700  0.00000000  1
  Li  Li28  1  0.25000000  0.56006300  0.25000000  1
  Li  Li29  1  0.44785500  0.75000000  0.25000000  1
  Li  Li30  1  0.19785500  0.50000000  0.00000000  1
  Li  Li31  1  0.00000000  0.31006300  0.00000000  1
  Bi  Bi32  1  0.87500000  0.62500000  0.37500000  1
  Bi  Bi33  1  0.62500000  0.87500000  0.37500000  1
  Bi  Bi34  1  0.62500000  0.62500000  0.12500000  1
  Bi  Bi35  1  0.87500000  0.87500000  0.12500000  1
  Bi  Bi36  1  0.87500000  0.12500000  0.87500000  1
  Bi  Bi37  1  0.62500000  0.37500000  0.87500000  1
  Bi  Bi38  1  0.62500000  0.12500000  0.62500000  1
  Bi  Bi39  1  0.87500000  0.37500000  0.62500000  1
  Bi  Bi40  1  0.37500000  0.62500000  0.87500000  1
  Bi  Bi41  1  0.12500000  0.87500000  0.87500000  1
  Bi  Bi42  1  0.12500000  0.62500000  0.62500000  1
  Bi  Bi43  1  0.37500000  0.87500000  0.62500000  1
  Bi  Bi44  1  0.37500000  0.12500000  0.37500000  1
  Bi  Bi45  1  0.12500000  0.37500000  0.37500000  1
  Bi  Bi46  1  0.12500000  0.12500000  0.12500000  1
  Bi  Bi47  1  0.37500000  0.37500000  0.12500000  1
  C  C48  1  0.61143250  0.39583350  0.09028000  1
  C  C49  1  0.36143250  0.14583350  0.15972000  1
  C  C50  1  0.88856750  0.39583350  0.40972000  1
  C  C51  1  0.61143250  0.10416650  0.40972000  1
  C  C52  1  0.13856750  0.14583350  0.34028000  1
  C  C53  1  0.86143250  0.85416650  0.34028000  1
  C  C54  1  0.88856750  0.10416650  0.09028000  1
  C  C55  1  0.63856750  0.85416650  0.15972000  1
  C  C56  1  0.61143250  0.89583350  0.59028000  1
  C  C57  1  0.36143250  0.64583350  0.65972000  1
  C  C58  1  0.88856750  0.89583350  0.90972000  1
  C  C59  1  0.61143250  0.60416650  0.90972000  1
  C  C60  1  0.13856750  0.64583350  0.84028000  1
  C  C61  1  0.86143250  0.35416650  0.84028000  1
  C  C62  1  0.88856750  0.60416650  0.59028000  1
  C  C63  1  0.63856750  0.35416650  0.65972000  1
  C  C64  1  0.11143250  0.39583350  0.59028000  1
  C  C65  1  0.86143250  0.14583350  0.65972000  1
  C  C66  1  0.38856750  0.39583350  0.90972000  1
  C  C67  1  0.11143250  0.10416650  0.90972000  1
  C  C68  1  0.63856750  0.14583350  0.84028000  1
  C  C69  1  0.36143250  0.85416650  0.84028000  1
  C  C70  1  0.38856750  0.10416650  0.59028000  1
  C  C71  1  0.13856750  0.85416650  0.65972000  1
  C  C72  1  0.11143250  0.89583350  0.09028000  1
  C  C73  1  0.86143250  0.64583350  0.15972000  1
  C  C74  1  0.38856750  0.89583350  0.40972000  1
  C  C75  1  0.11143250  0.60416650  0.40972000  1
  C  C76  1  0.63856750  0.64583350  0.34028000  1
  C  C77  1  0.36143250  0.35416650  0.34028000  1
  C  C78  1  0.38856750  0.60416650  0.09028000  1
  C  C79  1  0.13856750  0.35416650  0.15972000  1
  S  S80  1  0.50000000  0.00000000  0.00000000  1
  S  S81  1  0.75000000  0.25000000  0.25000000  1
  S  S82  1  0.50000000  0.50000000  0.50000000  1
  S  S83  1  0.75000000  0.75000000  0.75000000  1
  S  S84  1  0.00000000  0.00000000  0.50000000  1
  S  S85  1  0.25000000  0.25000000  0.75000000  1
  S  S86  1  0.00000000  0.50000000  0.00000000  1
  S  S87  1  0.25000000  0.75000000  0.25000000  1
  O  O88  1  0.61353850  0.45658650  0.15559600  1
  O  O89  1  0.43286200  0.93620500  0.05372300  1
  O  O90  1  0.17332750  0.90483100  0.02483050  1
  O  O91  1  0.42332750  0.15483100  0.22516950  1
  O  O92  1  0.32667250  0.90483100  0.47516950  1
  O  O93  1  0.29382050  0.07748100  0.15914650  1
  O  O94  1  0.06713800  0.93620500  0.44627700  1
  O  O95  1  0.56713800  0.06379500  0.05372300  1
  O  O96  1  0.79382050  0.92251900  0.34085350  1
  O  O97  1  0.67332750  0.09516900  0.47516950  1
  O  O98  1  0.36353850  0.20658650  0.09440400  1
  O  O99  1  0.93286200  0.06379500  0.44627700  1
  O  O100  1  0.88646150  0.45658650  0.34440400  1
  O  O101  1  0.61353850  0.04341350  0.34440400  1
  O  O102  1  0.54382050  0.32748100  0.09085350  1
  O  O103  1  0.20617950  0.07748100  0.34085350  1
  O  O104  1  0.04382050  0.67251900  0.40914650  1
  O  O105  1  0.70617950  0.92251900  0.15914650  1
  O  O106  1  0.13646150  0.20658650  0.40559600  1
  O  O107  1  0.86353850  0.79341350  0.40559600  1
  O  O108  1  0.81713800  0.18620500  0.30372300  1
  O  O109  1  0.88646150  0.04341350  0.15559600  1
  O  O110  1  0.07667250  0.15483100  0.27483050  1
  O  O111  1  0.95617950  0.32748100  0.40914650  1
  O  O112  1  0.68286200  0.18620500  0.19627700  1
  O  O113  1  0.68286200  0.31379500  0.30372300  1
  O  O114  1  0.45617950  0.67251900  0.09085350  1
  O  O115  1  0.92332750  0.84516900  0.27483050  1
  O  O116  1  0.82667250  0.09516900  0.02483050  1
  O  O117  1  0.57667250  0.84516900  0.22516950  1
  O  O118  1  0.81713800  0.31379500  0.19627700  1
  O  O119  1  0.63646150  0.79341350  0.09440400  1
  O  O120  1  0.61353850  0.95658650  0.65559600  1
  O  O121  1  0.43286200  0.43620500  0.55372300  1
  O  O122  1  0.17332750  0.40483100  0.52483050  1
  O  O123  1  0.42332750  0.65483100  0.72516950  1
  O  O124  1  0.32667250  0.40483100  0.97516950  1
  O  O125  1  0.29382050  0.57748100  0.65914650  1
  O  O126  1  0.06713800  0.43620500  0.94627700  1
  O  O127  1  0.56713800  0.56379500  0.55372300  1
  O  O128  1  0.79382050  0.42251900  0.84085350  1
  O  O129  1  0.67332750  0.59516900  0.97516950  1
  O  O130  1  0.36353850  0.70658650  0.59440400  1
  O  O131  1  0.93286200  0.56379500  0.94627700  1
  O  O132  1  0.88646150  0.95658650  0.84440400  1
  O  O133  1  0.61353850  0.54341350  0.84440400  1
  O  O134  1  0.54382050  0.82748100  0.59085350  1
  O  O135  1  0.20617950  0.57748100  0.84085350  1
  O  O136  1  0.04382050  0.17251900  0.90914650  1
  O  O137  1  0.70617950  0.42251900  0.65914650  1
  O  O138  1  0.13646150  0.70658650  0.90559600  1
  O  O139  1  0.86353850  0.29341350  0.90559600  1
  O  O140  1  0.81713800  0.68620500  0.80372300  1
  O  O141  1  0.88646150  0.54341350  0.65559600  1
  O  O142  1  0.07667250  0.65483100  0.77483050  1
  O  O143  1  0.95617950  0.82748100  0.90914650  1
  O  O144  1  0.68286200  0.68620500  0.69627700  1
  O  O145  1  0.68286200  0.81379500  0.80372300  1
  O  O146  1  0.45617950  0.17251900  0.59085350  1
  O  O147  1  0.92332750  0.34516900  0.77483050  1
  O  O148  1  0.82667250  0.59516900  0.52483050  1
  O  O149  1  0.57667250  0.34516900  0.72516950  1
  O  O150  1  0.81713800  0.81379500  0.69627700  1
  O  O151  1  0.63646150  0.29341350  0.59440400  1
  O  O152  1  0.11353850  0.45658650  0.65559600  1
  O  O153  1  0.93286200  0.93620500  0.55372300  1
  O  O154  1  0.67332750  0.90483100  0.52483050  1
  O  O155  1  0.92332750  0.15483100  0.72516950  1
  O  O156  1  0.82667250  0.90483100  0.97516950  1
  O  O157  1  0.79382050  0.07748100  0.65914650  1
  O  O158  1  0.56713800  0.93620500  0.94627700  1
  O  O159  1  0.06713800  0.06379500  0.55372300  1
  O  O160  1  0.29382050  0.92251900  0.84085350  1
  O  O161  1  0.17332750  0.09516900  0.97516950  1
  O  O162  1  0.86353850  0.20658650  0.59440400  1
  O  O163  1  0.43286200  0.06379500  0.94627700  1
  O  O164  1  0.38646150  0.45658650  0.84440400  1
  O  O165  1  0.11353850  0.04341350  0.84440400  1
  O  O166  1  0.04382050  0.32748100  0.59085350  1
  O  O167  1  0.70617950  0.07748100  0.84085350  1
  O  O168  1  0.54382050  0.67251900  0.90914650  1
  O  O169  1  0.20617950  0.92251900  0.65914650  1
  O  O170  1  0.63646150  0.20658650  0.90559600  1
  O  O171  1  0.36353850  0.79341350  0.90559600  1
  O  O172  1  0.31713800  0.18620500  0.80372300  1
  O  O173  1  0.38646150  0.04341350  0.65559600  1
  O  O174  1  0.57667250  0.15483100  0.77483050  1
  O  O175  1  0.45617950  0.32748100  0.90914650  1
  O  O176  1  0.18286200  0.18620500  0.69627700  1
  O  O177  1  0.18286200  0.31379500  0.80372300  1
  O  O178  1  0.95617950  0.67251900  0.59085350  1
  O  O179  1  0.42332750  0.84516900  0.77483050  1
  O  O180  1  0.32667250  0.09516900  0.52483050  1
  O  O181  1  0.07667250  0.84516900  0.72516950  1
  O  O182  1  0.31713800  0.31379500  0.69627700  1
  O  O183  1  0.13646150  0.79341350  0.59440400  1
  O  O184  1  0.11353850  0.95658650  0.15559600  1
  O  O185  1  0.93286200  0.43620500  0.05372300  1
  O  O186  1  0.67332750  0.40483100  0.02483050  1
  O  O187  1  0.92332750  0.65483100  0.22516950  1
  O  O188  1  0.82667250  0.40483100  0.47516950  1
  O  O189  1  0.79382050  0.57748100  0.15914650  1
  O  O190  1  0.56713800  0.43620500  0.44627700  1
  O  O191  1  0.06713800  0.56379500  0.05372300  1
  O  O192  1  0.29382050  0.42251900  0.34085350  1
  O  O193  1  0.17332750  0.59516900  0.47516950  1
  O  O194  1  0.86353850  0.70658650  0.09440400  1
  O  O195  1  0.43286200  0.56379500  0.44627700  1
  O  O196  1  0.38646150  0.95658650  0.34440400  1
  O  O197  1  0.11353850  0.54341350  0.34440400  1
  O  O198  1  0.04382050  0.82748100  0.09085350  1
  O  O199  1  0.70617950  0.57748100  0.34085350  1
  O  O200  1  0.54382050  0.17251900  0.40914650  1
  O  O201  1  0.20617950  0.42251900  0.15914650  1
  O  O202  1  0.63646150  0.70658650  0.40559600  1
  O  O203  1  0.36353850  0.29341350  0.40559600  1
  O  O204  1  0.31713800  0.68620500  0.30372300  1
  O  O205  1  0.38646150  0.54341350  0.15559600  1
  O  O206  1  0.57667250  0.65483100  0.27483050  1
  O  O207  1  0.45617950  0.82748100  0.40914650  1
  O  O208  1  0.18286200  0.68620500  0.19627700  1
  O  O209  1  0.18286200  0.81379500  0.30372300  1
  O  O210  1  0.95617950  0.17251900  0.09085350  1
  O  O211  1  0.42332750  0.34516900  0.27483050  1
  O  O212  1  0.32667250  0.59516900  0.02483050  1
  O  O213  1  0.07667250  0.34516900  0.22516950  1
  O  O214  1  0.31713800  0.81379500  0.19627700  1
  O  O215  1  0.13646150  0.29341350  0.09440400  1
