# generated using pymatgen
data_K2P3H7O9
_symmetry_space_group_name_H-M   'P 1'
_cell_length_a   7.65277100
_cell_length_b   8.75701238
_cell_length_c   9.16738627
_cell_angle_alpha   100.87656059
_cell_angle_beta   112.99755450
_cell_angle_gamma   88.48766156
_symmetry_Int_Tables_number   1
_chemical_formula_structural   K2P3H7O9
_chemical_formula_sum   'K4 P6 H14 O18'
_cell_volume   554.60722117
_cell_formula_units_Z   2
loop_
 _symmetry_equiv_pos_site_id
 _symmetry_equiv_pos_as_xyz
  1  'x, y, z'
loop_
 _atom_site_type_symbol
 _atom_site_label
 _atom_site_symmetry_multiplicity
 _atom_site_fract_x
 _atom_site_fract_y
 _atom_site_fract_z
 _atom_site_occupancy
  K  K0  1  0.68399100  0.59617500  0.90259100  1
  K  K1  1  0.31600900  0.40382500  0.09740900  1
  K  K2  1  0.59123100  0.07619800  0.84971400  1
  K  K3  1  0.40876900  0.92380200  0.15028600  1
  P  P4  1  0.06044200  0.10255000  0.77631800  1
  P  P5  1  0.93955800  0.89745000  0.22368200  1
  P  P6  1  0.53112600  0.72043900  0.48227100  1
  P  P7  1  0.46887400  0.27956100  0.51772900  1
  P  P8  1  0.14510100  0.63544300  0.75836700  1
  P  P9  1  0.85489900  0.36455700  0.24163300  1
  H  H10  1  0.07250200  0.08843200  0.62484800  1
  H  H11  1  0.92749800  0.91156800  0.37515200  1
  H  H12  1  0.85333700  0.29239600  0.74772500  1
  H  H13  1  0.14666300  0.70760400  0.25227500  1
  H  H14  1  0.65825200  0.59872400  0.49736400  1
  H  H15  1  0.34174800  0.40127600  0.50263600  1
  H  H16  1  0.74702800  0.91635500  0.57273200  1
  H  H17  1  0.25297200  0.08364500  0.42726800  1
  H  H18  1  0.07065500  0.48594200  0.66918500  1
  H  H19  1  0.92934500  0.51405800  0.33081500  1
  H  H20  1  0.95255000  0.82310600  0.78909300  1
  H  H21  1  0.04745000  0.17689400  0.21090700  1
  H  H22  1  0.30190300  0.74091400  0.63486500  1
  H  H23  1  0.69809700  0.25908600  0.36513500  1
  O  O24  1  0.25441900  0.09260800  0.90604400  1
  O  O25  1  0.74558100  0.90739200  0.09395600  1
  O  O26  1  0.90189700  0.98479100  0.75524100  1
  O  O27  1  0.09810300  0.01520900  0.24475900  1
  O  O28  1  0.99352900  0.27531000  0.81074200  1
  O  O29  1  0.00647100  0.72469000  0.18925800  1
  O  O30  1  0.36306100  0.67491800  0.32228200  1
  O  O31  1  0.63693900  0.32508200  0.67771800  1
  O  O32  1  0.49429500  0.75731700  0.63705100  1
  O  O33  1  0.50570500  0.24268300  0.36294900  1
  O  O34  1  0.64465700  0.86279400  0.46656200  1
  O  O35  1  0.35534300  0.13720600  0.53343800  1
  O  O36  1  0.32269100  0.62496400  0.90399500  1
  O  O37  1  0.67730900  0.37503600  0.09600500  1
  O  O38  1  0.97436700  0.70699100  0.79936300  1
  O  O39  1  0.02563300  0.29300900  0.20063700  1
  O  O40  1  0.16686200  0.73131500  0.63717600  1
  O  O41  1  0.83313800  0.26868500  0.36282400  1
