# generated using pymatgen
data_Rb8SnO6
_symmetry_space_group_name_H-M   'P 1'
_cell_length_a   7.54939357
_cell_length_b   7.54939357
_cell_length_c   15.72966600
_cell_angle_alpha   90.00000000
_cell_angle_beta   90.00000000
_cell_angle_gamma   120.00000000
_symmetry_Int_Tables_number   1
_chemical_formula_structural   Rb8SnO6
_chemical_formula_sum   'Rb16 Sn2 O12'
_cell_volume   776.37987057
_cell_formula_units_Z   2
loop_
 _symmetry_equiv_pos_site_id
 _symmetry_equiv_pos_as_xyz
  1  'x, y, z'
loop_
 _atom_site_type_symbol
 _atom_site_label
 _atom_site_symmetry_multiplicity
 _atom_site_fract_x
 _atom_site_fract_y
 _atom_site_fract_z
 _atom_site_occupancy
  Rb  Rb0  1  0.71740900  0.71740900  0.27238000  1
  Rb  Rb1  1  0.60447900  0.60447900  0.62041500  1
  Rb  Rb2  1  0.39552100  0.39552100  0.12041500  1
  Rb  Rb3  1  0.28259100  0.28259100  0.77238000  1
  Rb  Rb4  1  0.66666667  0.33333333  0.91677700  1
  Rb  Rb5  1  0.66666667  0.33333333  0.41677700  1
  Rb  Rb6  1  0.28259100  0.00000000  0.27238000  1
  Rb  Rb7  1  0.39552100  0.00000000  0.62041500  1
  Rb  Rb8  1  0.60447900  0.00000000  0.12041500  1
  Rb  Rb9  1  0.00000000  0.71740900  0.77238000  1
  Rb  Rb10  1  0.71740900  0.00000000  0.77238000  1
  Rb  Rb11  1  0.00000000  0.60447900  0.12041500  1
  Rb  Rb12  1  0.33333333  0.66666667  0.41677700  1
  Rb  Rb13  1  0.33333333  0.66666667  0.91677700  1
  Rb  Rb14  1  0.00000000  0.39552100  0.62041500  1
  Rb  Rb15  1  0.00000000  0.28259100  0.27238000  1
  Sn  Sn16  1  0.00000000  0.00000000  0.49346800  1
  Sn  Sn17  1  0.00000000  0.00000000  0.99346800  1
  O  O18  1  0.74717800  0.74717800  0.45280600  1
  O  O19  1  0.25282200  0.25282200  0.95280600  1
  O  O20  1  0.66666667  0.33333333  0.72918300  1
  O  O21  1  0.00000000  0.00000000  0.62340600  1
  O  O22  1  0.00000000  0.00000000  0.12340600  1
  O  O23  1  0.66666667  0.33333333  0.22918300  1
  O  O24  1  0.25282200  0.00000000  0.45280600  1
  O  O25  1  0.00000000  0.74717800  0.95280600  1
  O  O26  1  0.74717800  0.00000000  0.95280600  1
  O  O27  1  0.33333333  0.66666667  0.22918300  1
  O  O28  1  0.33333333  0.66666667  0.72918300  1
  O  O29  1  0.00000000  0.25282200  0.45280600  1
