# generated using pymatgen
data_Li4Nb5V3O16
_symmetry_space_group_name_H-M   'P 1'
_cell_length_a   10.56034400
_cell_length_b   6.05149400
_cell_length_c   10.06849003
_cell_angle_alpha   90.00000000
_cell_angle_beta   90.15953626
_cell_angle_gamma   90.00000000
_symmetry_Int_Tables_number   1
_chemical_formula_structural   Li4Nb5V3O16
_chemical_formula_sum   'Li8 Nb10 V6 O32'
_cell_volume   643.43300345
_cell_formula_units_Z   2
loop_
 _symmetry_equiv_pos_site_id
 _symmetry_equiv_pos_as_xyz
  1  'x, y, z'
loop_
 _atom_site_type_symbol
 _atom_site_label
 _atom_site_symmetry_multiplicity
 _atom_site_fract_x
 _atom_site_fract_y
 _atom_site_fract_z
 _atom_site_occupancy
  Li  Li0  1  0.66749700  0.00000000  0.90724400  1
  Li  Li1  1  0.50016100  0.50000000  0.98717300  1
  Li  Li2  1  0.50402300  0.50000000  0.49140500  1
  Li  Li3  1  0.83342100  0.50000000  0.39172000  1
  Li  Li4  1  0.16749700  0.50000000  0.90724400  1
  Li  Li5  1  0.00016100  0.00000000  0.98717300  1
  Li  Li6  1  0.00402300  0.00000000  0.49140500  1
  Li  Li7  1  0.33342100  0.00000000  0.39172000  1
  Nb  Nb8  1  0.65592200  0.00000000  0.49379200  1
  Nb  Nb9  1  0.82311300  0.00000000  0.22314900  1
  Nb  Nb10  1  0.82677700  0.50000000  0.99773400  1
  Nb  Nb11  1  0.90798800  0.71846600  0.71413700  1
  Nb  Nb12  1  0.90798800  0.28153400  0.71413700  1
  Nb  Nb13  1  0.15592200  0.50000000  0.49379200  1
  Nb  Nb14  1  0.32311300  0.50000000  0.22314900  1
  Nb  Nb15  1  0.32677700  0.00000000  0.99773400  1
  Nb  Nb16  1  0.40798800  0.21846600  0.71413700  1
  Nb  Nb17  1  0.40798800  0.78153400  0.71413700  1
  V  V18  1  0.58499350  0.24458350  0.21192500  1
  V  V19  1  0.58499350  0.75541650  0.21192500  1
  V  V20  1  0.67345900  0.50000000  0.71379600  1
  V  V21  1  0.08499350  0.74458350  0.21192500  1
  V  V22  1  0.08499350  0.25541650  0.21192500  1
  V  V23  1  0.17345900  0.00000000  0.71379600  1
  O  O24  1  0.58278200  0.24599900  0.59480800  1
  O  O25  1  0.52514900  0.00000000  0.35327600  1
  O  O26  1  0.67594500  0.00000000  0.09906000  1
  O  O27  1  0.99379900  0.00000000  0.30856300  1
  O  O28  1  0.50055300  0.50000000  0.80392700  1
  O  O29  1  0.58278200  0.75400100  0.59480800  1
  O  O30  1  0.74474000  0.22020800  0.34531300  1
  O  O31  1  0.74474000  0.77979200  0.34531300  1
  O  O32  1  0.66793900  0.50000000  0.08930500  1
  O  O33  1  0.82976100  0.00000000  0.59162900  1
  O  O34  1  0.76351650  0.72315350  0.84646000  1
  O  O35  1  0.76351650  0.27684650  0.84646000  1
  O  O36  1  0.82303800  0.50000000  0.57945900  1
  O  O37  1  0.90931000  0.75127900  0.09682500  1
  O  O38  1  0.98654300  0.50000000  0.85758900  1
  O  O39  1  0.90931000  0.24872100  0.09682500  1
  O  O40  1  0.08278200  0.74599900  0.59480800  1
  O  O41  1  0.02514900  0.50000000  0.35327600  1
  O  O42  1  0.17594500  0.50000000  0.09906000  1
  O  O43  1  0.49379900  0.50000000  0.30856300  1
  O  O44  1  0.00055300  0.00000000  0.80392700  1
  O  O45  1  0.08278200  0.25400100  0.59480800  1
  O  O46  1  0.24474000  0.72020800  0.34531300  1
  O  O47  1  0.24474000  0.27979200  0.34531300  1
  O  O48  1  0.16793900  0.00000000  0.08930500  1
  O  O49  1  0.32976100  0.50000000  0.59162900  1
  O  O50  1  0.26351650  0.22315350  0.84646000  1
  O  O51  1  0.26351650  0.77684650  0.84646000  1
  O  O52  1  0.32303800  0.00000000  0.57945900  1
  O  O53  1  0.40931000  0.25127900  0.09682500  1
  O  O54  1  0.48654300  0.00000000  0.85758900  1
  O  O55  1  0.40931000  0.74872100  0.09682500  1
