# generated using pymatgen
data_Sr4LiCu(CO5)2
_symmetry_space_group_name_H-M   'P 1'
_cell_length_a   5.57740000
_cell_length_b   5.57740000
_cell_length_c   14.83094600
_cell_angle_alpha   90.00000000
_cell_angle_beta   90.00000000
_cell_angle_gamma   90.00000000
_symmetry_Int_Tables_number   1
_chemical_formula_structural   Sr4LiCu(CO5)2
_chemical_formula_sum   'Sr8 Li2 Cu2 C4 O20'
_cell_volume   461.35203256
_cell_formula_units_Z   2
loop_
 _symmetry_equiv_pos_site_id
 _symmetry_equiv_pos_as_xyz
  1  'x, y, z'
loop_
 _atom_site_type_symbol
 _atom_site_label
 _atom_site_symmetry_multiplicity
 _atom_site_fract_x
 _atom_site_fract_y
 _atom_site_fract_z
 _atom_site_occupancy
  Sr  Sr0  1  0.50000000  0.00000000  0.11347400  1
  Sr  Sr1  1  0.50000000  0.00000000  0.38652600  1
  Sr  Sr2  1  0.00000000  0.50000000  0.11347400  1
  Sr  Sr3  1  0.00000000  0.50000000  0.38652600  1
  Sr  Sr4  1  0.00000000  0.50000000  0.61347400  1
  Sr  Sr5  1  0.00000000  0.50000000  0.88652600  1
  Sr  Sr6  1  0.50000000  0.00000000  0.61347400  1
  Sr  Sr7  1  0.50000000  0.00000000  0.88652600  1
  Li  Li8  1  0.00000000  0.00000000  0.00000000  1
  Li  Li9  1  0.50000000  0.50000000  0.50000000  1
  Cu  Cu10  1  0.50000000  0.50000000  0.00000000  1
  Cu  Cu11  1  0.00000000  0.00000000  0.50000000  1
  C  C12  1  0.50000000  0.50000000  0.26330500  1
  C  C13  1  0.00000000  0.00000000  0.23669500  1
  C  C14  1  0.00000000  0.00000000  0.76330500  1
  C  C15  1  0.50000000  0.50000000  0.73669500  1
  O  O16  1  0.26506150  0.73493850  0.00159350  1
  O  O17  1  0.76506150  0.76506150  0.49840650  1
  O  O18  1  0.35622750  0.35622750  0.22094350  1
  O  O19  1  0.50000000  0.50000000  0.35166600  1
  O  O20  1  0.64377250  0.64377250  0.22094350  1
  O  O21  1  0.73493850  0.26506150  0.00159350  1
  O  O22  1  0.23493850  0.23493850  0.49840650  1
  O  O23  1  0.85622750  0.14377250  0.27905650  1
  O  O24  1  0.00000000  0.00000000  0.14833400  1
  O  O25  1  0.14377250  0.85622750  0.27905650  1
  O  O26  1  0.76506150  0.23493850  0.50159350  1
  O  O27  1  0.26506150  0.26506150  0.99840650  1
  O  O28  1  0.85622750  0.85622750  0.72094350  1
  O  O29  1  0.00000000  0.00000000  0.85166600  1
  O  O30  1  0.14377250  0.14377250  0.72094350  1
  O  O31  1  0.23493850  0.76506150  0.50159350  1
  O  O32  1  0.73493850  0.73493850  0.99840650  1
  O  O33  1  0.35622750  0.64377250  0.77905650  1
  O  O34  1  0.50000000  0.50000000  0.64833400  1
  O  O35  1  0.64377250  0.35622750  0.77905650  1
