# generated using pymatgen
data_KPH3O3F
_symmetry_space_group_name_H-M   'P 1'
_cell_length_a   6.53696000
_cell_length_b   10.94555000
_cell_length_c   7.92774096
_cell_angle_alpha   90.00000000
_cell_angle_beta   124.65916306
_cell_angle_gamma   90.00000000
_symmetry_Int_Tables_number   1
_chemical_formula_structural   KPH3O3F
_chemical_formula_sum   'K4 P4 H12 O12 F4'
_cell_volume   466.57874748
_cell_formula_units_Z   4
loop_
 _symmetry_equiv_pos_site_id
 _symmetry_equiv_pos_as_xyz
  1  'x, y, z'
loop_
 _atom_site_type_symbol
 _atom_site_label
 _atom_site_symmetry_multiplicity
 _atom_site_fract_x
 _atom_site_fract_y
 _atom_site_fract_z
 _atom_site_occupancy
  K  K0  1  0.93478100  0.67928700  0.55014400  1
  K  K1  1  0.06521900  0.17928700  0.94985600  1
  K  K2  1  0.06521900  0.32071300  0.44985600  1
  K  K3  1  0.93478100  0.82071300  0.05014400  1
  P  P4  1  0.59555900  0.95250700  0.29380800  1
  P  P5  1  0.40444100  0.45250700  0.20619200  1
  P  P6  1  0.40444100  0.04749300  0.70619200  1
  P  P7  1  0.59555900  0.54749300  0.79380800  1
  H  H8  1  0.71501400  0.05252200  0.27292800  1
  H  H9  1  0.28498600  0.55252200  0.22707200  1
  H  H10  1  0.28498600  0.94747800  0.72707200  1
  H  H11  1  0.71501400  0.44747800  0.77292800  1
  H  H12  1  0.71688100  0.96035000  0.62069400  1
  H  H13  1  0.28311900  0.46035000  0.87930600  1
  H  H14  1  0.28311900  0.03965000  0.37930600  1
  H  H15  1  0.71688100  0.53965000  0.12069400  1
  H  H16  1  0.41028800  0.77861500  0.05073900  1
  H  H17  1  0.58971200  0.27861500  0.44926100  1
  H  H18  1  0.58971200  0.22138500  0.94926100  1
  H  H19  1  0.41028800  0.72138500  0.55073900  1
  O  O20  1  0.33376100  0.98951900  0.22231900  1
  O  O21  1  0.66623900  0.48951900  0.27768100  1
  O  O22  1  0.66623900  0.01048100  0.77768100  1
  O  O23  1  0.33376100  0.51048100  0.72231900  1
  O  O24  1  0.76539000  0.91962100  0.53122800  1
  O  O25  1  0.23461000  0.41962100  0.96877200  1
  O  O26  1  0.23461000  0.08037900  0.46877200  1
  O  O27  1  0.76539000  0.58037900  0.03122800  1
  O  O28  1  0.61559600  0.84378700  0.18149600  1
  O  O29  1  0.38440400  0.34378700  0.31850400  1
  O  O30  1  0.38440400  0.15621300  0.81850400  1
  O  O31  1  0.61559600  0.65621300  0.68149600  1
  F  F32  1  0.24919900  0.72713600  0.95124700  1
  F  F33  1  0.75080100  0.22713600  0.54875300  1
  F  F34  1  0.75080100  0.27286400  0.04875300  1
  F  F35  1  0.24919900  0.77286400  0.45124700  1
