# generated using pymatgen
data_Sm2Cu2O5
_symmetry_space_group_name_H-M   'P 1'
_cell_length_a   3.65156400
_cell_length_b   11.05891200
_cell_length_c   12.74684200
_cell_angle_alpha   90.00000000
_cell_angle_beta   90.00000000
_cell_angle_gamma   90.00000000
_symmetry_Int_Tables_number   1
_chemical_formula_structural   Sm2Cu2O5
_chemical_formula_sum   'Sm8 Cu8 O20'
_cell_volume   514.74711558
_cell_formula_units_Z   4
loop_
 _symmetry_equiv_pos_site_id
 _symmetry_equiv_pos_as_xyz
  1  'x, y, z'
loop_
 _atom_site_type_symbol
 _atom_site_label
 _atom_site_symmetry_multiplicity
 _atom_site_fract_x
 _atom_site_fract_y
 _atom_site_fract_z
 _atom_site_occupancy
  Sm  Sm0  1  0.21710900  0.04298900  0.32976800  1
  Sm  Sm1  1  0.21373200  0.20791000  0.00321900  1
  Sm  Sm2  1  0.71373200  0.29209000  0.50321900  1
  Sm  Sm3  1  0.71710900  0.45701100  0.82976800  1
  Sm  Sm4  1  0.28289100  0.54298900  0.32976800  1
  Sm  Sm5  1  0.28626800  0.70791000  0.00321900  1
  Sm  Sm6  1  0.78626800  0.79209000  0.50321900  1
  Sm  Sm7  1  0.78289100  0.95701100  0.82976800  1
  Cu  Cu8  1  0.33962600  0.01140300  0.61413200  1
  Cu  Cu9  1  0.15626200  0.23689900  0.71771400  1
  Cu  Cu10  1  0.65626200  0.26310100  0.21771400  1
  Cu  Cu11  1  0.83962600  0.48859700  0.11413200  1
  Cu  Cu12  1  0.16037400  0.51140300  0.61413200  1
  Cu  Cu13  1  0.34373800  0.73689900  0.71771400  1
  Cu  Cu14  1  0.84373800  0.76310100  0.21771400  1
  Cu  Cu15  1  0.66037400  0.98859700  0.11413200  1
  O  O16  1  0.27727500  0.07363200  0.76253500  1
  O  O17  1  0.72207200  0.07532400  0.97685100  1
  O  O18  1  0.36914900  0.12524600  0.16639800  1
  O  O19  1  0.72396400  0.17570900  0.35455600  1
  O  O20  1  0.21534100  0.17439600  0.56847500  1
  O  O21  1  0.71534100  0.32560400  0.06847500  1
  O  O22  1  0.22396400  0.32429100  0.85455600  1
  O  O23  1  0.86914900  0.37475400  0.66639800  1
  O  O24  1  0.22207200  0.42467600  0.47685100  1
  O  O25  1  0.77727500  0.42636800  0.26253500  1
  O  O26  1  0.22272500  0.57363200  0.76253500  1
  O  O27  1  0.77792800  0.57532400  0.97685100  1
  O  O28  1  0.13085100  0.62524600  0.16639800  1
  O  O29  1  0.77603600  0.67570900  0.35455600  1
  O  O30  1  0.28465900  0.67439600  0.56847500  1
  O  O31  1  0.78465900  0.82560400  0.06847500  1
  O  O32  1  0.27603600  0.82429100  0.85455600  1
  O  O33  1  0.63085100  0.87475400  0.66639800  1
  O  O34  1  0.27792800  0.92467600  0.47685100  1
  O  O35  1  0.72272500  0.92636800  0.26253500  1
