# generated using pymatgen
data_LiTi3Nb(PO4)6
_symmetry_space_group_name_H-M   'P 1'
_cell_length_a   8.66871985
_cell_length_b   8.66871985
_cell_length_c   21.98059522
_cell_angle_alpha   90.00000000
_cell_angle_beta   90.00000000
_cell_angle_gamma   120.00000000
_symmetry_Int_Tables_number   1
_chemical_formula_structural   LiTi3Nb(PO4)6
_chemical_formula_sum   'Li3 Ti9 Nb3 P18 O72'
_cell_volume   1430.47415811
_cell_formula_units_Z   3
loop_
 _symmetry_equiv_pos_site_id
 _symmetry_equiv_pos_as_xyz
  1  'x, y, z'
loop_
 _atom_site_type_symbol
 _atom_site_label
 _atom_site_symmetry_multiplicity
 _atom_site_fract_x
 _atom_site_fract_y
 _atom_site_fract_z
 _atom_site_occupancy
  Li  Li0  1  0.00000000  0.00000000  0.00536700  1
  Li  Li1  1  0.66666667  0.33333333  0.33870033  1
  Li  Li2  1  0.33333333  0.66666667  0.67203367  1
  Ti  Ti3  1  0.00000000  0.00000000  0.14522300  1
  Ti  Ti4  1  0.33333333  0.66666667  0.02697067  1
  Ti  Ti5  1  0.33333333  0.66666667  0.30699667  1
  Ti  Ti6  1  0.66666667  0.33333333  0.47855633  1
  Ti  Ti7  1  0.00000000  0.00000000  0.36030400  1
  Ti  Ti8  1  0.00000000  0.00000000  0.64033000  1
  Ti  Ti9  1  0.33333333  0.66666667  0.81188967  1
  Ti  Ti10  1  0.66666667  0.33333333  0.69363733  1
  Ti  Ti11  1  0.66666667  0.33333333  0.97366333  1
  Nb  Nb12  1  0.66666667  0.33333333  0.18952333  1
  Nb  Nb13  1  0.33333333  0.66666667  0.52285667  1
  Nb  Nb14  1  0.00000000  0.00000000  0.85619000  1
  P  P15  1  0.95394967  0.33000833  0.08062533  1
  P  P16  1  0.37605867  0.04605033  0.08062533  1
  P  P17  1  0.66999167  0.62394133  0.08062533  1
  P  P18  1  0.00335900  0.71918100  0.25158600  1
  P  P19  1  0.28081900  0.28417800  0.25158600  1
  P  P20  1  0.71582200  0.99664100  0.25158600  1
  P  P21  1  0.62061633  0.66334167  0.41395867  1
  P  P22  1  0.04272533  0.37938367  0.41395867  1
  P  P23  1  0.33665833  0.95727467  0.41395867  1
  P  P24  1  0.67002567  0.05251433  0.58491933  1
  P  P25  1  0.94748567  0.61751133  0.58491933  1
  P  P26  1  0.38248867  0.32997433  0.58491933  1
  P  P27  1  0.28728300  0.99667500  0.74729200  1
  P  P28  1  0.70939200  0.71271700  0.74729200  1
  P  P29  1  0.00332500  0.29060800  0.74729200  1
  P  P30  1  0.33669233  0.38584767  0.91825267  1
  P  P31  1  0.61415233  0.95084467  0.91825267  1
  P  P32  1  0.04915533  0.66330767  0.91825267  1
  O  O33  1  0.83098367  0.02657233  0.30768433  1
  O  O34  1  0.97342767  0.80441133  0.30768433  1
  O  O35  1  0.97389133  0.16323767  0.08675167  1
  O  O36  1  0.19558867  0.16901633  0.30768433  1
  O  O37  1  0.13801733  0.49795867  0.07601067  1
  O  O38  1  0.86410167  0.35300233  0.13925233  1
  O  O39  1  0.18934633  0.02610867  0.08675167  1
  O  O40  1  0.35994133  0.86198267  0.07601067  1
  O  O41  1  0.50204133  0.64005867  0.07601067  1
  O  O42  1  0.02137533  0.82617967  0.19314267  1
  O  O43  1  0.83466867  0.52832033  0.24611733  1
  O  O44  1  0.17382033  0.19519567  0.19314267  1
  O  O45  1  0.48890067  0.13589833  0.13925233  1
  O  O46  1  0.83676233  0.81065367  0.08675167  1
  O  O47  1  0.64699767  0.51109933  0.13925233  1
  O  O48  1  0.16659267  0.69642133  0.25723533  1
  O  O49  1  0.30357867  0.47017133  0.25723533  1
  O  O50  1  0.47167967  0.30634833  0.24611733  1
  O  O51  1  0.80480433  0.97862467  0.19314267  1
  O  O52  1  0.52982867  0.83340733  0.25723533  1
  O  O53  1  0.46934333  0.16370767  0.02578967  1
  O  O54  1  0.69365167  0.16533133  0.24611733  1
  O  O55  1  0.69436433  0.53065667  0.02578967  1
  O  O56  1  0.83629233  0.30563567  0.02578967  1
  O  O57  1  0.49765033  0.35990567  0.64101767  1
  O  O58  1  0.64009433  0.13774467  0.64101767  1
  O  O59  1  0.64055800  0.49657100  0.42008500  1
  O  O60  1  0.86225533  0.50234967  0.64101767  1
  O  O61  1  0.80468400  0.83129200  0.40934400  1
  O  O62  1  0.53076833  0.68633567  0.47258567  1
  O  O63  1  0.85601300  0.35944200  0.42008500  1
  O  O64  1  0.02660800  0.19531600  0.40934400  1
  O  O65  1  0.16870800  0.97339200  0.40934400  1
  O  O66  1  0.68804200  0.15951300  0.52647600  1
  O  O67  1  0.50133533  0.86165367  0.57945067  1
  O  O68  1  0.84048700  0.52852900  0.52647600  1
  O  O69  1  0.15556733  0.46923167  0.47258567  1
  O  O70  1  0.50342900  0.14398700  0.42008500  1
  O  O71  1  0.31366433  0.84443267  0.47258567  1
  O  O72  1  0.83325933  0.02975467  0.59056867  1
  O  O73  1  0.97024533  0.80350467  0.59056867  1
  O  O74  1  0.13834633  0.63968167  0.57945067  1
  O  O75  1  0.47147100  0.31195800  0.52647600  1
  O  O76  1  0.19649533  0.16674067  0.59056867  1
  O  O77  1  0.13601000  0.49704100  0.35912300  1
  O  O78  1  0.36031833  0.49866467  0.57945067  1
  O  O79  1  0.36103100  0.86399000  0.35912300  1
  O  O80  1  0.50295900  0.63896900  0.35912300  1
  O  O81  1  0.16431700  0.69323900  0.97435100  1
  O  O82  1  0.30676100  0.47107800  0.97435100  1
  O  O83  1  0.30722467  0.82990433  0.75341833  1
  O  O84  1  0.52892200  0.83568300  0.97435100  1
  O  O85  1  0.47135067  0.16462533  0.74267733  1
  O  O86  1  0.19743500  0.01966900  0.80591900  1
  O  O87  1  0.52267967  0.69277533  0.75341833  1
  O  O88  1  0.69327467  0.52864933  0.74267733  1
  O  O89  1  0.83537467  0.30672533  0.74267733  1
  O  O90  1  0.35470867  0.49284633  0.85980933  1
  O  O91  1  0.16800200  0.19498700  0.91278400  1
  O  O92  1  0.50715367  0.86186233  0.85980933  1
  O  O93  1  0.82223400  0.80256500  0.80591900  1
  O  O94  1  0.17009567  0.47732033  0.75341833  1
  O  O95  1  0.98033100  0.17776600  0.80591900  1
  O  O96  1  0.49992600  0.36308800  0.92390200  1
  O  O97  1  0.63691200  0.13683800  0.92390200  1
  O  O98  1  0.80501300  0.97301500  0.91278400  1
  O  O99  1  0.13813767  0.64529133  0.85980933  1
  O  O100  1  0.86316200  0.50007400  0.92390200  1
  O  O101  1  0.80267667  0.83037433  0.69245633  1
  O  O102  1  0.02698500  0.83199800  0.91278400  1
  O  O103  1  0.02769767  0.19732333  0.69245633  1
  O  O104  1  0.16962567  0.97230233  0.69245633  1
