# generated using pymatgen
data_PrAsO4
_symmetry_space_group_name_H-M   'P 1'
_cell_length_a   5.19905400
_cell_length_b   5.19905400
_cell_length_c   11.85305800
_cell_angle_alpha   90.00000000
_cell_angle_beta   90.00000000
_cell_angle_gamma   90.00000000
_symmetry_Int_Tables_number   1
_chemical_formula_structural   PrAsO4
_chemical_formula_sum   'Pr4 As4 O16'
_cell_volume   320.39008380
_cell_formula_units_Z   4
loop_
 _symmetry_equiv_pos_site_id
 _symmetry_equiv_pos_as_xyz
  1  'x, y, z'
loop_
 _atom_site_type_symbol
 _atom_site_label
 _atom_site_symmetry_multiplicity
 _atom_site_fract_x
 _atom_site_fract_y
 _atom_site_fract_z
 _atom_site_occupancy
  Pr  Pr0  1  0.00000000  0.50000000  0.25000000  1
  Pr  Pr1  1  0.00000000  0.00000000  0.00000000  1
  Pr  Pr2  1  0.50000000  0.00000000  0.75000000  1
  Pr  Pr3  1  0.50000000  0.50000000  0.50000000  1
  As  As4  1  0.50000000  0.00000000  0.25000000  1
  As  As5  1  0.50000000  0.50000000  0.00000000  1
  As  As6  1  0.00000000  0.50000000  0.75000000  1
  As  As7  1  0.00000000  0.00000000  0.50000000  1
  O  O8  1  0.74801200  0.13479900  0.17284000  1
  O  O9  1  0.25198800  0.86520100  0.17284000  1
  O  O10  1  0.13479900  0.75198800  0.42284000  1
  O  O11  1  0.86520100  0.24801200  0.42284000  1
  O  O12  1  0.25198800  0.36520100  0.07716000  1
  O  O13  1  0.74801200  0.63479900  0.07716000  1
  O  O14  1  0.36520100  0.24801200  0.32716000  1
  O  O15  1  0.63479900  0.75198800  0.32716000  1
  O  O16  1  0.24801200  0.63479900  0.67284000  1
  O  O17  1  0.75198800  0.36520100  0.67284000  1
  O  O18  1  0.63479900  0.25198800  0.92284000  1
  O  O19  1  0.36520100  0.74801200  0.92284000  1
  O  O20  1  0.75198800  0.86520100  0.57716000  1
  O  O21  1  0.24801200  0.13479900  0.57716000  1
  O  O22  1  0.86520100  0.74801200  0.82716000  1
  O  O23  1  0.13479900  0.25198800  0.82716000  1
