# generated using pymatgen
data_Li3Cr2(CoO4)2
_symmetry_space_group_name_H-M   'P 1'
_cell_length_a   10.14273541
_cell_length_b   5.97541016
_cell_length_c   5.94562415
_cell_angle_alpha   90.00000000
_cell_angle_beta   125.37444358
_cell_angle_gamma   90.00000000
_symmetry_Int_Tables_number   1
_chemical_formula_structural   Li3Cr2(CoO4)2
_chemical_formula_sum   'Li6 Cr4 Co4 O16'
_cell_volume   293.82150097
_cell_formula_units_Z   2
loop_
 _symmetry_equiv_pos_site_id
 _symmetry_equiv_pos_as_xyz
  1  'x, y, z'
loop_
 _atom_site_type_symbol
 _atom_site_label
 _atom_site_symmetry_multiplicity
 _atom_site_fract_x
 _atom_site_fract_y
 _atom_site_fract_z
 _atom_site_occupancy
  Li  Li0  1  0.25000000  0.75000000  0.00000000  1
  Li  Li1  1  0.50000000  0.00000000  0.50000000  1
  Li  Li2  1  0.75000000  0.75000000  0.00000000  1
  Li  Li3  1  0.75000000  0.25000000  0.00000000  1
  Li  Li4  1  0.00000000  0.50000000  0.50000000  1
  Li  Li5  1  0.25000000  0.25000000  0.00000000  1
  Cr  Cr6  1  0.00000000  0.00000000  0.50000000  1
  Cr  Cr7  1  0.50000000  0.50000000  0.00000000  1
  Cr  Cr8  1  0.50000000  0.50000000  0.50000000  1
  Cr  Cr9  1  0.00000000  0.00000000  0.00000000  1
  Co  Co10  1  0.25000000  0.75000000  0.50000000  1
  Co  Co11  1  0.75000000  0.75000000  0.50000000  1
  Co  Co12  1  0.75000000  0.25000000  0.50000000  1
  Co  Co13  1  0.25000000  0.25000000  0.50000000  1
  O  O14  1  0.51076050  0.72492650  0.26906900  1
  O  O15  1  0.24342600  0.00000000  0.25702900  1
  O  O16  1  0.48923950  0.72492650  0.73093100  1
  O  O17  1  0.76947050  0.00000000  0.28112900  1
  O  O18  1  0.73052950  0.50000000  0.71887100  1
  O  O19  1  0.01076050  0.77507350  0.26906900  1
  O  O20  1  0.25657400  0.50000000  0.74297100  1
  O  O21  1  0.98923950  0.77507350  0.73093100  1
  O  O22  1  0.01076050  0.22492650  0.26906900  1
  O  O23  1  0.74342600  0.50000000  0.25702900  1
  O  O24  1  0.98923950  0.22492650  0.73093100  1
  O  O25  1  0.26947050  0.50000000  0.28112900  1
  O  O26  1  0.23052950  0.00000000  0.71887100  1
  O  O27  1  0.51076050  0.27507350  0.26906900  1
  O  O28  1  0.75657400  0.00000000  0.74297100  1
  O  O29  1  0.48923950  0.27507350  0.73093100  1
