# generated using pymatgen
data_CaTiO3
_symmetry_space_group_name_H-M   'P 1'
_cell_length_a   5.34101609
_cell_length_b   5.34101609
_cell_length_c   15.17368218
_cell_angle_alpha   90.00000000
_cell_angle_beta   90.00000000
_cell_angle_gamma   120.00000000
_symmetry_Int_Tables_number   1
_chemical_formula_structural   CaTiO3
_chemical_formula_sum   'Ca6 Ti6 O18'
_cell_volume   374.86024690
_cell_formula_units_Z   6
loop_
 _symmetry_equiv_pos_site_id
 _symmetry_equiv_pos_as_xyz
  1  'x, y, z'
loop_
 _atom_site_type_symbol
 _atom_site_label
 _atom_site_symmetry_multiplicity
 _atom_site_fract_x
 _atom_site_fract_y
 _atom_site_fract_z
 _atom_site_occupancy
  Ca  Ca0  1  0.33333333  0.66666667  0.02998767  1
  Ca  Ca1  1  0.33333333  0.66666667  0.30334567  1
  Ca  Ca2  1  0.00000000  0.00000000  0.36332100  1
  Ca  Ca3  1  0.00000000  0.00000000  0.63667900  1
  Ca  Ca4  1  0.66666667  0.33333333  0.69665433  1
  Ca  Ca5  1  0.66666667  0.33333333  0.97001233  1
  Ti  Ti6  1  0.00000000  0.00000000  0.14920700  1
  Ti  Ti7  1  0.66666667  0.33333333  0.18412633  1
  Ti  Ti8  1  0.66666667  0.33333333  0.48254033  1
  Ti  Ti9  1  0.33333333  0.66666667  0.51745967  1
  Ti  Ti10  1  0.33333333  0.66666667  0.81587367  1
  Ti  Ti11  1  0.00000000  0.00000000  0.85079300  1
  O  O12  1  0.93490100  0.27793200  0.09173100  1
  O  O13  1  0.34303100  0.06509900  0.09173100  1
  O  O14  1  0.94459867  0.67636433  0.24160233  1
  O  O15  1  0.72206800  0.65696900  0.09173100  1
  O  O16  1  0.32363567  0.26823433  0.24160233  1
  O  O17  1  0.73176567  0.05540133  0.24160233  1
  O  O18  1  0.60156767  0.61126533  0.42506433  1
  O  O19  1  0.00969767  0.39843233  0.42506433  1
  O  O20  1  0.61126533  0.00969767  0.57493567  1
  O  O21  1  0.38873467  0.99030233  0.42506433  1
  O  O22  1  0.99030233  0.60156767  0.57493567  1
  O  O23  1  0.39843233  0.38873467  0.57493567  1
  O  O24  1  0.26823433  0.94459867  0.75839767  1
  O  O25  1  0.67636433  0.73176567  0.75839767  1
  O  O26  1  0.27793200  0.34303100  0.90826900  1
  O  O27  1  0.05540133  0.32363567  0.75839767  1
  O  O28  1  0.65696900  0.93490100  0.90826900  1
  O  O29  1  0.06509900  0.72206800  0.90826900  1
