# generated using pymatgen
data_Mn12O7F17
_symmetry_space_group_name_H-M   'P 1'
_cell_length_a   5.27331000
_cell_length_b   5.72847196
_cell_length_c   14.49589159
_cell_angle_alpha   85.37398594
_cell_angle_beta   88.91803499
_cell_angle_gamma   89.14155218
_symmetry_Int_Tables_number   1
_chemical_formula_structural   Mn12O7F17
_chemical_formula_sum   'Mn12 O7 F17'
_cell_volume   436.34790205
_cell_formula_units_Z   1
loop_
 _symmetry_equiv_pos_site_id
 _symmetry_equiv_pos_as_xyz
  1  'x, y, z'
loop_
 _atom_site_type_symbol
 _atom_site_label
 _atom_site_symmetry_multiplicity
 _atom_site_fract_x
 _atom_site_fract_y
 _atom_site_fract_z
 _atom_site_occupancy
  Mn  Mn0  1  0.97008700  0.07357400  0.00178200  1
  Mn  Mn1  1  0.00643400  0.58501200  0.17333900  1
  Mn  Mn2  1  0.98310400  0.10217500  0.33495500  1
  Mn  Mn3  1  0.03907400  0.57775900  0.50335900  1
  Mn  Mn4  1  0.97533600  0.07089900  0.67069100  1
  Mn  Mn5  1  0.02632900  0.56427500  0.84246200  1
  Mn  Mn6  1  0.50537200  0.87666800  0.17399600  1
  Mn  Mn7  1  0.49344900  0.48149300  0.01432400  1
  Mn  Mn8  1  0.49960200  0.40929100  0.66681700  1
  Mn  Mn9  1  0.51450200  0.90019000  0.49883100  1
  Mn  Mn10  1  0.52408900  0.39594900  0.32821800  1
  Mn  Mn11  1  0.48804800  0.92271900  0.83353300  1
  O  O12  1  0.67486700  0.13801800  0.40920300  1
  O  O13  1  0.63915500  0.14221000  0.74152600  1
  O  O14  1  0.70008900  0.67669000  0.09791400  1
  O  O15  1  0.83483500  0.35587200  0.25901300  1
  O  O16  1  0.33729600  0.67509700  0.91270200  1
  O  O17  1  0.36071100  0.63731300  0.57364000  1
  O  O18  1  0.34533000  0.60850000  0.23868200  1
  F  F19  1  0.84544400  0.85941900  0.24949900  1
  F  F20  1  0.62711900  0.15398400  0.08875400  1
  F  F21  1  0.83970600  0.85408800  0.57332900  1
  F  F22  1  0.81444000  0.86612400  0.90262200  1
  F  F23  1  0.81420500  0.35599800  0.58768800  1
  F  F24  1  0.78485300  0.36021500  0.92794600  1
  F  F25  1  0.68688400  0.63734800  0.75373000  1
  F  F26  1  0.70005600  0.64222300  0.42298200  1
  F  F27  1  0.14220900  0.36520100  0.07112900  1
  F  F28  1  0.20530700  0.36859800  0.40333100  1
  F  F29  1  0.16251000  0.36756700  0.73231400  1
  F  F30  1  0.18132900  0.87916100  0.42044300  1
  F  F31  1  0.18001200  0.84987600  0.09024200  1
  F  F32  1  0.18767700  0.84903000  0.75546000  1
  F  F33  1  0.31785700  0.13245900  0.58340400  1
  F  F34  1  0.27764600  0.16424600  0.90773500  1
  F  F35  1  0.31503600  0.10076300  0.25440700  1
