# generated using pymatgen
data_Li4V3FeO8
_symmetry_space_group_name_H-M   'P 1'
_cell_length_a   5.99173169
_cell_length_b   5.99173169
_cell_length_c   14.67404131
_cell_angle_alpha   90.00000000
_cell_angle_beta   90.00000000
_cell_angle_gamma   120.00000000
_symmetry_Int_Tables_number   1
_chemical_formula_structural   Li4V3FeO8
_chemical_formula_sum   'Li12 V9 Fe3 O24'
_cell_volume   456.23130689
_cell_formula_units_Z   3
loop_
 _symmetry_equiv_pos_site_id
 _symmetry_equiv_pos_as_xyz
  1  'x, y, z'
loop_
 _atom_site_type_symbol
 _atom_site_label
 _atom_site_symmetry_multiplicity
 _atom_site_fract_x
 _atom_site_fract_y
 _atom_site_fract_z
 _atom_site_occupancy
  Li  Li0  1  0.16666667  0.33333333  0.83333333  1
  Li  Li1  1  0.83333333  0.16666667  0.16666667  1
  Li  Li2  1  0.33333333  0.16666667  0.16666667  1
  Li  Li3  1  0.33333333  0.66666667  0.16666667  1
  Li  Li4  1  0.83333333  0.66666667  0.16666667  1
  Li  Li5  1  0.50000000  0.50000000  0.50000000  1
  Li  Li6  1  0.00000000  0.50000000  0.50000000  1
  Li  Li7  1  1.00000000  1.00000000  0.50000000  1
  Li  Li8  1  0.50000000  0.00000000  0.50000000  1
  Li  Li9  1  0.16666667  0.83333333  0.83333333  1
  Li  Li10  1  0.66666667  0.83333333  0.83333333  1
  Li  Li11  1  0.66666667  0.33333333  0.83333333  1
  V  V12  1  0.00000000  0.50000000  0.00000000  1
  V  V13  1  0.16666667  0.33333333  0.33333333  1
  V  V14  1  0.50000000  0.50000000  0.00000000  1
  V  V15  1  0.66666667  0.83333333  0.33333333  1
  V  V16  1  0.83333333  0.66666667  0.66666667  1
  V  V17  1  0.16666667  0.83333333  0.33333333  1
  V  V18  1  0.33333333  0.16666667  0.66666667  1
  V  V19  1  0.50000000  0.00000000  0.00000000  1
  V  V20  1  0.83333333  0.16666667  0.66666667  1
  Fe  Fe21  1  0.00000000  0.00000000  0.00000000  1
  Fe  Fe22  1  0.66666667  0.33333333  0.33333333  1
  Fe  Fe23  1  0.33333333  0.66666667  0.66666667  1
  O  O24  1  0.50068000  0.00136000  0.25451900  1
  O  O25  1  0.33333333  0.66666667  0.40637867  1
  O  O26  1  0.50068000  0.49932000  0.25451900  1
  O  O27  1  0.99864000  0.49932000  0.25451900  1
  O  O28  1  0.66802667  0.83401333  0.07881433  1
  O  O29  1  0.16598667  0.83401333  0.07881433  1
  O  O30  1  0.33333333  0.66666667  0.92695467  1
  O  O31  1  0.16598667  0.33197333  0.07881433  1
  O  O32  1  0.16734667  0.33469333  0.58785233  1
  O  O33  1  0.00000000  0.00000000  0.73971200  1
  O  O34  1  0.16734667  0.83265333  0.58785233  1
  O  O35  1  0.66530667  0.83265333  0.58785233  1
  O  O36  1  0.33469333  0.16734667  0.41214767  1
  O  O37  1  0.83265333  0.16734667  0.41214767  1
  O  O38  1  0.00000000  0.00000000  0.26028800  1
  O  O39  1  0.83265333  0.66530667  0.41214767  1
  O  O40  1  0.83401333  0.66802667  0.92118567  1
  O  O41  1  0.66666667  0.33333333  0.07304533  1
  O  O42  1  0.83401333  0.16598667  0.92118567  1
  O  O43  1  0.33197333  0.16598667  0.92118567  1
  O  O44  1  0.00136000  0.50068000  0.74548100  1
  O  O45  1  0.49932000  0.50068000  0.74548100  1
  O  O46  1  0.66666667  0.33333333  0.59362133  1
  O  O47  1  0.49932000  0.99864000  0.74548100  1
