# generated using pymatgen
data_Li3VF6
_symmetry_space_group_name_H-M   'P 1'
_cell_length_a   9.68250800
_cell_length_b   5.42558600
_cell_length_c   10.09357857
_cell_angle_alpha   90.00000000
_cell_angle_beta   96.95816793
_cell_angle_gamma   90.00000000
_symmetry_Int_Tables_number   1
_chemical_formula_structural   Li3VF6
_chemical_formula_sum   'Li12 V4 F24'
_cell_volume   526.34343373
_cell_formula_units_Z   4
loop_
 _symmetry_equiv_pos_site_id
 _symmetry_equiv_pos_as_xyz
  1  'x, y, z'
loop_
 _atom_site_type_symbol
 _atom_site_label
 _atom_site_symmetry_multiplicity
 _atom_site_fract_x
 _atom_site_fract_y
 _atom_site_fract_z
 _atom_site_occupancy
  Li  Li0  1  0.89442650  0.21560350  0.94921300  1
  Li  Li1  1  0.89442650  0.78439650  0.44921300  1
  Li  Li2  1  0.59072750  0.12447550  0.05252700  1
  Li  Li3  1  0.68543150  0.68058350  0.82157400  1
  Li  Li4  1  0.68543150  0.31941650  0.32157400  1
  Li  Li5  1  0.59072750  0.87552450  0.55252700  1
  Li  Li6  1  0.39442650  0.71560350  0.94921300  1
  Li  Li7  1  0.39442650  0.28439650  0.44921300  1
  Li  Li8  1  0.09072750  0.62447550  0.05252700  1
  Li  Li9  1  0.18543150  0.18058350  0.82157400  1
  Li  Li10  1  0.18543150  0.81941650  0.32157400  1
  Li  Li11  1  0.09072750  0.37552450  0.55252700  1
  V  V12  1  0.83959200  0.79788400  0.14911900  1
  V  V13  1  0.83959200  0.20211600  0.64911900  1
  V  V14  1  0.33959200  0.29788400  0.14911900  1
  V  V15  1  0.33959200  0.70211600  0.64911900  1
  F  F16  1  0.91086500  0.48588100  0.06993400  1
  F  F17  1  0.70687550  0.14196750  0.48634900  1
  F  F18  1  0.74567800  0.63999200  0.28923700  1
  F  F19  1  0.74567800  0.36000800  0.78923700  1
  F  F20  1  0.98970000  0.81423100  0.29701000  1
  F  F21  1  0.98253350  0.93898050  0.04602700  1
  F  F22  1  0.98253350  0.06101950  0.54602700  1
  F  F23  1  0.98970000  0.18576900  0.79701000  1
  F  F24  1  0.74663650  0.11420250  0.19356300  1
  F  F25  1  0.74663650  0.88579750  0.69356300  1
  F  F26  1  0.70687550  0.85803250  0.98634900  1
  F  F27  1  0.91086500  0.51411900  0.56993400  1
  F  F28  1  0.41086500  0.98588100  0.06993400  1
  F  F29  1  0.20687550  0.64196750  0.48634900  1
  F  F30  1  0.24567800  0.13999200  0.28923700  1
  F  F31  1  0.24567800  0.86000800  0.78923700  1
  F  F32  1  0.48970000  0.31423100  0.29701000  1
  F  F33  1  0.48253350  0.43898050  0.04602700  1
  F  F34  1  0.48253350  0.56101950  0.54602700  1
  F  F35  1  0.48970000  0.68576900  0.79701000  1
  F  F36  1  0.24663650  0.61420250  0.19356300  1
  F  F37  1  0.24663650  0.38579750  0.69356300  1
  F  F38  1  0.20687550  0.35803250  0.98634900  1
  F  F39  1  0.41086500  0.01411900  0.56993400  1
