# generated using pymatgen
data_Cs3LaO3
_symmetry_space_group_name_H-M   'P 1'
_cell_length_a   8.21472200
_cell_length_b   13.26339000
_cell_length_c   7.83448508
_cell_angle_alpha   90.00000000
_cell_angle_beta   98.98940823
_cell_angle_gamma   90.00000000
_symmetry_Int_Tables_number   1
_chemical_formula_structural   Cs3LaO3
_chemical_formula_sum   'Cs12 La4 O12'
_cell_volume   843.12215937
_cell_formula_units_Z   4
loop_
 _symmetry_equiv_pos_site_id
 _symmetry_equiv_pos_as_xyz
  1  'x, y, z'
loop_
 _atom_site_type_symbol
 _atom_site_label
 _atom_site_symmetry_multiplicity
 _atom_site_fract_x
 _atom_site_fract_y
 _atom_site_fract_z
 _atom_site_occupancy
  Cs  Cs0  1  0.35439800  0.00000000  0.64852900  1
  Cs  Cs1  1  0.50000000  0.71228400  0.50000000  1
  Cs  Cs2  1  0.50000000  0.28771600  0.50000000  1
  Cs  Cs3  1  0.50000000  0.75802500  0.00000000  1
  Cs  Cs4  1  0.50000000  0.24197500  0.00000000  1
  Cs  Cs5  1  0.64560200  0.00000000  0.35147100  1
  Cs  Cs6  1  0.85439800  0.50000000  0.64852900  1
  Cs  Cs7  1  0.00000000  0.21228400  0.50000000  1
  Cs  Cs8  1  0.00000000  0.78771600  0.50000000  1
  Cs  Cs9  1  0.00000000  0.25802500  0.00000000  1
  Cs  Cs10  1  0.00000000  0.74197500  0.00000000  1
  Cs  Cs11  1  0.14560200  0.50000000  0.35147100  1
  La  La12  1  0.18130800  0.00000000  0.15370500  1
  La  La13  1  0.81869200  0.00000000  0.84629500  1
  La  La14  1  0.68130800  0.50000000  0.15370500  1
  La  La15  1  0.31869200  0.50000000  0.84629500  1
  O  O16  1  0.10196800  0.00000000  0.85331300  1
  O  O17  1  0.31365600  0.13948800  0.26878400  1
  O  O18  1  0.31365600  0.86051200  0.26878400  1
  O  O19  1  0.68634400  0.86051200  0.73121600  1
  O  O20  1  0.68634400  0.13948800  0.73121600  1
  O  O21  1  0.89803200  0.00000000  0.14668700  1
  O  O22  1  0.60196800  0.50000000  0.85331300  1
  O  O23  1  0.81365600  0.63948800  0.26878400  1
  O  O24  1  0.81365600  0.36051200  0.26878400  1
  O  O25  1  0.18634400  0.36051200  0.73121600  1
  O  O26  1  0.18634400  0.63948800  0.73121600  1
  O  O27  1  0.39803200  0.50000000  0.14668700  1
