# generated using pymatgen
data_Ba6SrI14
_symmetry_space_group_name_H-M   'P 1'
_cell_length_a   20.59311800
_cell_length_b   24.12683800
_cell_length_c   8.83508900
_cell_angle_alpha   90.00000000
_cell_angle_beta   90.00000000
_cell_angle_gamma   90.00000000
_symmetry_Int_Tables_number   1
_chemical_formula_structural   Ba6SrI14
_chemical_formula_sum   'Ba24 Sr4 I56'
_cell_volume   4389.68589086
_cell_formula_units_Z   4
loop_
 _symmetry_equiv_pos_site_id
 _symmetry_equiv_pos_as_xyz
  1  'x, y, z'
loop_
 _atom_site_type_symbol
 _atom_site_label
 _atom_site_symmetry_multiplicity
 _atom_site_fract_x
 _atom_site_fract_y
 _atom_site_fract_z
 _atom_site_occupancy
  Ba  Ba0  1  0.40159550  0.34988150  0.32848100  1
  Ba  Ba1  1  0.59840450  0.34988150  0.67151900  1
  Ba  Ba2  1  0.40159550  0.15011850  0.17151900  1
  Ba  Ba3  1  0.59840450  0.15011850  0.82848100  1
  Ba  Ba4  1  0.69793400  0.00000000  0.24521500  1
  Ba  Ba5  1  0.19793400  0.00000000  0.25478500  1
  Ba  Ba6  1  0.30206600  0.00000000  0.75478500  1
  Ba  Ba7  1  0.80206600  0.00000000  0.74521500  1
  Ba  Ba8  1  0.59840450  0.84988150  0.82848100  1
  Ba  Ba9  1  0.40159550  0.84988150  0.17151900  1
  Ba  Ba10  1  0.40159550  0.65011850  0.32848100  1
  Ba  Ba11  1  0.59840450  0.65011850  0.67151900  1
  Ba  Ba12  1  0.90159550  0.84988150  0.32848100  1
  Ba  Ba13  1  0.09840450  0.84988150  0.67151900  1
  Ba  Ba14  1  0.90159550  0.65011850  0.17151900  1
  Ba  Ba15  1  0.09840450  0.65011850  0.82848100  1
  Ba  Ba16  1  0.19793400  0.50000000  0.24521500  1
  Ba  Ba17  1  0.69793400  0.50000000  0.25478500  1
  Ba  Ba18  1  0.80206600  0.50000000  0.75478500  1
  Ba  Ba19  1  0.30206600  0.50000000  0.74521500  1
  Ba  Ba20  1  0.09840450  0.34988150  0.82848100  1
  Ba  Ba21  1  0.90159550  0.34988150  0.17151900  1
  Ba  Ba22  1  0.90159550  0.15011850  0.32848100  1
  Ba  Ba23  1  0.09840450  0.15011850  0.67151900  1
  Sr  Sr24  1  0.00000000  0.00000000  0.00000000  1
  Sr  Sr25  1  0.50000000  0.00000000  0.50000000  1
  Sr  Sr26  1  0.50000000  0.50000000  0.00000000  1
  Sr  Sr27  1  0.00000000  0.50000000  0.50000000  1
  I  I28  1  0.56109650  0.40542850  0.23253600  1
  I  I29  1  0.43890350  0.40542850  0.76746400  1
  I  I30  1  0.50000000  0.24765700  0.00000000  1
  I  I31  1  0.70369600  0.25000000  0.75000000  1
  I  I32  1  0.29630400  0.25000000  0.25000000  1
  I  I33  1  0.50000000  0.25234300  0.50000000  1
  I  I34  1  0.25755900  0.10039000  0.00963400  1
  I  I35  1  0.24244100  0.10039000  0.50963400  1
  I  I36  1  0.74244100  0.10039000  0.99036600  1
  I  I37  1  0.75755900  0.10039000  0.49036600  1
  I  I38  1  0.56109650  0.09457150  0.26746400  1
  I  I39  1  0.43890350  0.09457150  0.73253600  1
  I  I40  1  0.12188200  0.00000000  0.77312900  1
  I  I41  1  0.37811800  0.00000000  0.27312900  1
  I  I42  1  0.62188200  0.00000000  0.72687100  1
  I  I43  1  0.87811800  0.00000000  0.22687100  1
  I  I44  1  0.43890350  0.90542850  0.73253600  1
  I  I45  1  0.56109650  0.90542850  0.26746400  1
  I  I46  1  0.74244100  0.89961000  0.99036600  1
  I  I47  1  0.24244100  0.89961000  0.50963400  1
  I  I48  1  0.25755900  0.89961000  0.00963400  1
  I  I49  1  0.75755900  0.89961000  0.49036600  1
  I  I50  1  0.50000000  0.74765700  0.50000000  1
  I  I51  1  0.29630400  0.75000000  0.25000000  1
  I  I52  1  0.70369600  0.75000000  0.75000000  1
  I  I53  1  0.50000000  0.75234300  0.00000000  1
  I  I54  1  0.56109650  0.59457150  0.23253600  1
  I  I55  1  0.43890350  0.59457150  0.76746400  1
  I  I56  1  0.06109650  0.90542850  0.23253600  1
  I  I57  1  0.93890350  0.90542850  0.76746400  1
  I  I58  1  0.00000000  0.74765700  0.00000000  1
  I  I59  1  0.20369600  0.75000000  0.75000000  1
  I  I60  1  0.79630400  0.75000000  0.25000000  1
  I  I61  1  0.00000000  0.75234300  0.50000000  1
  I  I62  1  0.75755900  0.60039000  0.00963400  1
  I  I63  1  0.74244100  0.60039000  0.50963400  1
  I  I64  1  0.24244100  0.60039000  0.99036600  1
  I  I65  1  0.25755900  0.60039000  0.49036600  1
  I  I66  1  0.06109650  0.59457150  0.26746400  1
  I  I67  1  0.93890350  0.59457150  0.73253600  1
  I  I68  1  0.62188200  0.50000000  0.77312900  1
  I  I69  1  0.87811800  0.50000000  0.27312900  1
  I  I70  1  0.12188200  0.50000000  0.72687100  1
  I  I71  1  0.37811800  0.50000000  0.22687100  1
  I  I72  1  0.93890350  0.40542850  0.73253600  1
  I  I73  1  0.06109650  0.40542850  0.26746400  1
  I  I74  1  0.24244100  0.39961000  0.99036600  1
  I  I75  1  0.74244100  0.39961000  0.50963400  1
  I  I76  1  0.75755900  0.39961000  0.00963400  1
  I  I77  1  0.25755900  0.39961000  0.49036600  1
  I  I78  1  0.00000000  0.24765700  0.50000000  1
  I  I79  1  0.79630400  0.25000000  0.25000000  1
  I  I80  1  0.20369600  0.25000000  0.75000000  1
  I  I81  1  0.00000000  0.25234300  0.00000000  1
  I  I82  1  0.06109650  0.09457150  0.23253600  1
  I  I83  1  0.93890350  0.09457150  0.76746400  1
