# generated using pymatgen
data_Dy2WO6
_symmetry_space_group_name_H-M   'P 1'
_cell_length_a   5.28317100
_cell_length_b   9.15051500
_cell_length_c   10.00243300
_cell_angle_alpha   90.00000000
_cell_angle_beta   90.00000000
_cell_angle_gamma   90.00000000
_symmetry_Int_Tables_number   1
_chemical_formula_structural   Dy2WO6
_chemical_formula_sum   'Dy8 W4 O24'
_cell_volume   483.55497514
_cell_formula_units_Z   4
loop_
 _symmetry_equiv_pos_site_id
 _symmetry_equiv_pos_as_xyz
  1  'x, y, z'
loop_
 _atom_site_type_symbol
 _atom_site_label
 _atom_site_symmetry_multiplicity
 _atom_site_fract_x
 _atom_site_fract_y
 _atom_site_fract_z
 _atom_site_occupancy
  Dy  Dy0  1  0.01952700  0.39682100  0.03473700  1
  Dy  Dy1  1  0.03807500  0.28073700  0.62842900  1
  Dy  Dy2  1  0.46192500  0.71926300  0.12842900  1
  Dy  Dy3  1  0.48047300  0.60317900  0.53473700  1
  Dy  Dy4  1  0.51952700  0.10317900  0.96526300  1
  Dy  Dy5  1  0.53807500  0.21926300  0.37157100  1
  Dy  Dy6  1  0.96192500  0.78073700  0.87157100  1
  Dy  Dy7  1  0.98047300  0.89682100  0.46526300  1
  W  W8  1  0.03936200  0.00471400  0.15224100  1
  W  W9  1  0.46063800  0.99528600  0.65224100  1
  W  W10  1  0.53936200  0.49528600  0.84775900  1
  W  W11  1  0.96063800  0.50471400  0.34775900  1
  O  O12  1  0.08564400  0.65695400  0.46969400  1
  O  O13  1  0.17577300  0.54741300  0.20177800  1
  O  O14  1  0.18046000  0.86160300  0.68102900  1
  O  O15  1  0.19305400  0.85945000  0.26446400  1
  O  O16  1  0.23149100  0.38544700  0.43278600  1
  O  O17  1  0.25116100  0.08977000  0.50614900  1
  O  O18  1  0.24883900  0.91023000  0.00614900  1
  O  O19  1  0.26850900  0.61455300  0.93278600  1
  O  O20  1  0.30694600  0.14055000  0.76446400  1
  O  O21  1  0.31954000  0.13839700  0.18102900  1
  O  O22  1  0.32422700  0.45258700  0.70177800  1
  O  O23  1  0.41435600  0.34304600  0.96969400  1
  O  O24  1  0.58564400  0.84304600  0.53030600  1
  O  O25  1  0.67577300  0.95258700  0.79822200  1
  O  O26  1  0.68046000  0.63839700  0.31897100  1
  O  O27  1  0.69305400  0.64055000  0.73553600  1
  O  O28  1  0.73149100  0.11455300  0.56721400  1
  O  O29  1  0.75116100  0.41023000  0.49385100  1
  O  O30  1  0.74883900  0.58977000  0.99385100  1
  O  O31  1  0.76850900  0.88544700  0.06721400  1
  O  O32  1  0.80694600  0.35945000  0.23553600  1
  O  O33  1  0.81954000  0.36160300  0.81897100  1
  O  O34  1  0.82422700  0.04741300  0.29822200  1
  O  O35  1  0.91435600  0.15695400  0.03030600  1
