# generated using pymatgen
data_Hf2N2O
_symmetry_space_group_name_H-M   'P 1'
_cell_length_a   8.70968300
_cell_length_b   8.72005227
_cell_length_c   8.72509882
_cell_angle_alpha   109.36708522
_cell_angle_beta   109.35907726
_cell_angle_gamma   109.39046070
_symmetry_Int_Tables_number   1
_chemical_formula_structural   Hf2N2O
_chemical_formula_sum   'Hf16 N16 O8'
_cell_volume   511.97856783
_cell_formula_units_Z   8
loop_
 _symmetry_equiv_pos_site_id
 _symmetry_equiv_pos_as_xyz
  1  'x, y, z'
loop_
 _atom_site_type_symbol
 _atom_site_label
 _atom_site_symmetry_multiplicity
 _atom_site_fract_x
 _atom_site_fract_y
 _atom_site_fract_z
 _atom_site_occupancy
  Hf  Hf0  1  0.48270900  0.99129600  0.98969200  1
  Hf  Hf1  1  0.72341800  0.97367100  0.75329300  1
  Hf  Hf2  1  0.75489200  0.71638800  0.96695000  1
  Hf  Hf3  1  0.24954500  0.78496100  0.53403100  1
  Hf  Hf4  1  0.96662200  0.25877800  0.21715600  1
  Hf  Hf5  1  0.45857200  0.23409200  0.70098600  1
  Hf  Hf6  1  0.51423000  0.50073400  0.50225500  1
  Hf  Hf7  1  0.99458100  0.00384600  0.49029700  1
  Hf  Hf8  1  0.78662400  0.54239800  0.25098000  1
  Hf  Hf9  1  0.01206000  0.50151000  0.00159400  1
  Hf  Hf10  1  0.20517100  0.46971300  0.74794600  1
  Hf  Hf11  1  0.53819000  0.75103800  0.28234900  1
  Hf  Hf12  1  0.03138800  0.74972900  0.79332400  1
  Hf  Hf13  1  0.25222900  0.28744500  0.03748200  1
  Hf  Hf14  1  0.74908300  0.20908300  0.46653500  1
  Hf  Hf15  1  0.28932300  0.03070800  0.24849500  1
  N  N16  1  0.96937700  0.22575200  0.96020900  1
  N  N17  1  0.51841800  0.04934400  0.77533000  1
  N  N18  1  0.04256600  0.53409100  0.27555000  1
  N  N19  1  0.22490200  0.98767200  0.45701900  1
  N  N20  1  0.77177200  0.00922600  0.54557100  1
  N  N21  1  0.53905900  0.48683000  0.26727200  1
  N  N22  1  0.27343500  0.72649200  0.75905600  1
  N  N23  1  0.76484700  0.77322000  0.22774100  1
  N  N24  1  0.95135600  0.46447200  0.72833200  1
  N  N25  1  0.26085600  0.03675100  0.98817900  1
  N  N26  1  0.01199200  0.23781900  0.46293900  1
  N  N27  1  0.27373600  0.54436900  0.03246400  1
  N  N28  1  0.76845000  0.73877900  0.72634600  1
  N  N29  1  0.48882700  0.95461600  0.22490800  1
  N  N30  1  0.54402100  0.27425400  0.51185800  1
  N  N31  1  0.03091000  0.77211200  0.04811700  1
  O  O32  1  0.44862900  0.72198400  0.48535800  1
  O  O33  1  0.22982300  0.27007500  0.27743100  1
  O  O34  1  0.72125500  0.45574400  0.96685500  1
  O  O35  1  0.98599900  0.76049700  0.53449800  1
  O  O36  1  0.73888000  0.96464100  0.01636500  1
  O  O37  1  0.23925700  0.22879100  0.77318200  1
  O  O38  1  0.46649900  0.50775400  0.74125500  1
  O  O39  1  0.72649600  0.26932300  0.23080400  1
