# generated using pymatgen
data_Fe2OF3
_symmetry_space_group_name_H-M   'P 1'
_cell_length_a   6.73399200
_cell_length_b   6.95578600
_cell_length_c   15.61306500
_cell_angle_alpha   90.00000000
_cell_angle_beta   90.00000000
_cell_angle_gamma   90.00000000
_symmetry_Int_Tables_number   1
_chemical_formula_structural   Fe2OF3
_chemical_formula_sum   'Fe20 O10 F30'
_cell_volume   731.31920084
_cell_formula_units_Z   10
loop_
 _symmetry_equiv_pos_site_id
 _symmetry_equiv_pos_as_xyz
  1  'x, y, z'
loop_
 _atom_site_type_symbol
 _atom_site_label
 _atom_site_symmetry_multiplicity
 _atom_site_fract_x
 _atom_site_fract_y
 _atom_site_fract_z
 _atom_site_occupancy
  Fe  Fe0  1  0.97828000  0.00000000  0.89991200  1
  Fe  Fe1  1  0.97828000  0.00000000  0.10008800  1
  Fe  Fe2  1  0.02246100  0.00000000  0.29981000  1
  Fe  Fe3  1  0.01162500  0.00000000  0.50000000  1
  Fe  Fe4  1  0.02246100  0.00000000  0.70019000  1
  Fe  Fe5  1  0.52474900  0.00000000  0.00000000  1
  Fe  Fe6  1  0.47529400  0.00000000  0.39967900  1
  Fe  Fe7  1  0.50021300  0.00000000  0.19965900  1
  Fe  Fe8  1  0.47529400  0.00000000  0.60032100  1
  Fe  Fe9  1  0.50021300  0.00000000  0.80034100  1
  Fe  Fe10  1  0.47828000  0.50000000  0.89991200  1
  Fe  Fe11  1  0.47828000  0.50000000  0.10008800  1
  Fe  Fe12  1  0.52246100  0.50000000  0.29981000  1
  Fe  Fe13  1  0.51162500  0.50000000  0.50000000  1
  Fe  Fe14  1  0.52246100  0.50000000  0.70019000  1
  Fe  Fe15  1  0.02474900  0.50000000  0.00000000  1
  Fe  Fe16  1  0.97529400  0.50000000  0.39967900  1
  Fe  Fe17  1  0.00021300  0.50000000  0.19965900  1
  Fe  Fe18  1  0.97529400  0.50000000  0.60032100  1
  Fe  Fe19  1  0.00021300  0.50000000  0.80034100  1
  O  O20  1  0.32018800  0.00000000  0.29693100  1
  O  O21  1  0.31080500  0.00000000  0.50000000  1
  O  O22  1  0.32018800  0.00000000  0.70306900  1
  O  O23  1  0.68023800  0.00000000  0.89751800  1
  O  O24  1  0.68023800  0.00000000  0.10248200  1
  O  O25  1  0.82018800  0.50000000  0.29693100  1
  O  O26  1  0.81080500  0.50000000  0.50000000  1
  O  O27  1  0.82018800  0.50000000  0.70306900  1
  O  O28  1  0.18023800  0.50000000  0.89751800  1
  O  O29  1  0.18023800  0.50000000  0.10248200  1
  F  F30  1  0.49502200  0.29036400  0.00000000  1
  F  F31  1  0.50033600  0.29209400  0.19987400  1
  F  F32  1  0.50258600  0.29043300  0.39974900  1
  F  F33  1  0.50258600  0.29043300  0.60025100  1
  F  F34  1  0.50033600  0.29209400  0.80012600  1
  F  F35  1  0.29595900  0.00000000  0.90219000  1
  F  F36  1  0.29595900  0.00000000  0.09781000  1
  F  F37  1  0.70422600  0.00000000  0.30215500  1
  F  F38  1  0.69736600  0.00000000  0.50000000  1
  F  F39  1  0.70422600  0.00000000  0.69784500  1
  F  F40  1  0.49502200  0.70963600  0.00000000  1
  F  F41  1  0.50258600  0.70956700  0.39974900  1
  F  F42  1  0.50033600  0.70790600  0.19987400  1
  F  F43  1  0.50033600  0.70790600  0.80012600  1
  F  F44  1  0.50258600  0.70956700  0.60025100  1
  F  F45  1  0.99502200  0.79036400  0.00000000  1
  F  F46  1  0.00033600  0.79209400  0.19987400  1
  F  F47  1  0.00258600  0.79043300  0.39974900  1
  F  F48  1  0.00258600  0.79043300  0.60025100  1
  F  F49  1  0.00033600  0.79209400  0.80012600  1
  F  F50  1  0.79595900  0.50000000  0.90219000  1
  F  F51  1  0.79595900  0.50000000  0.09781000  1
  F  F52  1  0.20422600  0.50000000  0.30215500  1
  F  F53  1  0.19736600  0.50000000  0.50000000  1
  F  F54  1  0.20422600  0.50000000  0.69784500  1
  F  F55  1  0.99502200  0.20963600  0.00000000  1
  F  F56  1  0.00258600  0.20956700  0.39974900  1
  F  F57  1  0.00033600  0.20790600  0.19987400  1
  F  F58  1  0.00033600  0.20790600  0.80012600  1
  F  F59  1  0.00258600  0.20956700  0.60025100  1
