# generated using pymatgen
data_MnFe(PO4)2
_symmetry_space_group_name_H-M   'P 1'
_cell_length_a   9.88322900
_cell_length_b   5.98917800
_cell_length_c   14.72173746
_cell_angle_alpha   90.00000000
_cell_angle_beta   90.04933784
_cell_angle_gamma   90.00000000
_symmetry_Int_Tables_number   1
_chemical_formula_structural   MnFe(PO4)2
_chemical_formula_sum   'Mn6 Fe6 P12 O48'
_cell_volume   871.41490975
_cell_formula_units_Z   6
loop_
 _symmetry_equiv_pos_site_id
 _symmetry_equiv_pos_as_xyz
  1  'x, y, z'
loop_
 _atom_site_type_symbol
 _atom_site_label
 _atom_site_symmetry_multiplicity
 _atom_site_fract_x
 _atom_site_fract_y
 _atom_site_fract_z
 _atom_site_occupancy
  Mn  Mn0  1  0.28330500  0.50000000  0.97872200  1
  Mn  Mn1  1  0.78192600  0.50000000  0.85354300  1
  Mn  Mn2  1  0.21713200  0.00000000  0.81334400  1
  Mn  Mn3  1  0.28132100  0.50000000  0.64525800  1
  Mn  Mn4  1  0.78030900  0.50000000  0.51986900  1
  Mn  Mn5  1  0.28311000  0.50000000  0.31164400  1
  Fe  Fe6  1  0.72484600  0.00000000  0.67922500  1
  Fe  Fe7  1  0.22289900  0.00000000  0.48604300  1
  Fe  Fe8  1  0.72396700  0.00000000  0.34564600  1
  Fe  Fe9  1  0.77382700  0.50000000  0.17971000  1
  Fe  Fe10  1  0.22391000  0.00000000  0.15340100  1
  Fe  Fe11  1  0.72599400  0.00000000  0.01271600  1
  P  P12  1  0.40225000  0.00000000  0.97189100  1
  P  P13  1  0.90481900  0.00000000  0.86125700  1
  P  P14  1  0.09872500  0.50000000  0.80649100  1
  P  P15  1  0.59916700  0.50000000  0.69342100  1
  P  P16  1  0.40092000  0.00000000  0.63914800  1
  P  P17  1  0.90281100  0.00000000  0.52845600  1
  P  P18  1  0.09849000  0.50000000  0.47307800  1
  P  P19  1  0.59741100  0.50000000  0.36095500  1
  P  P20  1  0.40301600  0.00000000  0.30507300  1
  P  P21  1  0.90238000  0.00000000  0.19579400  1
  P  P22  1  0.10025700  0.50000000  0.13945600  1
  P  P23  1  0.59831800  0.50000000  0.02671500  1
  O  O24  1  0.55436800  0.00000000  0.95014400  1
  O  O25  1  0.32958200  0.79907500  0.92376300  1
  O  O26  1  0.32958200  0.20092500  0.92376300  1
  O  O27  1  0.61892300  0.50000000  0.92304000  1
  O  O28  1  0.11870400  0.50000000  0.91002800  1
  O  O29  1  0.83039900  0.80146700  0.91084400  1
  O  O30  1  0.83039900  0.19853300  0.91084400  1
  O  O31  1  0.05592800  0.00000000  0.88505800  1
  O  O32  1  0.94568700  0.50000000  0.78583300  1
  O  O33  1  0.16947900  0.29920000  0.75829900  1
  O  O34  1  0.16947900  0.70080000  0.75829900  1
  O  O35  1  0.88243900  0.00000000  0.75911400  1
  O  O36  1  0.37944000  0.00000000  0.74225600  1
  O  O37  1  0.67052600  0.29686100  0.74013800  1
  O  O38  1  0.67052600  0.70313900  0.74013800  1
  O  O39  1  0.44609100  0.50000000  0.71357000  1
  O  O40  1  0.55118200  0.00000000  0.61721500  1
  O  O41  1  0.32635500  0.80155500  0.59006700  1
  O  O42  1  0.32635500  0.19844500  0.59006700  1
  O  O43  1  0.61760500  0.50000000  0.58928600  1
  O  O44  1  0.11752500  0.50000000  0.57752000  1
  O  O45  1  0.82725200  0.19843000  0.57791500  1
  O  O46  1  0.82725200  0.80157000  0.57791500  1
  O  O47  1  0.05290400  0.00000000  0.55264300  1
  O  O48  1  0.94543700  0.50000000  0.45312000  1
  O  O49  1  0.16917900  0.29627400  0.42713300  1
  O  O50  1  0.16917900  0.70372600  0.42713300  1
  O  O51  1  0.88033000  0.00000000  0.42635300  1
  O  O52  1  0.38023000  0.00000000  0.40751300  1
  O  O53  1  0.66898100  0.70358400  0.40751400  1
  O  O54  1  0.66898100  0.29641600  0.40751400  1
  O  O55  1  0.44442100  0.50000000  0.38295700  1
  O  O56  1  0.55285900  0.00000000  0.28120300  1
  O  O57  1  0.32767700  0.80145400  0.25616500  1
  O  O58  1  0.32767700  0.19854600  0.25616500  1
  O  O59  1  0.61688600  0.50000000  0.25751400  1
  O  O60  1  0.11954800  0.50000000  0.24384400  1
  O  O61  1  0.82680000  0.20073200  0.24318600  1
  O  O62  1  0.82680000  0.79926800  0.24318600  1
  O  O63  1  0.05274300  0.00000000  0.21876400  1
  O  O64  1  0.94776800  0.50000000  0.11995700  1
  O  O65  1  0.17178300  0.29652000  0.09346700  1
  O  O66  1  0.17178300  0.70348000  0.09346700  1
  O  O67  1  0.88009100  0.00000000  0.09285800  1
  O  O68  1  0.38136500  0.00000000  0.07462000  1
  O  O69  1  0.67176500  0.70030500  0.07477600  1
  O  O70  1  0.67176500  0.29969500  0.07477600  1
  O  O71  1  0.44686000  0.50000000  0.04819800  1
