# generated using pymatgen
data_Li4UO5
_symmetry_space_group_name_H-M   'P 1'
_cell_length_a   6.78650600
_cell_length_b   6.78650600
_cell_length_c   4.46163000
_cell_angle_alpha   90.00000000
_cell_angle_beta   90.00000000
_cell_angle_gamma   90.00000000
_symmetry_Int_Tables_number   1
_chemical_formula_structural   Li4UO5
_chemical_formula_sum   'Li8 U2 O10'
_cell_volume   205.48779241
_cell_formula_units_Z   2
loop_
 _symmetry_equiv_pos_site_id
 _symmetry_equiv_pos_as_xyz
  1  'x, y, z'
loop_
 _atom_site_type_symbol
 _atom_site_label
 _atom_site_symmetry_multiplicity
 _atom_site_fract_x
 _atom_site_fract_y
 _atom_site_fract_z
 _atom_site_occupancy
  Li  Li0  1  0.58371800  0.81354300  0.00000000  1
  Li  Li1  1  0.41628200  0.18645700  0.00000000  1
  Li  Li2  1  0.31354300  0.91628200  0.50000000  1
  Li  Li3  1  0.68645700  0.08371800  0.50000000  1
  Li  Li4  1  0.08371800  0.31354300  0.50000000  1
  Li  Li5  1  0.91628200  0.68645700  0.50000000  1
  Li  Li6  1  0.81354300  0.41628200  0.00000000  1
  Li  Li7  1  0.18645700  0.58371800  0.00000000  1
  U  U8  1  0.00000000  0.00000000  0.00000000  1
  U  U9  1  0.50000000  0.50000000  0.50000000  1
  O  O10  1  0.28655150  0.91307750  0.00000000  1
  O  O11  1  0.41307750  0.21344850  0.50000000  1
  O  O12  1  0.00000000  0.00000000  0.50000000  1
  O  O13  1  0.71344850  0.08692250  0.00000000  1
  O  O14  1  0.58692250  0.78655150  0.50000000  1
  O  O15  1  0.78655150  0.41307750  0.50000000  1
  O  O16  1  0.91307750  0.71344850  0.00000000  1
  O  O17  1  0.50000000  0.50000000  0.00000000  1
  O  O18  1  0.21344850  0.58692250  0.50000000  1
  O  O19  1  0.08692250  0.28655150  0.00000000  1
