# generated using pymatgen
data_Zr2N2O
_symmetry_space_group_name_H-M   'P 1'
_cell_length_a   5.54073400
_cell_length_b   5.78298927
_cell_length_c   16.18152604
_cell_angle_alpha   90.04521235
_cell_angle_beta   89.99997167
_cell_angle_gamma   90.25049568
_symmetry_Int_Tables_number   1
_chemical_formula_structural   Zr2N2O
_chemical_formula_sum   'Zr16 N16 O8'
_cell_volume   518.48342579
_cell_formula_units_Z   8
loop_
 _symmetry_equiv_pos_site_id
 _symmetry_equiv_pos_as_xyz
  1  'x, y, z'
loop_
 _atom_site_type_symbol
 _atom_site_label
 _atom_site_symmetry_multiplicity
 _atom_site_fract_x
 _atom_site_fract_y
 _atom_site_fract_z
 _atom_site_occupancy
  Zr  Zr0  1  0.99639000  0.79589100  0.92442600  1
  Zr  Zr1  1  0.98725400  0.25144800  0.81232600  1
  Zr  Zr2  1  0.99069900  0.70469800  0.42817300  1
  Zr  Zr3  1  0.99437000  0.25034800  0.31478100  1
  Zr  Zr4  1  0.50784700  0.74886600  0.81373200  1
  Zr  Zr5  1  0.50497600  0.74967000  0.31420900  1
  Zr  Zr6  1  0.50314100  0.20576000  0.42158700  1
  Zr  Zr7  1  0.50490000  0.29371200  0.92553700  1
  Zr  Zr8  1  0.50934300  0.79406000  0.57171800  1
  Zr  Zr9  1  0.52526300  0.70393500  0.06959100  1
  Zr  Zr10  1  0.48176200  0.23433700  0.69036000  1
  Zr  Zr11  1  0.49905400  0.26309300  0.18635200  1
  Zr  Zr12  1  0.98690900  0.29245200  0.57385300  1
  Zr  Zr13  1  0.00218900  0.75191200  0.68368600  1
  Zr  Zr14  1  0.00474600  0.75902000  0.18617800  1
  Zr  Zr15  1  0.97521600  0.20198100  0.06972000  1
  N  N16  1  0.15803400  0.89311800  0.79860200  1
  N  N17  1  0.15340800  0.60916900  0.29760700  1
  N  N18  1  0.20620100  0.02538300  0.62082800  1
  N  N19  1  0.34421600  0.39104700  0.79873400  1
  N  N20  1  0.34939300  0.11047600  0.29943600  1
  N  N21  1  0.65073000  0.88154500  0.70012600  1
  N  N22  1  0.64592800  0.62520200  0.19966700  1
  N  N23  1  0.63281500  0.33640300  0.05231600  1
  N  N24  1  0.70434800  0.02285500  0.87876700  1
  N  N25  1  0.70425100  0.47721000  0.37797400  1
  N  N26  1  0.79584800  0.52181400  0.87929100  1
  N  N27  1  0.79633700  0.97975800  0.38051400  1
  N  N28  1  0.85841100  0.66275600  0.55136000  1
  N  N29  1  0.86795300  0.83681900  0.05160200  1
  N  N30  1  0.85420400  0.12453800  0.20062600  1
  N  N31  1  0.84717100  0.37802000  0.69914300  1
  O  O32  1  0.15064300  0.16804000  0.95325900  1
  O  O33  1  0.15252000  0.33443300  0.45314400  1
  O  O34  1  0.19630800  0.47447200  0.12337200  1
  O  O35  1  0.30704400  0.51638200  0.62084500  1
  O  O36  1  0.30472400  0.97396900  0.12473400  1
  O  O37  1  0.35142800  0.82917100  0.45165000  1
  O  O38  1  0.35047900  0.66805400  0.95219700  1
  O  O39  1  0.64354300  0.15818200  0.54797600  1
