# generated using pymatgen
data_Li4Mn5CoO12
_symmetry_space_group_name_H-M   'P 1'
_cell_length_a   5.13622000
_cell_length_b   8.92707000
_cell_length_c   10.26430295
_cell_angle_alpha   90.00000000
_cell_angle_beta   91.57157004
_cell_angle_gamma   90.00000000
_symmetry_Int_Tables_number   1
_chemical_formula_structural   Li4Mn5CoO12
_chemical_formula_sum   'Li8 Mn10 Co2 O24'
_cell_volume   470.45558389
_cell_formula_units_Z   2
loop_
 _symmetry_equiv_pos_site_id
 _symmetry_equiv_pos_as_xyz
  1  'x, y, z'
loop_
 _atom_site_type_symbol
 _atom_site_label
 _atom_site_symmetry_multiplicity
 _atom_site_fract_x
 _atom_site_fract_y
 _atom_site_fract_z
 _atom_site_occupancy
  Li  Li0  1  0.09230950  0.74315850  0.25078900  1
  Li  Li1  1  0.90769050  0.74315850  0.74921100  1
  Li  Li2  1  0.58886350  0.74922250  0.24879500  1
  Li  Li3  1  0.41113650  0.74922250  0.75120500  1
  Li  Li4  1  0.59230950  0.24315850  0.25078900  1
  Li  Li5  1  0.40769050  0.24315850  0.74921100  1
  Li  Li6  1  0.08886350  0.24922250  0.24879500  1
  Li  Li7  1  0.91113650  0.24922250  0.75120500  1
  Mn  Mn8  1  0.00000000  0.84208100  0.50000000  1
  Mn  Mn9  1  0.50000000  0.83658200  0.00000000  1
  Mn  Mn10  1  0.00000000  0.66297300  0.00000000  1
  Mn  Mn11  1  0.50000000  0.67052300  0.50000000  1
  Mn  Mn12  1  0.00000000  0.50180200  0.50000000  1
  Mn  Mn13  1  0.50000000  0.34208100  0.50000000  1
  Mn  Mn14  1  0.00000000  0.33658200  0.00000000  1
  Mn  Mn15  1  0.50000000  0.16297300  0.00000000  1
  Mn  Mn16  1  0.00000000  0.17052300  0.50000000  1
  Mn  Mn17  1  0.50000000  0.00180200  0.50000000  1
  Co  Co18  1  0.00000000  0.99978600  0.00000000  1
  Co  Co19  1  0.50000000  0.49978600  0.00000000  1
  O  O20  1  0.17354450  0.81835350  0.89507500  1
  O  O21  1  0.82645550  0.81835350  0.10492500  1
  O  O22  1  0.18437200  0.68451800  0.60529700  1
  O  O23  1  0.64863550  0.82266150  0.60980900  1
  O  O24  1  0.81562800  0.68451800  0.39470300  1
  O  O25  1  0.32530300  0.50665900  0.40742000  1
  O  O26  1  0.35136450  0.82266150  0.39019100  1
  O  O27  1  0.67525000  0.68376100  0.89519600  1
  O  O28  1  0.14300500  0.50021900  0.90210100  1
  O  O29  1  0.32475000  0.68376100  0.10480400  1
  O  O30  1  0.85699500  0.50021900  0.09789900  1
  O  O31  1  0.67469700  0.50665900  0.59258000  1
  O  O32  1  0.67354450  0.31835350  0.89507500  1
  O  O33  1  0.32645550  0.31835350  0.10492500  1
  O  O34  1  0.68437200  0.18451800  0.60529700  1
  O  O35  1  0.14863550  0.32266150  0.60980900  1
  O  O36  1  0.31562800  0.18451800  0.39470300  1
  O  O37  1  0.82530300  0.00665900  0.40742000  1
  O  O38  1  0.85136450  0.32266150  0.39019100  1
  O  O39  1  0.17525000  0.18376100  0.89519600  1
  O  O40  1  0.64300500  0.00021900  0.90210100  1
  O  O41  1  0.82475000  0.18376100  0.10480400  1
  O  O42  1  0.35699500  0.00021900  0.09789900  1
  O  O43  1  0.17469700  0.00665900  0.59258000  1
