# generated using pymatgen
data_K3BePCO7
_symmetry_space_group_name_H-M   'P 1'
_cell_length_a   5.25007200
_cell_length_b   8.36307700
_cell_length_c   9.26091221
_cell_angle_alpha   90.00000000
_cell_angle_beta   93.87550167
_cell_angle_gamma   90.00000000
_symmetry_Int_Tables_number   1
_chemical_formula_structural   K3BePCO7
_chemical_formula_sum   'K6 Be2 P2 C2 O14'
_cell_volume   405.68679377
_cell_formula_units_Z   2
loop_
 _symmetry_equiv_pos_site_id
 _symmetry_equiv_pos_as_xyz
  1  'x, y, z'
loop_
 _atom_site_type_symbol
 _atom_site_label
 _atom_site_symmetry_multiplicity
 _atom_site_fract_x
 _atom_site_fract_y
 _atom_site_fract_z
 _atom_site_occupancy
  K  K0  1  0.24985900  0.25000000  0.08755600  1
  K  K1  1  0.75080500  0.00442200  0.29161900  1
  K  K2  1  0.75080500  0.49557800  0.29161900  1
  K  K3  1  0.24919500  0.50442200  0.70838100  1
  K  K4  1  0.24919500  0.99557800  0.70838100  1
  K  K5  1  0.75014100  0.75000000  0.91244400  1
  Be  Be6  1  0.21114900  0.75000000  0.37851000  1
  Be  Be7  1  0.78885100  0.25000000  0.62149000  1
  P  P8  1  0.26929800  0.25000000  0.43689900  1
  P  P9  1  0.73070200  0.75000000  0.56310100  1
  C  C10  1  0.30727800  0.75000000  0.10887600  1
  C  C11  1  0.69272200  0.25000000  0.89112400  1
  O  O12  1  0.76943600  0.25000000  0.02675000  1
  O  O13  1  0.13398900  0.75000000  0.20861400  1
  O  O14  1  0.54293600  0.75000000  0.15187800  1
  O  O15  1  0.25551900  0.09684000  0.34545900  1
  O  O16  1  0.25551900  0.40316000  0.34545900  1
  O  O17  1  0.52524800  0.25000000  0.53589500  1
  O  O18  1  0.96005600  0.75000000  0.46096700  1
  O  O19  1  0.03994400  0.25000000  0.53903300  1
  O  O20  1  0.47475200  0.75000000  0.46410500  1
  O  O21  1  0.74448100  0.59684000  0.65454100  1
  O  O22  1  0.74448100  0.90316000  0.65454100  1
  O  O23  1  0.45706400  0.25000000  0.84812200  1
  O  O24  1  0.86601100  0.25000000  0.79138600  1
  O  O25  1  0.23056400  0.75000000  0.97325000  1
