# generated using pymatgen
data_Al2O3
_symmetry_space_group_name_H-M   'P 1'
_cell_length_a   5.60159700
_cell_length_b   5.63349644
_cell_length_c   9.38272577
_cell_angle_alpha   92.27539407
_cell_angle_beta   99.57888530
_cell_angle_gamma   119.75137172
_symmetry_Int_Tables_number   1
_chemical_formula_structural   Al2O3
_chemical_formula_sum   'Al10 O15'
_cell_volume   250.87552198
_cell_formula_units_Z   5
loop_
 _symmetry_equiv_pos_site_id
 _symmetry_equiv_pos_as_xyz
  1  'x, y, z'
loop_
 _atom_site_type_symbol
 _atom_site_label
 _atom_site_symmetry_multiplicity
 _atom_site_fract_x
 _atom_site_fract_y
 _atom_site_fract_z
 _atom_site_occupancy
  Al  Al0  1  0.58633800  0.25504800  0.12166000  1
  Al  Al1  1  0.92123400  0.00071700  0.01535200  1
  Al  Al2  1  0.92652900  0.95170500  0.31321600  1
  Al  Al3  1  0.47043100  0.46669500  0.32928800  1
  Al  Al4  1  0.75408100  0.87022100  0.63103400  1
  Al  Al5  1  0.33565100  0.43283000  0.82392100  1
  Al  Al6  1  0.39493000  0.17347500  0.55784700  1
  Al  Al7  1  0.02641900  0.51764500  0.49537700  1
  Al  Al8  1  0.84595500  0.43857400  0.82630800  1
  Al  Al9  1  0.33121000  0.91624000  0.82053500  1
  O  O10  1  0.78770400  0.10075300  0.16955900  1
  O  O11  1  0.17493900  0.31940400  0.42998600  1
  O  O12  1  0.25569500  0.14486500  0.18180300  1
  O  O13  1  0.71860700  0.60134800  0.20435100  1
  O  O14  1  0.66025400  0.81523300  0.43446900  1
  O  O15  1  0.13848100  0.07345600  0.69069900  1
  O  O16  1  0.59820500  0.52619900  0.69062700  1
  O  O17  1  0.15290000  0.84629700  0.43827000  1
  O  O18  1  0.65598200  0.32871300  0.44334000  1
  O  O19  1  0.04510200  0.79429000  0.92380000  1
  O  O20  1  0.11561900  0.56167200  0.69621100  1
  O  O21  1  0.60091300  0.06667900  0.68935400  1
  O  O22  1  0.54355600  0.27911900  0.92651500  1
  O  O23  1  0.54948100  0.78809600  0.91432100  1
  O  O24  1  0.04978200  0.30072200  0.92215800  1
