# generated using pymatgen
data_DyY3O6
_symmetry_space_group_name_H-M   'P 1'
_cell_length_a   15.13105600
_cell_length_b   10.70040000
_cell_length_c   10.69817634
_cell_angle_alpha   90.00000000
_cell_angle_beta   134.99450882
_cell_angle_gamma   90.00000000
_symmetry_Int_Tables_number   1
_chemical_formula_structural   DyY3O6
_chemical_formula_sum   'Dy8 Y24 O48'
_cell_volume   1224.91407222
_cell_formula_units_Z   8
loop_
 _symmetry_equiv_pos_site_id
 _symmetry_equiv_pos_as_xyz
  1  'x, y, z'
loop_
 _atom_site_type_symbol
 _atom_site_label
 _atom_site_symmetry_multiplicity
 _atom_site_fract_x
 _atom_site_fract_y
 _atom_site_fract_z
 _atom_site_occupancy
  Dy  Dy0  1  0.00000000  0.46732800  0.50000000  1
  Dy  Dy1  1  0.46717900  0.24998200  0.71704100  1
  Dy  Dy2  1  0.53282100  0.24998200  0.28295900  1
  Dy  Dy3  1  0.50000000  0.46700700  0.50000000  1
  Dy  Dy4  1  0.50000000  0.96732800  0.50000000  1
  Dy  Dy5  1  0.96717900  0.74998200  0.71704100  1
  Dy  Dy6  1  0.03282100  0.74998200  0.28295900  1
  Dy  Dy7  1  0.00000000  0.96700700  0.50000000  1
  Y  Y8  1  0.00000000  0.03257900  0.00000000  1
  Y  Y9  1  0.74973850  0.24997450  0.74982500  1
  Y  Y10  1  0.03269750  0.24997550  0.78256800  1
  Y  Y11  1  0.96730250  0.24997550  0.21743200  1
  Y  Y12  1  0.75001250  0.99996750  0.03276200  1
  Y  Y13  1  0.24998050  0.49996750  0.53263600  1
  Y  Y14  1  0.25026150  0.24997450  0.25017500  1
  Y  Y15  1  0.75001550  0.24992250  0.25001500  1
  Y  Y16  1  0.00000000  0.53289300  0.00000000  1
  Y  Y17  1  0.74998450  0.74992250  0.74998500  1
  Y  Y18  1  0.25001950  0.99996750  0.46736400  1
  Y  Y19  1  0.74998750  0.49996750  0.96723800  1
  Y  Y20  1  0.50000000  0.53257900  0.00000000  1
  Y  Y21  1  0.24973850  0.74997450  0.74982500  1
  Y  Y22  1  0.53269750  0.74997550  0.78256800  1
  Y  Y23  1  0.46730250  0.74997550  0.21743200  1
  Y  Y24  1  0.25001250  0.49996750  0.03276200  1
  Y  Y25  1  0.74998050  0.99996750  0.53263600  1
  Y  Y26  1  0.75026150  0.74997450  0.25017500  1
  Y  Y27  1  0.25001550  0.74992250  0.25001500  1
  Y  Y28  1  0.50000000  0.03289300  0.00000000  1
  Y  Y29  1  0.24998450  0.24992250  0.74998500  1
  Y  Y30  1  0.75001950  0.49996750  0.46736400  1
  Y  Y31  1  0.24998750  0.99996750  0.96723800  1
  O  O32  1  0.65127150  0.89110350  0.78078700  1
  O  O33  1  0.84825500  0.10903900  0.97807700  1
  O  O34  1  0.61981800  0.34834300  0.76080200  1
  O  O35  1  0.12023200  0.15168900  0.26112600  1
  O  O36  1  0.62002150  0.15192850  0.97886200  1
  O  O37  1  0.12002750  0.34857950  0.47930200  1
  O  O38  1  0.65174500  0.60903900  0.02192300  1
  O  O39  1  0.84872850  0.39110350  0.21921300  1
  O  O40  1  0.89104950  0.11990650  0.29297500  1
  O  O41  1  0.60916950  0.87983250  0.01089100  1
  O  O42  1  0.89109650  0.87951650  0.79230700  1
  O  O43  1  0.60868100  0.12023100  0.51010300  1
  O  O44  1  0.39131900  0.12023100  0.48989700  1
  O  O45  1  0.60890350  0.37951650  0.20769300  1
  O  O46  1  0.10895050  0.11990650  0.70702500  1
  O  O47  1  0.89083050  0.37983250  0.98910900  1
  O  O48  1  0.65155700  0.10925300  0.28153100  1
  O  O49  1  0.84890050  0.89088650  0.47856600  1
  O  O50  1  0.87997250  0.34857950  0.52069800  1
  O  O51  1  0.87997850  0.65192850  0.02113800  1
  O  O52  1  0.38018200  0.34834300  0.23919800  1
  O  O53  1  0.37976800  0.65168900  0.73887400  1
  O  O54  1  0.84844300  0.60925300  0.71846900  1
  O  O55  1  0.65109950  0.39088650  0.52143400  1
  O  O56  1  0.15127150  0.39110350  0.78078700  1
  O  O57  1  0.34825500  0.60903900  0.97807700  1
  O  O58  1  0.11981800  0.84834300  0.76080200  1
  O  O59  1  0.62023200  0.65168900  0.26112600  1
  O  O60  1  0.12002150  0.65192850  0.97886200  1
  O  O61  1  0.62002750  0.84857950  0.47930200  1
  O  O62  1  0.15174500  0.10903900  0.02192300  1
  O  O63  1  0.34872850  0.89110350  0.21921300  1
  O  O64  1  0.39104950  0.61990650  0.29297500  1
  O  O65  1  0.10916950  0.37983250  0.01089100  1
  O  O66  1  0.39109650  0.37951650  0.79230700  1
  O  O67  1  0.10868100  0.62023100  0.51010300  1
  O  O68  1  0.89131900  0.62023100  0.48989700  1
  O  O69  1  0.10890350  0.87951650  0.20769300  1
  O  O70  1  0.60895050  0.61990650  0.70702500  1
  O  O71  1  0.39083050  0.87983250  0.98910900  1
  O  O72  1  0.15155700  0.60925300  0.28153100  1
  O  O73  1  0.34890050  0.39088650  0.47856600  1
  O  O74  1  0.37997250  0.84857950  0.52069800  1
  O  O75  1  0.37997850  0.15192850  0.02113800  1
  O  O76  1  0.88018200  0.84834300  0.23919800  1
  O  O77  1  0.87976800  0.15168900  0.73887400  1
  O  O78  1  0.34844300  0.10925300  0.71846900  1
  O  O79  1  0.15109950  0.89088650  0.52143400  1
