# generated using pymatgen
data_Hf2N2O
_symmetry_space_group_name_H-M   'P 1'
_cell_length_a   8.71451800
_cell_length_b   8.72346206
_cell_length_c   8.73681297
_cell_angle_alpha   109.39394182
_cell_angle_beta   109.41155109
_cell_angle_gamma   109.46029982
_symmetry_Int_Tables_number   1
_chemical_formula_structural   Hf2N2O
_chemical_formula_sum   'Hf16 N16 O8'
_cell_volume   512.21618901
_cell_formula_units_Z   8
loop_
 _symmetry_equiv_pos_site_id
 _symmetry_equiv_pos_as_xyz
  1  'x, y, z'
loop_
 _atom_site_type_symbol
 _atom_site_label
 _atom_site_symmetry_multiplicity
 _atom_site_fract_x
 _atom_site_fract_y
 _atom_site_fract_z
 _atom_site_occupancy
  Hf  Hf0  1  0.99126700  0.99246800  0.49278500  1
  Hf  Hf1  1  0.25093200  0.71447200  0.46338200  1
  Hf  Hf2  1  0.28656100  0.03509800  0.25047700  1
  Hf  Hf3  1  0.78252800  0.53963500  0.25971900  1
  Hf  Hf4  1  0.73779500  0.78766100  0.03220900  1
  Hf  Hf5  1  0.97032200  0.74439900  0.71132200  1
  Hf  Hf6  1  0.03285300  0.25180600  0.28759800  1
  Hf  Hf7  1  0.54594700  0.25546800  0.78729200  1
  Hf  Hf8  1  0.01239500  0.50228300  0.99570700  1
  Hf  Hf9  1  0.48840200  0.49144900  0.48980000  1
  Hf  Hf10  1  0.49848600  0.00037800  0.00085100  1
  Hf  Hf11  1  0.45868200  0.74066200  0.21282900  1
  Hf  Hf12  1  0.26022500  0.21524800  0.97517400  1
  Hf  Hf13  1  0.71683100  0.96913200  0.75072300  1
  Hf  Hf14  1  0.21057100  0.46277900  0.74532400  1
  Hf  Hf15  1  0.75409200  0.29097900  0.54133300  1
  N  N16  1  0.73063400  0.76233900  0.27081500  1
  N  N17  1  0.05215500  0.77812600  0.51593400  1
  N  N18  1  0.51869500  0.74600300  0.47318800  1
  N  N19  1  0.53589900  0.27365900  0.04177300  1
  N  N20  1  0.22396200  0.77202200  0.23609700  1
  N  N21  1  0.22814000  0.95432800  0.96643000  1
  N  N22  1  0.48501900  0.25919800  0.53566300  1
  N  N23  1  0.72663800  0.48949300  0.45588200  1
  N  N24  1  0.01117300  0.54366400  0.77233900  1
  N  N25  1  0.25827500  0.27150700  0.22732100  1
  N  N26  1  0.77324900  0.04514200  0.03351500  1
  N  N27  1  0.46519800  0.72818500  0.95285900  1
  N  N28  1  0.23820900  0.46257000  0.01038200  1
  N  N29  1  0.77355300  0.22811900  0.76840800  1
  N  N30  1  0.26891000  0.51243800  0.54291100  1
  N  N31  1  0.94966500  0.21950900  0.48587600  1
  O  O32  1  0.96366800  0.00930000  0.73489300  1
  O  O33  1  0.03724100  0.99231100  0.26652500  1
  O  O34  1  0.45429300  0.96613500  0.72803900  1
  O  O35  1  0.26910300  0.23171100  0.72506300  1
  O  O36  1  0.98524600  0.45558200  0.22660600  1
  O  O37  1  0.74761900  0.73095100  0.77927500  1
  O  O38  1  0.76106900  0.53714100  0.98327600  1
  O  O39  1  0.54450200  0.03665400  0.27040600  1
