# generated using pymatgen
data_Cu(PO3)3
_symmetry_space_group_name_H-M   'P 1'
_cell_length_a   8.38285900
_cell_length_b   8.49969000
_cell_length_c   8.58270800
_cell_angle_alpha   90.00000000
_cell_angle_beta   90.00000000
_cell_angle_gamma   90.00000000
_symmetry_Int_Tables_number   1
_chemical_formula_structural   Cu(PO3)3
_chemical_formula_sum   'Cu4 P12 O36'
_cell_volume   611.53255975
_cell_formula_units_Z   4
loop_
 _symmetry_equiv_pos_site_id
 _symmetry_equiv_pos_as_xyz
  1  'x, y, z'
loop_
 _atom_site_type_symbol
 _atom_site_label
 _atom_site_symmetry_multiplicity
 _atom_site_fract_x
 _atom_site_fract_y
 _atom_site_fract_z
 _atom_site_occupancy
  Cu  Cu0  1  0.13135200  0.85488800  0.15038200  1
  Cu  Cu1  1  0.36864800  0.14511200  0.65038200  1
  Cu  Cu2  1  0.63135200  0.64511200  0.84961800  1
  Cu  Cu3  1  0.86864800  0.35488800  0.34961800  1
  P  P4  1  0.03507900  0.32177100  0.68528700  1
  P  P5  1  0.17614700  0.48466100  0.19152500  1
  P  P6  1  0.20882900  0.81208500  0.55494400  1
  P  P7  1  0.29117100  0.18791500  0.05494400  1
  P  P8  1  0.32385300  0.51533900  0.69152500  1
  P  P9  1  0.46492100  0.67822900  0.18528700  1
  P  P10  1  0.53507900  0.17822900  0.31471300  1
  P  P11  1  0.67614700  0.01533900  0.80847500  1
  P  P12  1  0.70882900  0.68791500  0.44505600  1
  P  P13  1  0.79117100  0.31208500  0.94505600  1
  P  P14  1  0.82385300  0.98466100  0.30847500  1
  P  P15  1  0.96492100  0.82177100  0.81471300  1
  O  O16  1  0.04690700  0.77869300  0.65282800  1
  O  O17  1  0.08881800  0.62395600  0.12459200  1
  O  O18  1  0.09783400  0.87658100  0.92127000  1
  O  O19  1  0.10389400  0.39778300  0.32804600  1
  O  O20  1  0.13647900  0.18603200  0.62954100  1
  O  O21  1  0.14563700  0.46575800  0.74185000  1
  O  O22  1  0.15950600  0.85216600  0.39264100  1
  O  O23  1  0.17984300  0.08423100  0.14813000  1
  O  O24  1  0.21318700  0.36191600  0.05329200  1
  O  O25  1  0.28681300  0.63808400  0.55329200  1
  O  O26  1  0.32015700  0.91576900  0.64813000  1
  O  O27  1  0.34049400  0.14783400  0.89264100  1
  O  O28  1  0.35436300  0.53424200  0.24185000  1
  O  O29  1  0.36352100  0.81396800  0.12954100  1
  O  O30  1  0.39610600  0.60221700  0.82804600  1
  O  O31  1  0.40216600  0.12341900  0.42127000  1
  O  O32  1  0.41118200  0.37604400  0.62459200  1
  O  O33  1  0.45309300  0.22130700  0.15282800  1
  O  O34  1  0.54690700  0.72130700  0.34717200  1
  O  O35  1  0.58881800  0.87604400  0.87540800  1
  O  O36  1  0.59783400  0.62341900  0.07873000  1
  O  O37  1  0.60389400  0.10221700  0.67195400  1
  O  O38  1  0.63647900  0.31396800  0.37045900  1
  O  O39  1  0.64563700  0.03424200  0.25815000  1
  O  O40  1  0.65950600  0.64783400  0.60735900  1
  O  O41  1  0.67984300  0.41576900  0.85187000  1
  O  O42  1  0.71318700  0.13808400  0.94670800  1
  O  O43  1  0.78681300  0.86191600  0.44670800  1
  O  O44  1  0.82015700  0.58423100  0.35187000  1
  O  O45  1  0.84049400  0.35216600  0.10735900  1
  O  O46  1  0.85436300  0.96575800  0.75815000  1
  O  O47  1  0.86352100  0.68603200  0.87045900  1
  O  O48  1  0.89610600  0.89778300  0.17195400  1
  O  O49  1  0.90216600  0.37658100  0.57873000  1
  O  O50  1  0.91118200  0.12395600  0.37540800  1
  O  O51  1  0.95309300  0.27869300  0.84717200  1
