# generated using pymatgen
data_LiVOF3
_symmetry_space_group_name_H-M   'P 1'
_cell_length_a   5.17617917
_cell_length_b   7.13664019
_cell_length_c   8.16528147
_cell_angle_alpha   90.00000000
_cell_angle_beta   90.00000000
_cell_angle_gamma   90.00000000
_symmetry_Int_Tables_number   1
_chemical_formula_structural   LiVOF3
_chemical_formula_sum   'Li4 V4 O4 F12'
_cell_volume   301.62981106
_cell_formula_units_Z   4
loop_
 _symmetry_equiv_pos_site_id
 _symmetry_equiv_pos_as_xyz
  1  'x, y, z'
loop_
 _atom_site_type_symbol
 _atom_site_label
 _atom_site_symmetry_multiplicity
 _atom_site_fract_x
 _atom_site_fract_y
 _atom_site_fract_z
 _atom_site_occupancy
  Li  Li0  1  0.45293450  0.17369950  0.86224500  1
  Li  Li1  1  0.45293450  0.32630050  0.36224500  1
  Li  Li2  1  0.54706550  0.67369950  0.86224500  1
  Li  Li3  1  0.54706550  0.82630050  0.36224500  1
  V  V4  1  0.04309050  0.49406750  0.04252400  1
  V  V5  1  0.04309050  0.00593250  0.54252400  1
  V  V6  1  0.95690950  0.99406750  0.04252400  1
  V  V7  1  0.95690950  0.50593250  0.54252400  1
  O  O8  1  0.15421950  0.04182550  0.72943600  1
  O  O9  1  0.15421950  0.45817450  0.22943600  1
  O  O10  1  0.84578050  0.54182550  0.72943600  1
  O  O11  1  0.84578050  0.95817450  0.22943600  1
  F  F12  1  0.31666750  0.06515150  0.39281600  1
  F  F13  1  0.31666750  0.43484850  0.89281600  1
  F  F14  1  0.68333250  0.56515150  0.39281600  1
  F  F15  1  0.68333250  0.93484850  0.89281600  1
  F  F16  1  0.28871750  0.09964950  0.06043300  1
  F  F17  1  0.28871750  0.40035050  0.56043300  1
  F  F18  1  0.71128250  0.59964950  0.06043300  1
  F  F19  1  0.71128250  0.90035050  0.56043300  1
  F  F20  1  0.84918350  0.24381650  0.49341500  1
  F  F21  1  0.84918350  0.25618350  0.99341500  1
  F  F22  1  0.15081650  0.74381650  0.49341500  1
  F  F23  1  0.15081650  0.75618350  0.99341500  1
