# generated using pymatgen
data_Li6Mn5O12
_symmetry_space_group_name_H-M   'P 1'
_cell_length_a   5.20793600
_cell_length_b   8.63968000
_cell_length_c   9.54515962
_cell_angle_alpha   90.00000000
_cell_angle_beta   98.04587997
_cell_angle_gamma   90.00000000
_symmetry_Int_Tables_number   1
_chemical_formula_structural   Li6Mn5O12
_chemical_formula_sum   'Li12 Mn10 O24'
_cell_volume   425.25580361
_cell_formula_units_Z   2
loop_
 _symmetry_equiv_pos_site_id
 _symmetry_equiv_pos_as_xyz
  1  'x, y, z'
loop_
 _atom_site_type_symbol
 _atom_site_label
 _atom_site_symmetry_multiplicity
 _atom_site_fract_x
 _atom_site_fract_y
 _atom_site_fract_z
 _atom_site_occupancy
  Li  Li0  1  0.50000000  0.75562700  0.50000000  1
  Li  Li1  1  0.27090350  0.91083050  0.26440600  1
  Li  Li2  1  0.22479850  0.08654050  0.73471200  1
  Li  Li3  1  0.72909650  0.91083050  0.73559400  1
  Li  Li4  1  0.77520150  0.08654050  0.26528800  1
  Li  Li5  1  0.50000000  0.41872700  0.50000000  1
  Li  Li6  1  0.00000000  0.25562700  0.50000000  1
  Li  Li7  1  0.77090350  0.41083050  0.26440600  1
  Li  Li8  1  0.72479850  0.58654050  0.73471200  1
  Li  Li9  1  0.22909650  0.41083050  0.73559400  1
  Li  Li10  1  0.27520150  0.58654050  0.26528800  1
  Li  Li11  1  0.00000000  0.91872700  0.50000000  1
  Mn  Mn12  1  0.50000000  0.57232000  0.00000000  1
  Mn  Mn13  1  0.50000000  0.91969200  0.00000000  1
  Mn  Mn14  1  0.26769000  0.25256300  0.25364800  1
  Mn  Mn15  1  0.73231000  0.25256300  0.74635200  1
  Mn  Mn16  1  0.50000000  0.07939000  0.50000000  1
  Mn  Mn17  1  0.00000000  0.07232000  0.00000000  1
  Mn  Mn18  1  0.00000000  0.41969200  0.00000000  1
  Mn  Mn19  1  0.76769000  0.75256300  0.25364800  1
  Mn  Mn20  1  0.23231000  0.75256300  0.74635200  1
  Mn  Mn21  1  0.00000000  0.57939000  0.50000000  1
  O  O22  1  0.43077250  0.74233450  0.12715100  1
  O  O23  1  0.56922750  0.74233450  0.87284900  1
  O  O24  1  0.16082700  0.92554600  0.88043400  1
  O  O25  1  0.37197450  0.92464850  0.61814900  1
  O  O26  1  0.16400450  0.09530250  0.37872400  1
  O  O27  1  0.62802550  0.92464850  0.38185100  1
  O  O28  1  0.33907050  0.06586250  0.11200000  1
  O  O29  1  0.83917300  0.92554600  0.11956600  1
  O  O30  1  0.40299000  0.24524500  0.63333800  1
  O  O31  1  0.66092950  0.06586250  0.88800000  1
  O  O32  1  0.83599550  0.09530250  0.62127600  1
  O  O33  1  0.59701000  0.24524500  0.36666200  1
  O  O34  1  0.93077250  0.24233450  0.12715100  1
  O  O35  1  0.06922750  0.24233450  0.87284900  1
  O  O36  1  0.66082700  0.42554600  0.88043400  1
  O  O37  1  0.87197450  0.42464850  0.61814900  1
  O  O38  1  0.66400450  0.59530250  0.37872400  1
  O  O39  1  0.12802550  0.42464850  0.38185100  1
  O  O40  1  0.83907050  0.56586250  0.11200000  1
  O  O41  1  0.33917300  0.42554600  0.11956600  1
  O  O42  1  0.90299000  0.74524500  0.63333800  1
  O  O43  1  0.16092950  0.56586250  0.88800000  1
  O  O44  1  0.33599550  0.59530250  0.62127600  1
  O  O45  1  0.09701000  0.74524500  0.36666200  1
