# generated using pymatgen
data_Tm2TeO6
_symmetry_space_group_name_H-M   'P 1'
_cell_length_a   9.10506424
_cell_length_b   9.10506424
_cell_length_c   5.11277000
_cell_angle_alpha   90.00000000
_cell_angle_beta   90.00000000
_cell_angle_gamma   120.00000000
_symmetry_Int_Tables_number   1
_chemical_formula_structural   Tm2TeO6
_chemical_formula_sum   'Tm6 Te3 O18'
_cell_volume   367.07340142
_cell_formula_units_Z   3
loop_
 _symmetry_equiv_pos_site_id
 _symmetry_equiv_pos_as_xyz
  1  'x, y, z'
loop_
 _atom_site_type_symbol
 _atom_site_label
 _atom_site_symmetry_multiplicity
 _atom_site_fract_x
 _atom_site_fract_y
 _atom_site_fract_z
 _atom_site_occupancy
  Tm  Tm0  1  0.00000000  0.62424350  0.50000000  1
  Tm  Tm1  1  0.00000000  0.28727250  0.00000000  1
  Tm  Tm2  1  0.37575650  0.37575650  0.50000000  1
  Tm  Tm3  1  0.28727250  0.00000000  0.00000000  1
  Tm  Tm4  1  0.71272750  0.71272750  0.00000000  1
  Tm  Tm5  1  0.62424350  0.00000000  0.50000000  1
  Te  Te6  1  0.33333333  0.66666667  0.00551900  1
  Te  Te7  1  0.00000000  0.00000000  0.50000000  1
  Te  Te8  1  0.66666667  0.33333333  0.99448100  1
  O  O9  1  0.08306633  0.88017967  0.28736400  1
  O  O10  1  0.22205433  0.75978767  0.78916300  1
  O  O11  1  0.13111933  0.54243667  0.22219800  1
  O  O12  1  0.41131733  0.86888067  0.22219800  1
  O  O13  1  0.24021233  0.46226667  0.78916300  1
  O  O14  1  0.11982033  0.20288667  0.28736400  1
  O  O15  1  0.20288667  0.11982033  0.71263600  1
  O  O16  1  0.53773333  0.77794567  0.78916300  1
  O  O17  1  0.45756333  0.58868267  0.22219800  1
  O  O18  1  0.79711333  0.91693367  0.28736400  1
  O  O19  1  0.46226667  0.24021233  0.21083700  1
  O  O20  1  0.58868267  0.45756333  0.77780200  1
  O  O21  1  0.54243667  0.13111933  0.77780200  1
  O  O22  1  0.77794567  0.53773333  0.21083700  1
  O  O23  1  0.91693367  0.79711333  0.71263600  1
  O  O24  1  0.75978767  0.22205433  0.21083700  1
  O  O25  1  0.86888067  0.41131733  0.77780200  1
  O  O26  1  0.88017967  0.08306633  0.71263600  1
