# generated using pymatgen
data_Na4Cu2C4SO16
_symmetry_space_group_name_H-M   'P 1'
_cell_length_a   13.56837400
_cell_length_b   13.67649600
_cell_length_c   14.31302200
_cell_angle_alpha   90.00000000
_cell_angle_beta   90.00000000
_cell_angle_gamma   90.00000000
_symmetry_Int_Tables_number   1
_chemical_formula_structural   Na4Cu2C4SO16
_chemical_formula_sum   'Na32 Cu16 C32 S8 O128'
_cell_volume   2656.03618620
_cell_formula_units_Z   8
loop_
 _symmetry_equiv_pos_site_id
 _symmetry_equiv_pos_as_xyz
  1  'x, y, z'
loop_
 _atom_site_type_symbol
 _atom_site_label
 _atom_site_symmetry_multiplicity
 _atom_site_fract_x
 _atom_site_fract_y
 _atom_site_fract_z
 _atom_site_occupancy
  Na  Na0  1  0.71186900  0.00000000  0.00000000  1
  Na  Na1  1  0.50000000  0.21033000  0.00000000  1
  Na  Na2  1  0.75000000  0.46033000  0.25000000  1
  Na  Na3  1  0.96186900  0.25000000  0.25000000  1
  Na  Na4  1  0.28813100  0.00000000  0.00000000  1
  Na  Na5  1  0.50000000  0.78967000  0.00000000  1
  Na  Na6  1  0.75000000  0.03967000  0.25000000  1
  Na  Na7  1  0.53813100  0.25000000  0.25000000  1
  Na  Na8  1  0.71186900  0.50000000  0.50000000  1
  Na  Na9  1  0.50000000  0.71033000  0.50000000  1
  Na  Na10  1  0.75000000  0.96033000  0.75000000  1
  Na  Na11  1  0.96186900  0.75000000  0.75000000  1
  Na  Na12  1  0.28813100  0.50000000  0.50000000  1
  Na  Na13  1  0.50000000  0.28967000  0.50000000  1
  Na  Na14  1  0.75000000  0.53967000  0.75000000  1
  Na  Na15  1  0.53813100  0.75000000  0.75000000  1
  Na  Na16  1  0.21186900  0.00000000  0.50000000  1
  Na  Na17  1  0.00000000  0.21033000  0.50000000  1
  Na  Na18  1  0.25000000  0.46033000  0.75000000  1
  Na  Na19  1  0.46186900  0.25000000  0.75000000  1
  Na  Na20  1  0.78813100  0.00000000  0.50000000  1
  Na  Na21  1  0.00000000  0.78967000  0.50000000  1
  Na  Na22  1  0.25000000  0.03967000  0.75000000  1
  Na  Na23  1  0.03813100  0.25000000  0.75000000  1
  Na  Na24  1  0.21186900  0.50000000  0.00000000  1
  Na  Na25  1  0.00000000  0.71033000  0.00000000  1
  Na  Na26  1  0.25000000  0.96033000  0.25000000  1
  Na  Na27  1  0.46186900  0.75000000  0.25000000  1
  Na  Na28  1  0.78813100  0.50000000  0.00000000  1
  Na  Na29  1  0.00000000  0.28967000  0.00000000  1
  Na  Na30  1  0.25000000  0.53967000  0.25000000  1
  Na  Na31  1  0.03813100  0.75000000  0.25000000  1
  Cu  Cu32  1  0.87500000  0.87500000  0.12500000  1
  Cu  Cu33  1  0.62500000  0.62500000  0.12500000  1
  Cu  Cu34  1  0.87500000  0.62500000  0.37500000  1
  Cu  Cu35  1  0.62500000  0.87500000  0.37500000  1
  Cu  Cu36  1  0.87500000  0.37500000  0.62500000  1
  Cu  Cu37  1  0.62500000  0.12500000  0.62500000  1
  Cu  Cu38  1  0.87500000  0.12500000  0.87500000  1
  Cu  Cu39  1  0.62500000  0.37500000  0.87500000  1
  Cu  Cu40  1  0.37500000  0.87500000  0.62500000  1
  Cu  Cu41  1  0.12500000  0.62500000  0.62500000  1
  Cu  Cu42  1  0.37500000  0.62500000  0.87500000  1
  Cu  Cu43  1  0.12500000  0.87500000  0.87500000  1
  Cu  Cu44  1  0.37500000  0.37500000  0.12500000  1
  Cu  Cu45  1  0.12500000  0.12500000  0.12500000  1
  Cu  Cu46  1  0.37500000  0.12500000  0.37500000  1
  Cu  Cu47  1  0.12500000  0.37500000  0.37500000  1
  C  C48  1  0.15945500  0.15673450  0.33619650  1
  C  C49  1  0.90945500  0.40673450  0.41380350  1
  C  C50  1  0.65945500  0.84326550  0.16380350  1
  C  C51  1  0.34054500  0.15673450  0.16380350  1
  C  C52  1  0.90945500  0.09326550  0.08619650  1
  C  C53  1  0.59054500  0.40673450  0.08619650  1
  C  C54  1  0.84054500  0.84326550  0.33619650  1
  C  C55  1  0.59054500  0.09326550  0.41380350  1
  C  C56  1  0.15945500  0.65673450  0.83619650  1
  C  C57  1  0.90945500  0.90673450  0.91380350  1
  C  C58  1  0.65945500  0.34326550  0.66380350  1
  C  C59  1  0.34054500  0.65673450  0.66380350  1
  C  C60  1  0.90945500  0.59326550  0.58619650  1
  C  C61  1  0.59054500  0.90673450  0.58619650  1
  C  C62  1  0.84054500  0.34326550  0.83619650  1
  C  C63  1  0.59054500  0.59326550  0.91380350  1
  C  C64  1  0.65945500  0.15673450  0.83619650  1
  C  C65  1  0.40945500  0.40673450  0.91380350  1
  C  C66  1  0.15945500  0.84326550  0.66380350  1
  C  C67  1  0.84054500  0.15673450  0.66380350  1
  C  C68  1  0.40945500  0.09326550  0.58619650  1
  C  C69  1  0.09054500  0.40673450  0.58619650  1
  C  C70  1  0.34054500  0.84326550  0.83619650  1
  C  C71  1  0.09054500  0.09326550  0.91380350  1
  C  C72  1  0.65945500  0.65673450  0.33619650  1
  C  C73  1  0.40945500  0.90673450  0.41380350  1
  C  C74  1  0.15945500  0.34326550  0.16380350  1
  C  C75  1  0.84054500  0.65673450  0.16380350  1
  C  C76  1  0.40945500  0.59326550  0.08619650  1
  C  C77  1  0.09054500  0.90673450  0.08619650  1
  C  C78  1  0.34054500  0.34326550  0.33619650  1
  C  C79  1  0.09054500  0.59326550  0.41380350  1
  S  S80  1  0.75000000  0.25000000  0.25000000  1
  S  S81  1  0.50000000  0.00000000  0.00000000  1
  S  S82  1  0.75000000  0.75000000  0.75000000  1
  S  S83  1  0.50000000  0.50000000  0.50000000  1
  S  S84  1  0.25000000  0.25000000  0.75000000  1
  S  S85  1  0.00000000  0.00000000  0.50000000  1
  S  S86  1  0.25000000  0.75000000  0.25000000  1
  S  S87  1  0.00000000  0.50000000  0.00000000  1
  O  O88  1  0.22873900  0.14253300  0.39683100  1
  O  O89  1  0.68573600  0.31355350  0.30866950  1
  O  O90  1  0.15126950  0.09995950  0.26496800  1
  O  O91  1  0.90126950  0.34995950  0.48503200  1
  O  O92  1  0.65126950  0.90004050  0.23503200  1
  O  O93  1  0.34549350  0.97562750  0.39945000  1
  O  O94  1  0.68573600  0.18644650  0.19133050  1
  O  O95  1  0.81426400  0.18644650  0.30866950  1
  O  O96  1  0.15450650  0.97562750  0.10055000  1
  O  O97  1  0.34873050  0.09995950  0.23503200  1
  O  O98  1  0.47873900  0.89253300  0.35316900  1
  O  O99  1  0.81426400  0.31355350  0.19133050  1
  O  O100  1  0.72873900  0.85746700  0.10316900  1
  O  O101  1  0.27126100  0.14253300  0.10316900  1
  O  O102  1  0.09549350  0.22562750  0.35055000  1
  O  O103  1  0.84549350  0.02437250  0.10055000  1
  O  O104  1  0.40450650  0.22562750  0.14945000  1
  O  O105  1  0.65450650  0.02437250  0.39945000  1
  O  O106  1  0.97873900  0.10746700  0.14683100  1
  O  O107  1  0.02126100  0.89253300  0.14683100  1
  O  O108  1  0.43573600  0.93644650  0.05866950  1
  O  O109  1  0.77126100  0.85746700  0.39683100  1
  O  O110  1  0.40126950  0.65004050  0.01496800  1
  O  O111  1  0.59549350  0.77437250  0.14945000  1
  O  O112  1  0.93573600  0.06355350  0.44133050  1
  O  O113  1  0.56426400  0.06355350  0.05866950  1
  O  O114  1  0.90450650  0.77437250  0.35055000  1
  O  O115  1  0.59873050  0.34995950  0.01496800  1
  O  O116  1  0.84873050  0.90004050  0.26496800  1
  O  O117  1  0.09873050  0.65004050  0.48503200  1
  O  O118  1  0.06426400  0.93644650  0.44133050  1
  O  O119  1  0.52126100  0.10746700  0.35316900  1
  O  O120  1  0.22873900  0.64253300  0.89683100  1
  O  O121  1  0.68573600  0.81355350  0.80866950  1
  O  O122  1  0.15126950  0.59995950  0.76496800  1
  O  O123  1  0.90126950  0.84995950  0.98503200  1
  O  O124  1  0.65126950  0.40004050  0.73503200  1
  O  O125  1  0.34549350  0.47562750  0.89945000  1
  O  O126  1  0.68573600  0.68644650  0.69133050  1
  O  O127  1  0.81426400  0.68644650  0.80866950  1
  O  O128  1  0.15450650  0.47562750  0.60055000  1
  O  O129  1  0.34873050  0.59995950  0.73503200  1
  O  O130  1  0.47873900  0.39253300  0.85316900  1
  O  O131  1  0.81426400  0.81355350  0.69133050  1
  O  O132  1  0.72873900  0.35746700  0.60316900  1
  O  O133  1  0.27126100  0.64253300  0.60316900  1
  O  O134  1  0.09549350  0.72562750  0.85055000  1
  O  O135  1  0.84549350  0.52437250  0.60055000  1
  O  O136  1  0.40450650  0.72562750  0.64945000  1
  O  O137  1  0.65450650  0.52437250  0.89945000  1
  O  O138  1  0.97873900  0.60746700  0.64683100  1
  O  O139  1  0.02126100  0.39253300  0.64683100  1
  O  O140  1  0.43573600  0.43644650  0.55866950  1
  O  O141  1  0.77126100  0.35746700  0.89683100  1
  O  O142  1  0.40126950  0.15004050  0.51496800  1
  O  O143  1  0.59549350  0.27437250  0.64945000  1
  O  O144  1  0.93573600  0.56355350  0.94133050  1
  O  O145  1  0.56426400  0.56355350  0.55866950  1
  O  O146  1  0.90450650  0.27437250  0.85055000  1
  O  O147  1  0.59873050  0.84995950  0.51496800  1
  O  O148  1  0.84873050  0.40004050  0.76496800  1
  O  O149  1  0.09873050  0.15004050  0.98503200  1
  O  O150  1  0.06426400  0.43644650  0.94133050  1
  O  O151  1  0.52126100  0.60746700  0.85316900  1
  O  O152  1  0.72873900  0.14253300  0.89683100  1
  O  O153  1  0.18573600  0.31355350  0.80866950  1
  O  O154  1  0.65126950  0.09995950  0.76496800  1
  O  O155  1  0.40126950  0.34995950  0.98503200  1
  O  O156  1  0.15126950  0.90004050  0.73503200  1
  O  O157  1  0.84549350  0.97562750  0.89945000  1
  O  O158  1  0.18573600  0.18644650  0.69133050  1
  O  O159  1  0.31426400  0.18644650  0.80866950  1
  O  O160  1  0.65450650  0.97562750  0.60055000  1
  O  O161  1  0.84873050  0.09995950  0.73503200  1
  O  O162  1  0.97873900  0.89253300  0.85316900  1
  O  O163  1  0.31426400  0.31355350  0.69133050  1
  O  O164  1  0.22873900  0.85746700  0.60316900  1
  O  O165  1  0.77126100  0.14253300  0.60316900  1
  O  O166  1  0.59549350  0.22562750  0.85055000  1
  O  O167  1  0.34549350  0.02437250  0.60055000  1
  O  O168  1  0.90450650  0.22562750  0.64945000  1
  O  O169  1  0.15450650  0.02437250  0.89945000  1
  O  O170  1  0.47873900  0.10746700  0.64683100  1
  O  O171  1  0.52126100  0.89253300  0.64683100  1
  O  O172  1  0.93573600  0.93644650  0.55866950  1
  O  O173  1  0.27126100  0.85746700  0.89683100  1
  O  O174  1  0.90126950  0.65004050  0.51496800  1
  O  O175  1  0.09549350  0.77437250  0.64945000  1
  O  O176  1  0.43573600  0.06355350  0.94133050  1
  O  O177  1  0.06426400  0.06355350  0.55866950  1
  O  O178  1  0.40450650  0.77437250  0.85055000  1
  O  O179  1  0.09873050  0.34995950  0.51496800  1
  O  O180  1  0.34873050  0.90004050  0.76496800  1
  O  O181  1  0.59873050  0.65004050  0.98503200  1
  O  O182  1  0.56426400  0.93644650  0.94133050  1
  O  O183  1  0.02126100  0.10746700  0.85316900  1
  O  O184  1  0.72873900  0.64253300  0.39683100  1
  O  O185  1  0.18573600  0.81355350  0.30866950  1
  O  O186  1  0.65126950  0.59995950  0.26496800  1
  O  O187  1  0.40126950  0.84995950  0.48503200  1
  O  O188  1  0.15126950  0.40004050  0.23503200  1
  O  O189  1  0.84549350  0.47562750  0.39945000  1
  O  O190  1  0.18573600  0.68644650  0.19133050  1
  O  O191  1  0.31426400  0.68644650  0.30866950  1
  O  O192  1  0.65450650  0.47562750  0.10055000  1
  O  O193  1  0.84873050  0.59995950  0.23503200  1
  O  O194  1  0.97873900  0.39253300  0.35316900  1
  O  O195  1  0.31426400  0.81355350  0.19133050  1
  O  O196  1  0.22873900  0.35746700  0.10316900  1
  O  O197  1  0.77126100  0.64253300  0.10316900  1
  O  O198  1  0.59549350  0.72562750  0.35055000  1
  O  O199  1  0.34549350  0.52437250  0.10055000  1
  O  O200  1  0.90450650  0.72562750  0.14945000  1
  O  O201  1  0.15450650  0.52437250  0.39945000  1
  O  O202  1  0.47873900  0.60746700  0.14683100  1
  O  O203  1  0.52126100  0.39253300  0.14683100  1
  O  O204  1  0.93573600  0.43644650  0.05866950  1
  O  O205  1  0.27126100  0.35746700  0.39683100  1
  O  O206  1  0.90126950  0.15004050  0.01496800  1
  O  O207  1  0.09549350  0.27437250  0.14945000  1
  O  O208  1  0.43573600  0.56355350  0.44133050  1
  O  O209  1  0.06426400  0.56355350  0.05866950  1
  O  O210  1  0.40450650  0.27437250  0.35055000  1
  O  O211  1  0.09873050  0.84995950  0.01496800  1
  O  O212  1  0.34873050  0.40004050  0.26496800  1
  O  O213  1  0.59873050  0.15004050  0.48503200  1
  O  O214  1  0.56426400  0.43644650  0.44133050  1
  O  O215  1  0.02126100  0.60746700  0.35316900  1
