# generated using pymatgen
data_K4P4(H2O5)3
_symmetry_space_group_name_H-M   'P 1'
_cell_length_a   18.22623600
_cell_length_b   7.01965400
_cell_length_c   14.40702157
_cell_angle_alpha   90.00000000
_cell_angle_beta   120.81992194
_cell_angle_gamma   90.00000000
_symmetry_Int_Tables_number   1
_chemical_formula_structural   K4P4(H2O5)3
_chemical_formula_sum   'K16 P16 H24 O60'
_cell_volume   1582.95925675
_cell_formula_units_Z   4
loop_
 _symmetry_equiv_pos_site_id
 _symmetry_equiv_pos_as_xyz
  1  'x, y, z'
loop_
 _atom_site_type_symbol
 _atom_site_label
 _atom_site_symmetry_multiplicity
 _atom_site_fract_x
 _atom_site_fract_y
 _atom_site_fract_z
 _atom_site_occupancy
  K  K0  1  0.22572100  0.58934900  0.87386300  1
  K  K1  1  0.27427900  0.08934900  0.62613700  1
  K  K2  1  0.77427900  0.41065100  0.12613700  1
  K  K3  1  0.72572100  0.91065100  0.37386300  1
  K  K4  1  0.98446000  0.22069000  0.10380400  1
  K  K5  1  0.01554000  0.22069000  0.39619600  1
  K  K6  1  0.01554000  0.77931000  0.89619600  1
  K  K7  1  0.98446000  0.77931000  0.60380400  1
  K  K8  1  0.72572100  0.08934900  0.87386300  1
  K  K9  1  0.77427900  0.58934900  0.62613700  1
  K  K10  1  0.27427900  0.91065100  0.12613700  1
  K  K11  1  0.22572100  0.41065100  0.37386300  1
  K  K12  1  0.48446000  0.72069000  0.10380400  1
  K  K13  1  0.51554000  0.72069000  0.39619600  1
  K  K14  1  0.51554000  0.27931000  0.89619600  1
  K  K15  1  0.48446000  0.27931000  0.60380400  1
  P  P16  1  0.85752200  0.09258200  0.71379800  1
  P  P17  1  0.14247800  0.09258200  0.78620200  1
  P  P18  1  0.14247800  0.90741800  0.28620200  1
  P  P19  1  0.85752200  0.90741800  0.21379800  1
  P  P20  1  0.16793400  0.55099100  0.59233900  1
  P  P21  1  0.33206600  0.05099100  0.90766100  1
  P  P22  1  0.83206600  0.44900900  0.40766100  1
  P  P23  1  0.66793400  0.94900900  0.09233900  1
  P  P24  1  0.35752200  0.59258200  0.71379800  1
  P  P25  1  0.64247800  0.59258200  0.78620200  1
  P  P26  1  0.64247800  0.40741800  0.28620200  1
  P  P27  1  0.35752200  0.40741800  0.21379800  1
  P  P28  1  0.66793400  0.05099100  0.59233900  1
  P  P29  1  0.83206600  0.55099100  0.90766100  1
  P  P30  1  0.33206600  0.94900900  0.40766100  1
  P  P31  1  0.16793400  0.44900900  0.09233900  1
  H  H32  1  0.40657100  0.79903600  0.84838400  1
  H  H33  1  0.09342900  0.29903600  0.65161600  1
  H  H34  1  0.59342900  0.20096400  0.15161600  1
  H  H35  1  0.90657100  0.70096400  0.34838400  1
  H  H36  1  0.14431450  0.75744950  0.46420700  1
  H  H37  1  0.85568550  0.75744950  0.03579300  1
  H  H38  1  0.85568550  0.24255050  0.53579300  1
  H  H39  1  0.14431450  0.24255050  0.96420700  1
  H  H40  1  0.95081450  0.41329850  0.71317400  1
  H  H41  1  0.04918550  0.41329850  0.78682600  1
  H  H42  1  0.04918550  0.58670150  0.28682600  1
  H  H43  1  0.95081450  0.58670150  0.21317400  1
  H  H44  1  0.90657100  0.29903600  0.84838400  1
  H  H45  1  0.59342900  0.79903600  0.65161600  1
  H  H46  1  0.09342900  0.70096400  0.15161600  1
  H  H47  1  0.40657100  0.20096400  0.34838400  1
  H  H48  1  0.64431450  0.25744950  0.46420700  1
  H  H49  1  0.35568550  0.25744950  0.03579300  1
  H  H50  1  0.35568550  0.74255050  0.53579300  1
  H  H51  1  0.64431450  0.74255050  0.96420700  1
  H  H52  1  0.45081450  0.91329850  0.71317400  1
  H  H53  1  0.54918550  0.91329850  0.78682600  1
  H  H54  1  0.54918550  0.08670150  0.28682600  1
  H  H55  1  0.45081450  0.08670150  0.21317400  1
  O  O56  1  0.41459600  0.65628000  0.83678500  1
  O  O57  1  0.08540400  0.15628000  0.66321500  1
  O  O58  1  0.58540400  0.34372000  0.16321500  1
  O  O59  1  0.91459600  0.84372000  0.33678500  1
  O  O60  1  0.85513850  0.25217450  0.64072800  1
  O  O61  1  0.14486150  0.25217450  0.85927200  1
  O  O62  1  0.14486150  0.74782550  0.35927200  1
  O  O63  1  0.85513850  0.74782550  0.14072800  1
  O  O64  1  0.88428100  0.89871600  0.69863200  1
  O  O65  1  0.11571900  0.89871600  0.80136800  1
  O  O66  1  0.11571900  0.10128400  0.30136800  1
  O  O67  1  0.88428100  0.10128400  0.19863200  1
  O  O68  1  0.26259100  0.58229400  0.70182100  1
  O  O69  1  0.23740900  0.08229400  0.79817900  1
  O  O70  1  0.73740900  0.41770600  0.29817900  1
  O  O71  1  0.76259100  0.91770600  0.20182100  1
  O  O72  1  0.11007200  0.51004100  0.63695900  1
  O  O73  1  0.38992800  0.01004100  0.86304100  1
  O  O74  1  0.88992800  0.48995900  0.36304100  1
  O  O75  1  0.61007200  0.98995900  0.13695900  1
  O  O76  1  0.17358500  0.40122600  0.52151100  1
  O  O77  1  0.32641500  0.90122600  0.97848900  1
  O  O78  1  0.82641500  0.59877400  0.47848900  1
  O  O79  1  0.67358500  0.09877400  0.02151100  1
  O  O80  1  0.14448050  0.75496150  0.53625200  1
  O  O81  1  0.35551950  0.25496150  0.96374800  1
  O  O82  1  0.85551950  0.24503850  0.46374800  1
  O  O83  1  0.64448050  0.74503850  0.03625200  1
  O  O84  1  0.00000000  0.50049200  0.75000000  1
  O  O85  1  0.00000000  0.49950800  0.25000000  1
  O  O86  1  0.91459600  0.15628000  0.83678500  1
  O  O87  1  0.58540400  0.65628000  0.66321500  1
  O  O88  1  0.08540400  0.84372000  0.16321500  1
  O  O89  1  0.41459600  0.34372000  0.33678500  1
  O  O90  1  0.35513850  0.75217450  0.64072800  1
  O  O91  1  0.64486150  0.75217450  0.85927200  1
  O  O92  1  0.64486150  0.24782550  0.35927200  1
  O  O93  1  0.35513850  0.24782550  0.14072800  1
  O  O94  1  0.38428100  0.39871600  0.69863200  1
  O  O95  1  0.61571900  0.39871600  0.80136800  1
  O  O96  1  0.61571900  0.60128400  0.30136800  1
  O  O97  1  0.38428100  0.60128400  0.19863200  1
  O  O98  1  0.76259100  0.08229400  0.70182100  1
  O  O99  1  0.73740900  0.58229400  0.79817900  1
  O  O100  1  0.23740900  0.91770600  0.29817900  1
  O  O101  1  0.26259100  0.41770600  0.20182100  1
  O  O102  1  0.61007200  0.01004100  0.63695900  1
  O  O103  1  0.88992800  0.51004100  0.86304100  1
  O  O104  1  0.38992800  0.98995900  0.36304100  1
  O  O105  1  0.11007200  0.48995900  0.13695900  1
  O  O106  1  0.67358500  0.90122600  0.52151100  1
  O  O107  1  0.82641500  0.40122600  0.97848900  1
  O  O108  1  0.32641500  0.09877400  0.47848900  1
  O  O109  1  0.17358500  0.59877400  0.02151100  1
  O  O110  1  0.64448050  0.25496150  0.53625200  1
  O  O111  1  0.85551950  0.75496150  0.96374800  1
  O  O112  1  0.35551950  0.74503850  0.46374800  1
  O  O113  1  0.14448050  0.24503850  0.03625200  1
  O  O114  1  0.50000000  0.00049200  0.75000000  1
  O  O115  1  0.50000000  0.99950800  0.25000000  1
