# generated using pymatgen
data_SmY15O24
_symmetry_space_group_name_H-M   'P 1'
_cell_length_a   15.15720800
_cell_length_b   10.73077000
_cell_length_c   10.72652982
_cell_angle_alpha   90.00000000
_cell_angle_beta   134.93437062
_cell_angle_gamma   90.00000000
_symmetry_Int_Tables_number   1
_chemical_formula_structural   SmY15O24
_chemical_formula_sum   'Sm2 Y30 O48'
_cell_volume   1235.06904290
_cell_formula_units_Z   2
loop_
 _symmetry_equiv_pos_site_id
 _symmetry_equiv_pos_as_xyz
  1  'x, y, z'
loop_
 _atom_site_type_symbol
 _atom_site_label
 _atom_site_symmetry_multiplicity
 _atom_site_fract_x
 _atom_site_fract_y
 _atom_site_fract_z
 _atom_site_occupancy
  Sm  Sm0  1  0.00000000  0.96778600  0.50000000  1
  Sm  Sm1  1  0.50000000  0.46778600  0.50000000  1
  Y  Y2  1  0.00000000  0.03291900  0.00000000  1
  Y  Y3  1  0.24935500  0.24939200  0.24931200  1
  Y  Y4  1  0.96683150  0.25077950  0.21618500  1
  Y  Y5  1  0.53316850  0.75077950  0.78381500  1
  Y  Y6  1  0.25074400  0.00039000  0.96844800  1
  Y  Y7  1  0.25040100  0.99990800  0.46683900  1
  Y  Y8  1  0.25064500  0.74939200  0.75068800  1
  Y  Y9  1  0.75070650  0.75076050  0.75122400  1
  Y  Y10  1  0.24929350  0.75076050  0.24877600  1
  Y  Y11  1  0.50000000  0.96692300  0.50000000  1
  Y  Y12  1  0.00000000  0.53313100  0.00000000  1
  Y  Y13  1  0.24959900  0.49990800  0.53316100  1
  Y  Y14  1  0.24925600  0.50039000  0.03155200  1
  Y  Y15  1  0.46673650  0.24937950  0.71726700  1
  Y  Y16  1  0.03326350  0.74937950  0.28273300  1
  Y  Y17  1  0.50000000  0.53291900  0.00000000  1
  Y  Y18  1  0.74935500  0.74939200  0.24931200  1
  Y  Y19  1  0.46683150  0.75077950  0.21618500  1
  Y  Y20  1  0.03316850  0.25077950  0.78381500  1
  Y  Y21  1  0.75074400  0.50039000  0.96844800  1
  Y  Y22  1  0.75040100  0.49990800  0.46683900  1
  Y  Y23  1  0.75064500  0.24939200  0.75068800  1
  Y  Y24  1  0.25070650  0.25076050  0.75122400  1
  Y  Y25  1  0.74929350  0.25076050  0.24877600  1
  Y  Y26  1  0.00000000  0.46692300  0.50000000  1
  Y  Y27  1  0.50000000  0.03313100  0.00000000  1
  Y  Y28  1  0.74959900  0.99990800  0.53316100  1
  Y  Y29  1  0.74925600  0.00039000  0.03155200  1
  Y  Y30  1  0.96673650  0.74937950  0.71726700  1
  Y  Y31  1  0.53326350  0.24937950  0.28273300  1
  O  O32  1  0.84839000  0.39162900  0.21854900  1
  O  O33  1  0.65163050  0.60911850  0.02200700  1
  O  O34  1  0.87814500  0.84687600  0.23497800  1
  O  O35  1  0.38024250  0.65154450  0.73928700  1
  O  O36  1  0.38012650  0.84794450  0.52058000  1
  O  O37  1  0.88074800  0.65158900  0.02109400  1
  O  O38  1  0.65161000  0.89162900  0.78145100  1
  O  O39  1  0.84836950  0.10911850  0.97799300  1
  O  O40  1  0.10905250  0.88017150  0.20706700  1
  O  O41  1  0.61155250  0.62252050  0.71180000  1
  O  O42  1  0.39084750  0.88010250  0.98870400  1
  O  O43  1  0.89087600  0.61995300  0.48882500  1
  O  O44  1  0.39094750  0.38017150  0.79293300  1
  O  O45  1  0.10912400  0.61995300  0.51117500  1
  O  O46  1  0.38844750  0.62252050  0.28820000  1
  O  O47  1  0.10915250  0.38010250  0.01129600  1
  O  O48  1  0.34774250  0.10909750  0.71776600  1
  O  O49  1  0.15413350  0.88846950  0.52249700  1
  O  O50  1  0.61987350  0.84794450  0.47942000  1
  O  O51  1  0.61925200  0.15158900  0.97890600  1
  O  O52  1  0.12185500  0.84687600  0.76502200  1
  O  O53  1  0.11975750  0.15154450  0.26071300  1
  O  O54  1  0.15225750  0.60909750  0.28223400  1
  O  O55  1  0.34586650  0.38846950  0.47750300  1
  O  O56  1  0.34839000  0.89162900  0.21854900  1
  O  O57  1  0.15163050  0.10911850  0.02200700  1
  O  O58  1  0.37814500  0.34687600  0.23497800  1
  O  O59  1  0.88024250  0.15154450  0.73928700  1
  O  O60  1  0.88012650  0.34794450  0.52058000  1
  O  O61  1  0.38074800  0.15158900  0.02109400  1
  O  O62  1  0.15161000  0.39162900  0.78145100  1
  O  O63  1  0.34836950  0.60911850  0.97799300  1
  O  O64  1  0.60905250  0.38017150  0.20706700  1
  O  O65  1  0.11155250  0.12252050  0.71180000  1
  O  O66  1  0.89084750  0.38010250  0.98870400  1
  O  O67  1  0.39087600  0.11995300  0.48882500  1
  O  O68  1  0.89094750  0.88017150  0.79293300  1
  O  O69  1  0.60912400  0.11995300  0.51117500  1
  O  O70  1  0.88844750  0.12252050  0.28820000  1
  O  O71  1  0.60915250  0.88010250  0.01129600  1
  O  O72  1  0.84774250  0.60909750  0.71776600  1
  O  O73  1  0.65413350  0.38846950  0.52249700  1
  O  O74  1  0.11987350  0.34794450  0.47942000  1
  O  O75  1  0.11925200  0.65158900  0.97890600  1
  O  O76  1  0.62185500  0.34687600  0.76502200  1
  O  O77  1  0.61975750  0.65154450  0.26071300  1
  O  O78  1  0.65225750  0.10909750  0.28223400  1
  O  O79  1  0.84586650  0.88846950  0.47750300  1
