# generated using pymatgen
data_Li2V(Si2O5)3
_symmetry_space_group_name_H-M   'P 1'
_cell_length_a   12.57701000
_cell_length_b   7.19219200
_cell_length_c   14.93444464
_cell_angle_alpha   90.00000000
_cell_angle_beta   103.52432974
_cell_angle_gamma   90.00000000
_symmetry_Int_Tables_number   1
_chemical_formula_structural   Li2V(Si2O5)3
_chemical_formula_sum   'Li8 V4 Si24 O60'
_cell_volume   1313.45426803
_cell_formula_units_Z   4
loop_
 _symmetry_equiv_pos_site_id
 _symmetry_equiv_pos_as_xyz
  1  'x, y, z'
loop_
 _atom_site_type_symbol
 _atom_site_label
 _atom_site_symmetry_multiplicity
 _atom_site_fract_x
 _atom_site_fract_y
 _atom_site_fract_z
 _atom_site_occupancy
  Li  Li0  1  0.67883550  0.16963050  0.94960700  1
  Li  Li1  1  0.71721200  0.66467500  0.83669700  1
  Li  Li2  1  0.67883550  0.83036950  0.44960700  1
  Li  Li3  1  0.71721200  0.33532500  0.33669700  1
  Li  Li4  1  0.17883550  0.66963050  0.94960700  1
  Li  Li5  1  0.21721200  0.16467500  0.83669700  1
  Li  Li6  1  0.17883550  0.33036950  0.44960700  1
  Li  Li7  1  0.21721200  0.83532500  0.33669700  1
  V  V8  1  0.54597100  0.75273000  0.90295700  1
  V  V9  1  0.54597100  0.24727000  0.40295700  1
  V  V10  1  0.04597100  0.25273000  0.90295700  1
  V  V11  1  0.04597100  0.74727000  0.40295700  1
  Si  Si12  1  0.59122200  0.04689500  0.74537900  1
  Si  Si13  1  0.55158100  0.53225700  0.56830300  1
  Si  Si14  1  0.59122200  0.95310500  0.24537900  1
  Si  Si15  1  0.55158100  0.46774300  0.06830300  1
  Si  Si16  1  0.76483050  0.41382850  0.55131700  1
  Si  Si17  1  0.81839100  0.19080300  0.74745700  1
  Si  Si18  1  0.76483050  0.58617150  0.05131700  1
  Si  Si19  1  0.81839100  0.80919700  0.24745700  1
  Si  Si20  1  0.99200700  0.91413800  0.75502100  1
  Si  Si21  1  0.99571250  0.44141450  0.53962900  1
  Si  Si22  1  0.99200700  0.08586200  0.25502100  1
  Si  Si23  1  0.99571250  0.55858550  0.03962900  1
  Si  Si24  1  0.09122200  0.54689500  0.74537900  1
  Si  Si25  1  0.05158100  0.03225700  0.56830300  1
  Si  Si26  1  0.09122200  0.45310500  0.24537900  1
  Si  Si27  1  0.05158100  0.96774300  0.06830300  1
  Si  Si28  1  0.26483050  0.91382850  0.55131700  1
  Si  Si29  1  0.31839100  0.69080300  0.74745700  1
  Si  Si30  1  0.26483050  0.08617150  0.05131700  1
  Si  Si31  1  0.31839100  0.30919700  0.24745700  1
  Si  Si32  1  0.49200700  0.41413800  0.75502100  1
  Si  Si33  1  0.49571250  0.94141450  0.53962900  1
  Si  Si34  1  0.49200700  0.58586200  0.25502100  1
  Si  Si35  1  0.49571250  0.05858550  0.03962900  1
  O  O36  1  0.55577250  0.00539150  0.95845200  1
  O  O37  1  0.56133950  0.50343550  0.84980600  1
  O  O38  1  0.55268800  0.48317500  0.67461200  1
  O  O39  1  0.60738700  0.85804300  0.80437400  1
  O  O40  1  0.57797000  0.99947000  0.63713400  1
  O  O41  1  0.55577250  0.99460850  0.45845200  1
  O  O42  1  0.71091750  0.71469750  0.96396200  1
  O  O43  1  0.56133950  0.49656450  0.34980600  1
  O  O44  1  0.70475850  0.16908050  0.78389600  1
  O  O45  1  0.55268800  0.51682500  0.17461200  1
  O  O46  1  0.60738700  0.14195700  0.30437400  1
  O  O47  1  0.67787950  0.58590250  0.55956100  1
  O  O48  1  0.57797000  0.00053000  0.13713400  1
  O  O49  1  0.71091750  0.28530250  0.46396200  1
  O  O50  1  0.79422300  0.30633000  0.65084000  1
  O  O51  1  0.70475850  0.83091950  0.28389600  1
  O  O52  1  0.90311500  0.29527400  0.83024700  1
  O  O53  1  0.86268000  0.98042500  0.73003400  1
  O  O54  1  0.67787950  0.41409750  0.05956100  1
  O  O55  1  0.87252700  0.52420600  0.53323700  1
  O  O56  1  0.79422300  0.69367000  0.15084000  1
  O  O57  1  0.99230300  0.68526200  0.75931800  1
  O  O58  1  0.90311500  0.70472600  0.33024700  1
  O  O59  1  0.86268000  0.01957500  0.23003400  1
  O  O60  1  0.97695600  0.21476100  0.53605400  1
  O  O61  1  0.50818050  0.35289750  0.50501400  1
  O  O62  1  0.87252700  0.47579400  0.03323700  1
  O  O63  1  0.99230300  0.31473800  0.25931800  1
  O  O64  1  0.97695600  0.78523900  0.03605400  1
  O  O65  1  0.50818050  0.64710250  0.00501400  1
  O  O66  1  0.05577250  0.50539150  0.95845200  1
  O  O67  1  0.06133950  0.00343550  0.84980600  1
  O  O68  1  0.05268800  0.98317500  0.67461200  1
  O  O69  1  0.10738700  0.35804300  0.80437400  1
  O  O70  1  0.07797000  0.49947000  0.63713400  1
  O  O71  1  0.05577250  0.49460850  0.45845200  1
  O  O72  1  0.21091750  0.21469750  0.96396200  1
  O  O73  1  0.06133950  0.99656450  0.34980600  1
  O  O74  1  0.20475850  0.66908050  0.78389600  1
  O  O75  1  0.05268800  0.01682500  0.17461200  1
  O  O76  1  0.10738700  0.64195700  0.30437400  1
  O  O77  1  0.17787950  0.08590250  0.55956100  1
  O  O78  1  0.07797000  0.50053000  0.13713400  1
  O  O79  1  0.21091750  0.78530250  0.46396200  1
  O  O80  1  0.29422300  0.80633000  0.65084000  1
  O  O81  1  0.20475850  0.33091950  0.28389600  1
  O  O82  1  0.40311500  0.79527400  0.83024700  1
  O  O83  1  0.36268000  0.48042500  0.73003400  1
  O  O84  1  0.17787950  0.91409750  0.05956100  1
  O  O85  1  0.37252700  0.02420600  0.53323700  1
  O  O86  1  0.29422300  0.19367000  0.15084000  1
  O  O87  1  0.49230300  0.18526200  0.75931800  1
  O  O88  1  0.40311500  0.20472600  0.33024700  1
  O  O89  1  0.36268000  0.51957500  0.23003400  1
  O  O90  1  0.47695600  0.71476100  0.53605400  1
  O  O91  1  0.00818050  0.85289750  0.50501400  1
  O  O92  1  0.37252700  0.97579400  0.03323700  1
  O  O93  1  0.49230300  0.81473800  0.25931800  1
  O  O94  1  0.47695600  0.28523900  0.03605400  1
  O  O95  1  0.00818050  0.14710250  0.00501400  1
