# generated using pymatgen
data_Ta3O7F
_symmetry_space_group_name_H-M   'P 1'
_cell_length_a   6.50576600
_cell_length_b   10.81360000
_cell_length_c   3.88686300
_cell_angle_alpha   90.00000000
_cell_angle_beta   90.00000000
_cell_angle_gamma   90.00000000
_symmetry_Int_Tables_number   1
_chemical_formula_structural   Ta3O7F
_chemical_formula_sum   'Ta6 O14 F2'
_cell_volume   273.44373193
_cell_formula_units_Z   2
loop_
 _symmetry_equiv_pos_site_id
 _symmetry_equiv_pos_as_xyz
  1  'x, y, z'
loop_
 _atom_site_type_symbol
 _atom_site_label
 _atom_site_symmetry_multiplicity
 _atom_site_fract_x
 _atom_site_fract_y
 _atom_site_fract_z
 _atom_site_occupancy
  Ta  Ta0  1  0.00000000  0.00000000  0.00000000  1
  Ta  Ta1  1  0.50000000  0.80134500  0.00000000  1
  Ta  Ta2  1  0.50000000  0.19865500  0.00000000  1
  Ta  Ta3  1  0.50000000  0.50000000  0.00000000  1
  Ta  Ta4  1  0.00000000  0.30134500  0.00000000  1
  Ta  Ta5  1  0.00000000  0.69865500  0.00000000  1
  O  O6  1  0.19205600  0.85399700  0.00000000  1
  O  O7  1  0.19205600  0.14600300  0.00000000  1
  O  O8  1  0.00000000  0.00000000  0.50000000  1
  O  O9  1  0.50000000  0.81104700  0.50000000  1
  O  O10  1  0.50000000  0.18895300  0.50000000  1
  O  O11  1  0.80794400  0.14600300  0.00000000  1
  O  O12  1  0.80794400  0.85399700  0.00000000  1
  O  O13  1  0.69205600  0.35399700  0.00000000  1
  O  O14  1  0.69205600  0.64600300  0.00000000  1
  O  O15  1  0.50000000  0.50000000  0.50000000  1
  O  O16  1  0.00000000  0.31104700  0.50000000  1
  O  O17  1  0.00000000  0.68895300  0.50000000  1
  O  O18  1  0.30794400  0.64600300  0.00000000  1
  O  O19  1  0.30794400  0.35399700  0.00000000  1
  F  F20  1  0.50000000  0.00000000  0.00000000  1
  F  F21  1  0.00000000  0.50000000  0.00000000  1
