# generated using pymatgen
data_Li8TeO6
_symmetry_space_group_name_H-M   'P 1'
_cell_length_a   5.60736436
_cell_length_b   5.60736436
_cell_length_c   15.95210936
_cell_angle_alpha   90.00000000
_cell_angle_beta   90.00000000
_cell_angle_gamma   120.00000000
_symmetry_Int_Tables_number   1
_chemical_formula_structural   Li8TeO6
_chemical_formula_sum   'Li24 Te3 O18'
_cell_volume   434.37648256
_cell_formula_units_Z   3
loop_
 _symmetry_equiv_pos_site_id
 _symmetry_equiv_pos_as_xyz
  1  'x, y, z'
loop_
 _atom_site_type_symbol
 _atom_site_label
 _atom_site_symmetry_multiplicity
 _atom_site_fract_x
 _atom_site_fract_y
 _atom_site_fract_z
 _atom_site_occupancy
  Li  Li0  1  0.68591967  0.70271933  0.21245633  1
  Li  Li1  1  0.36938600  0.35013300  0.12087700  1
  Li  Li2  1  0.64986700  0.01925300  0.12087700  1
  Li  Li3  1  0.33333333  0.66666667  0.01394567  1
  Li  Li4  1  0.33333333  0.66666667  0.31938767  1
  Li  Li5  1  0.01679967  0.31408033  0.21245633  1
  Li  Li6  1  0.29728067  0.98320033  0.21245633  1
  Li  Li7  1  0.98074700  0.63061400  0.12087700  1
  Li  Li8  1  0.35258633  0.03605267  0.54578967  1
  Li  Li9  1  0.03605267  0.68346633  0.45421033  1
  Li  Li10  1  0.31653367  0.35258633  0.45421033  1
  Li  Li11  1  0.00000000  0.00000000  0.34727900  1
  Li  Li12  1  0.00000000  0.00000000  0.65272100  1
  Li  Li13  1  0.68346633  0.64741367  0.54578967  1
  Li  Li14  1  0.96394733  0.31653367  0.54578967  1
  Li  Li15  1  0.64741367  0.96394733  0.45421033  1
  Li  Li16  1  0.01925300  0.36938600  0.87912300  1
  Li  Li17  1  0.70271933  0.01679967  0.78754367  1
  Li  Li18  1  0.98320033  0.68591967  0.78754367  1
  Li  Li19  1  0.66666667  0.33333333  0.68061233  1
  Li  Li20  1  0.66666667  0.33333333  0.98605433  1
  Li  Li21  1  0.35013300  0.98074700  0.87912300  1
  Li  Li22  1  0.63061400  0.64986700  0.87912300  1
  Li  Li23  1  0.31408033  0.29728067  0.78754367  1
  Te  Te24  1  0.00000000  0.00000000  0.00000000  1
  Te  Te25  1  0.66666667  0.33333333  0.33333333  1
  Te  Te26  1  0.33333333  0.66666667  0.66666667  1
  O  O27  1  0.67694933  0.69102467  0.08469267  1
  O  O28  1  0.35769133  0.34740867  0.24864067  1
  O  O29  1  0.65259133  0.01028267  0.24864067  1
  O  O30  1  0.01407533  0.32305067  0.08469267  1
  O  O31  1  0.30897533  0.98592467  0.08469267  1
  O  O32  1  0.98971733  0.64230867  0.24864067  1
  O  O33  1  0.34361600  0.02435800  0.41802600  1
  O  O34  1  0.02435800  0.68074200  0.58197400  1
  O  O35  1  0.31925800  0.34361600  0.58197400  1
  O  O36  1  0.68074200  0.65638400  0.41802600  1
  O  O37  1  0.97564200  0.31925800  0.41802600  1
  O  O38  1  0.65638400  0.97564200  0.58197400  1
  O  O39  1  0.01028267  0.35769133  0.75135933  1
  O  O40  1  0.69102467  0.01407533  0.91530733  1
  O  O41  1  0.98592467  0.67694933  0.91530733  1
  O  O42  1  0.34740867  0.98971733  0.75135933  1
  O  O43  1  0.64230867  0.65259133  0.75135933  1
  O  O44  1  0.32305067  0.30897533  0.91530733  1
