# generated using pymatgen
data_Li3Sb2(PO4)3
_symmetry_space_group_name_H-M   'P 1'
_cell_length_a   8.88863425
_cell_length_b   8.88863425
_cell_length_c   24.54385014
_cell_angle_alpha   90.00000000
_cell_angle_beta   90.00000000
_cell_angle_gamma   120.00000000
_symmetry_Int_Tables_number   1
_chemical_formula_structural   Li3Sb2(PO4)3
_chemical_formula_sum   'Li18 Sb12 P18 O72'
_cell_volume   1679.35841291
_cell_formula_units_Z   6
loop_
 _symmetry_equiv_pos_site_id
 _symmetry_equiv_pos_as_xyz
  1  'x, y, z'
loop_
 _atom_site_type_symbol
 _atom_site_label
 _atom_site_symmetry_multiplicity
 _atom_site_fract_x
 _atom_site_fract_y
 _atom_site_fract_z
 _atom_site_occupancy
  Li  Li0  1  0.69617800  0.97956900  0.04672000  1
  Li  Li1  1  0.02043100  0.71660900  0.04672000  1
  Li  Li2  1  0.28339100  0.30382200  0.04672000  1
  Li  Li3  1  0.38327567  0.02951133  0.28661333  1
  Li  Li4  1  0.64623567  0.61672433  0.28661333  1
  Li  Li5  1  0.97048867  0.35376433  0.28661333  1
  Li  Li6  1  0.36284467  0.31290233  0.38005333  1
  Li  Li7  1  0.68709767  0.04994233  0.38005333  1
  Li  Li8  1  0.95005767  0.63715533  0.38005333  1
  Li  Li9  1  0.04994233  0.36284467  0.61994667  1
  Li  Li10  1  0.31290233  0.95005767  0.61994667  1
  Li  Li11  1  0.63715533  0.68709767  0.61994667  1
  Li  Li12  1  0.02951133  0.64623567  0.71338667  1
  Li  Li13  1  0.35376433  0.38327567  0.71338667  1
  Li  Li14  1  0.61672433  0.97048867  0.71338667  1
  Li  Li15  1  0.71660900  0.69617800  0.95328000  1
  Li  Li16  1  0.97956900  0.28339100  0.95328000  1
  Li  Li17  1  0.30382200  0.02043100  0.95328000  1
  Sb  Sb18  1  0.00000000  0.00000000  0.15688900  1
  Sb  Sb19  1  0.66666667  0.33333333  0.17644433  1
  Sb  Sb20  1  0.33333333  0.66666667  0.01549467  1
  Sb  Sb21  1  0.33333333  0.66666667  0.31783867  1
  Sb  Sb22  1  0.66666667  0.33333333  0.49022233  1
  Sb  Sb23  1  0.33333333  0.66666667  0.50977767  1
  Sb  Sb24  1  0.00000000  0.00000000  0.34882800  1
  Sb  Sb25  1  0.00000000  0.00000000  0.65117200  1
  Sb  Sb26  1  0.33333333  0.66666667  0.82355567  1
  Sb  Sb27  1  0.00000000  0.00000000  0.84311100  1
  Sb  Sb28  1  0.66666667  0.33333333  0.68216133  1
  Sb  Sb29  1  0.66666667  0.33333333  0.98450533  1
  P  P30  1  0.36879267  0.03173733  0.07872633  1
  P  P31  1  0.66294467  0.63120733  0.07872633  1
  P  P32  1  0.96826267  0.33705533  0.07872633  1
  P  P33  1  0.69840400  0.99627800  0.25460700  1
  P  P34  1  0.00372200  0.70212600  0.25460700  1
  P  P35  1  0.29787400  0.30159600  0.25460700  1
  P  P36  1  0.03545933  0.36507067  0.41205967  1
  P  P37  1  0.32961133  0.96454067  0.41205967  1
  P  P38  1  0.63492933  0.67038867  0.41205967  1
  P  P39  1  0.36507067  0.32961133  0.58794033  1
  P  P40  1  0.67038867  0.03545933  0.58794033  1
  P  P41  1  0.96454067  0.63492933  0.58794033  1
  P  P42  1  0.70212600  0.69840400  0.74539300  1
  P  P43  1  0.99627800  0.29787400  0.74539300  1
  P  P44  1  0.30159600  0.00372200  0.74539300  1
  P  P45  1  0.03173733  0.66294467  0.92127367  1
  P  P46  1  0.33705533  0.36879267  0.92127367  1
  P  P47  1  0.63120733  0.96826267  0.92127367  1
  O  O48  1  0.27442633  0.17344767  0.30275367  1
  O  O49  1  0.82655233  0.10097867  0.30275367  1
  O  O50  1  0.89902133  0.72557367  0.30275367  1
  O  O51  1  0.45240100  0.91993000  0.06092500  1
  O  O52  1  0.17389700  0.91569300  0.08964400  1
  O  O53  1  0.46452533  0.13960467  0.12975467  1
  O  O54  1  0.74179600  0.82610300  0.08964400  1
  O  O55  1  0.46752900  0.54759900  0.06092500  1
  O  O56  1  0.08007000  0.53247100  0.06092500  1
  O  O57  1  0.80627133  0.00841267  0.20357867  1
  O  O58  1  0.58235967  0.07512933  0.24368933  1
  O  O59  1  0.99158733  0.79785867  0.20357867  1
  O  O60  1  0.67507933  0.53547467  0.12975467  1
  O  O61  1  0.08430700  0.25820400  0.08964400  1
  O  O62  1  0.86039533  0.32492067  0.12975467  1
  O  O63  1  0.58659667  0.80086233  0.27240833  1
  O  O64  1  0.19913767  0.78573433  0.27240833  1
  O  O65  1  0.92487067  0.50723033  0.24368933  1
  O  O66  1  0.20214133  0.19372867  0.20357867  1
  O  O67  1  0.49276967  0.41764033  0.24368933  1
  O  O68  1  0.21426567  0.41340333  0.27240833  1
  O  O69  1  0.76764533  0.60775967  0.03057967  1
  O  O70  1  0.84011433  0.23235467  0.03057967  1
  O  O71  1  0.39224033  0.15988567  0.03057967  1
  O  O72  1  0.94109300  0.50678100  0.63608700  1
  O  O73  1  0.49321900  0.43431200  0.63608700  1
  O  O74  1  0.56568800  0.05890700  0.63608700  1
  O  O75  1  0.11906767  0.25326333  0.39425833  1
  O  O76  1  0.84056367  0.24902633  0.42297733  1
  O  O77  1  0.13119200  0.47293800  0.46308800  1
  O  O78  1  0.40846267  0.15943633  0.42297733  1
  O  O79  1  0.13419567  0.88093233  0.39425833  1
  O  O80  1  0.74673667  0.86580433  0.39425833  1
  O  O81  1  0.47293800  0.34174600  0.53691200  1
  O  O82  1  0.24902633  0.40846267  0.57702267  1
  O  O83  1  0.65825400  0.13119200  0.53691200  1
  O  O84  1  0.34174600  0.86880800  0.46308800  1
  O  O85  1  0.75097367  0.59153733  0.42297733  1
  O  O86  1  0.52706200  0.65825400  0.46308800  1
  O  O87  1  0.25326333  0.13419567  0.60574167  1
  O  O88  1  0.86580433  0.11906767  0.60574167  1
  O  O89  1  0.59153733  0.84056367  0.57702267  1
  O  O90  1  0.86880800  0.52706200  0.53691200  1
  O  O91  1  0.15943633  0.75097367  0.57702267  1
  O  O92  1  0.88093233  0.74673667  0.60574167  1
  O  O93  1  0.43431200  0.94109300  0.36391300  1
  O  O94  1  0.50678100  0.56568800  0.36391300  1
  O  O95  1  0.05890700  0.49321900  0.36391300  1
  O  O96  1  0.60775967  0.84011433  0.96942033  1
  O  O97  1  0.15988567  0.76764533  0.96942033  1
  O  O98  1  0.23235467  0.39224033  0.96942033  1
  O  O99  1  0.78573433  0.58659667  0.72759167  1
  O  O100  1  0.50723033  0.58235967  0.75631067  1
  O  O101  1  0.79785867  0.80627133  0.79642133  1
  O  O102  1  0.07512933  0.49276967  0.75631067  1
  O  O103  1  0.80086233  0.21426567  0.72759167  1
  O  O104  1  0.41340333  0.19913767  0.72759167  1
  O  O105  1  0.13960467  0.67507933  0.87024533  1
  O  O106  1  0.91569300  0.74179600  0.91035600  1
  O  O107  1  0.32492067  0.46452533  0.87024533  1
  O  O108  1  0.00841267  0.20214133  0.79642133  1
  O  O109  1  0.41764033  0.92487067  0.75631067  1
  O  O110  1  0.19372867  0.99158733  0.79642133  1
  O  O111  1  0.91993000  0.46752900  0.93907500  1
  O  O112  1  0.53247100  0.45240100  0.93907500  1
  O  O113  1  0.25820400  0.17389700  0.91035600  1
  O  O114  1  0.53547467  0.86039533  0.87024533  1
  O  O115  1  0.82610300  0.08430700  0.91035600  1
  O  O116  1  0.54759900  0.08007000  0.93907500  1
  O  O117  1  0.10097867  0.27442633  0.69724633  1
  O  O118  1  0.17344767  0.89902133  0.69724633  1
  O  O119  1  0.72557367  0.82655233  0.69724633  1
