# generated using pymatgen
data_LiVF5
_symmetry_space_group_name_H-M   'P 1'
_cell_length_a   14.25381800
_cell_length_b   14.25381800
_cell_length_c   6.78325600
_cell_angle_alpha   90.00000000
_cell_angle_beta   90.00000000
_cell_angle_gamma   90.00000000
_symmetry_Int_Tables_number   1
_chemical_formula_structural   LiVF5
_chemical_formula_sum   'Li16 V16 F80'
_cell_volume   1378.16312682
_cell_formula_units_Z   16
loop_
 _symmetry_equiv_pos_site_id
 _symmetry_equiv_pos_as_xyz
  1  'x, y, z'
loop_
 _atom_site_type_symbol
 _atom_site_label
 _atom_site_symmetry_multiplicity
 _atom_site_fract_x
 _atom_site_fract_y
 _atom_site_fract_z
 _atom_site_occupancy
  Li  Li0  1  0.11418700  0.41541100  0.40110300  1
  Li  Li1  1  0.61418700  0.41541100  0.84889700  1
  Li  Li2  1  0.08458900  0.11418700  0.65110300  1
  Li  Li3  1  0.08458900  0.61418700  0.09889700  1
  Li  Li4  1  0.91541100  0.88581300  0.65110300  1
  Li  Li5  1  0.91541100  0.38581300  0.09889700  1
  Li  Li6  1  0.88581300  0.58458900  0.40110300  1
  Li  Li7  1  0.38581300  0.58458900  0.84889700  1
  Li  Li8  1  0.61418700  0.91541100  0.90110300  1
  Li  Li9  1  0.11418700  0.91541100  0.34889700  1
  Li  Li10  1  0.58458900  0.61418700  0.15110300  1
  Li  Li11  1  0.58458900  0.11418700  0.59889700  1
  Li  Li12  1  0.41541100  0.38581300  0.15110300  1
  Li  Li13  1  0.41541100  0.88581300  0.59889700  1
  Li  Li14  1  0.38581300  0.08458900  0.90110300  1
  Li  Li15  1  0.88581300  0.08458900  0.34889700  1
  V  V16  1  0.90632050  0.30194950  0.60722650  1
  V  V17  1  0.30194950  0.59367950  0.35722650  1
  V  V18  1  0.69805050  0.40632050  0.35722650  1
  V  V19  1  0.09367950  0.69805050  0.60722650  1
  V  V20  1  0.90632050  0.80194950  0.14277350  1
  V  V21  1  0.80194950  0.59367950  0.89277350  1
  V  V22  1  0.19805050  0.40632050  0.89277350  1
  V  V23  1  0.09367950  0.19805050  0.14277350  1
  V  V24  1  0.40632050  0.80194950  0.10722650  1
  V  V25  1  0.80194950  0.09367950  0.85722650  1
  V  V26  1  0.19805050  0.90632050  0.85722650  1
  V  V27  1  0.59367950  0.19805050  0.10722650  1
  V  V28  1  0.40632050  0.30194950  0.64277350  1
  V  V29  1  0.30194950  0.09367950  0.39277350  1
  V  V30  1  0.69805050  0.90632050  0.39277350  1
  V  V31  1  0.59367950  0.69805050  0.64277350  1
  F  F32  1  0.87012200  0.21303400  0.42854800  1
  F  F33  1  0.85258150  0.21990650  0.81319150  1
  F  F34  1  0.78009350  0.35258150  0.56319150  1
  F  F35  1  0.78696600  0.37012200  0.17854800  1
  F  F36  1  0.21303400  0.62987800  0.17854800  1
  F  F37  1  0.21990650  0.64741850  0.56319150  1
  F  F38  1  0.23784250  0.48307650  0.39033650  1
  F  F39  1  0.73784250  0.48307650  0.85966350  1
  F  F40  1  0.14741850  0.78009350  0.81319150  1
  F  F41  1  0.07910300  0.61484700  0.80748700  1
  F  F42  1  0.07910300  0.11484700  0.94251300  1
  F  F43  1  0.11274150  0.45698250  0.07920350  1
  F  F44  1  0.61274150  0.45698250  0.17079650  1
  F  F45  1  0.12987800  0.78696600  0.42854800  1
  F  F46  1  0.11484700  0.42089700  0.69251300  1
  F  F47  1  0.61484700  0.42089700  0.55748700  1
  F  F48  1  0.04301750  0.61274150  0.42079650  1
  F  F49  1  0.04301750  0.11274150  0.32920350  1
  F  F50  1  0.01692350  0.73784250  0.10966350  1
  F  F51  1  0.01692350  0.23784250  0.64033650  1
  F  F52  1  0.98307650  0.26215750  0.10966350  1
  F  F53  1  0.98307650  0.76215750  0.64033650  1
  F  F54  1  0.95698250  0.38725850  0.42079650  1
  F  F55  1  0.95698250  0.88725850  0.32920350  1
  F  F56  1  0.88515300  0.57910300  0.69251300  1
  F  F57  1  0.38515300  0.57910300  0.55748700  1
  F  F58  1  0.87012200  0.71303400  0.32145200  1
  F  F59  1  0.38725850  0.54301750  0.17079650  1
  F  F60  1  0.88725850  0.54301750  0.07920350  1
  F  F61  1  0.92089700  0.38515300  0.80748700  1
  F  F62  1  0.92089700  0.88515300  0.94251300  1
  F  F63  1  0.85258150  0.71990650  0.93680850  1
  F  F64  1  0.76215750  0.51692350  0.39033650  1
  F  F65  1  0.26215750  0.51692350  0.85966350  1
  F  F66  1  0.28009350  0.35258150  0.68680850  1
  F  F67  1  0.28696600  0.37012200  0.07145200  1
  F  F68  1  0.71303400  0.62987800  0.07145200  1
  F  F69  1  0.71990650  0.64741850  0.68680850  1
  F  F70  1  0.14741850  0.28009350  0.93680850  1
  F  F71  1  0.12987800  0.28696600  0.32145200  1
  F  F72  1  0.37012200  0.71303400  0.92854800  1
  F  F73  1  0.35258150  0.71990650  0.31319150  1
  F  F74  1  0.28009350  0.85258150  0.06319150  1
  F  F75  1  0.28696600  0.87012200  0.67854800  1
  F  F76  1  0.71303400  0.12987800  0.67854800  1
  F  F77  1  0.71990650  0.14741850  0.06319150  1
  F  F78  1  0.73784250  0.98307650  0.89033650  1
  F  F79  1  0.23784250  0.98307650  0.35966350  1
  F  F80  1  0.64741850  0.28009350  0.31319150  1
  F  F81  1  0.57910300  0.11484700  0.30748700  1
  F  F82  1  0.57910300  0.61484700  0.44251300  1
  F  F83  1  0.61274150  0.95698250  0.57920350  1
  F  F84  1  0.11274150  0.95698250  0.67079650  1
  F  F85  1  0.62987800  0.28696600  0.92854800  1
  F  F86  1  0.61484700  0.92089700  0.19251300  1
  F  F87  1  0.11484700  0.92089700  0.05748700  1
  F  F88  1  0.54301750  0.11274150  0.92079650  1
  F  F89  1  0.54301750  0.61274150  0.82920350  1
  F  F90  1  0.51692350  0.23784250  0.60966350  1
  F  F91  1  0.51692350  0.73784250  0.14033650  1
  F  F92  1  0.48307650  0.76215750  0.60966350  1
  F  F93  1  0.48307650  0.26215750  0.14033650  1
  F  F94  1  0.45698250  0.88725850  0.92079650  1
  F  F95  1  0.45698250  0.38725850  0.82920350  1
  F  F96  1  0.38515300  0.07910300  0.19251300  1
  F  F97  1  0.88515300  0.07910300  0.05748700  1
  F  F98  1  0.37012200  0.21303400  0.82145200  1
  F  F99  1  0.88725850  0.04301750  0.67079650  1
  F  F100  1  0.38725850  0.04301750  0.57920350  1
  F  F101  1  0.42089700  0.88515300  0.30748700  1
  F  F102  1  0.42089700  0.38515300  0.44251300  1
  F  F103  1  0.35258150  0.21990650  0.43680850  1
  F  F104  1  0.26215750  0.01692350  0.89033650  1
  F  F105  1  0.76215750  0.01692350  0.35966350  1
  F  F106  1  0.78009350  0.85258150  0.18680850  1
  F  F107  1  0.78696600  0.87012200  0.57145200  1
  F  F108  1  0.21303400  0.12987800  0.57145200  1
  F  F109  1  0.21990650  0.14741850  0.18680850  1
  F  F110  1  0.64741850  0.78009350  0.43680850  1
  F  F111  1  0.62987800  0.78696600  0.82145200  1
