# generated using pymatgen
data_Ti3N2O3
_symmetry_space_group_name_H-M   'P 1'
_cell_length_a   3.77772200
_cell_length_b   9.92802200
_cell_length_c   10.05308400
_cell_angle_alpha   90.00000000
_cell_angle_beta   90.00000000
_cell_angle_gamma   90.00000000
_symmetry_Int_Tables_number   1
_chemical_formula_structural   Ti3N2O3
_chemical_formula_sum   'Ti12 N8 O12'
_cell_volume   377.04400298
_cell_formula_units_Z   4
loop_
 _symmetry_equiv_pos_site_id
 _symmetry_equiv_pos_as_xyz
  1  'x, y, z'
loop_
 _atom_site_type_symbol
 _atom_site_label
 _atom_site_symmetry_multiplicity
 _atom_site_fract_x
 _atom_site_fract_y
 _atom_site_fract_z
 _atom_site_occupancy
  Ti  Ti0  1  0.50000000  0.36502000  0.05748600  1
  Ti  Ti1  1  0.50000000  0.36539100  0.45055000  1
  Ti  Ti2  1  0.50000000  0.30498600  0.75369100  1
  Ti  Ti3  1  0.00000000  0.19501400  0.25369100  1
  Ti  Ti4  1  0.00000000  0.13460900  0.95055000  1
  Ti  Ti5  1  0.00000000  0.13498000  0.55748600  1
  Ti  Ti6  1  0.00000000  0.86502000  0.05748600  1
  Ti  Ti7  1  0.00000000  0.86539100  0.45055000  1
  Ti  Ti8  1  0.00000000  0.80498600  0.75369100  1
  Ti  Ti9  1  0.50000000  0.69501400  0.25369100  1
  Ti  Ti10  1  0.50000000  0.63460900  0.95055000  1
  Ti  Ti11  1  0.50000000  0.63498000  0.55748600  1
  N  N12  1  0.50000000  0.45422500  0.61788000  1
  N  N13  1  0.00000000  0.30326200  0.42367600  1
  N  N14  1  0.50000000  0.19673800  0.92367600  1
  N  N15  1  0.00000000  0.04577500  0.11788000  1
  N  N16  1  0.00000000  0.95422500  0.61788000  1
  N  N17  1  0.50000000  0.80326200  0.42367600  1
  N  N18  1  0.00000000  0.69673800  0.92367600  1
  N  N19  1  0.50000000  0.54577500  0.11788000  1
  O  O20  1  0.50000000  0.45489200  0.88037400  1
  O  O21  1  0.00000000  0.31364400  0.07737500  1
  O  O22  1  0.00000000  0.24595800  0.73896700  1
  O  O23  1  0.50000000  0.25404200  0.23896700  1
  O  O24  1  0.50000000  0.18635600  0.57737500  1
  O  O25  1  0.00000000  0.04510800  0.38037400  1
  O  O26  1  0.00000000  0.95489200  0.88037400  1
  O  O27  1  0.50000000  0.81364400  0.07737500  1
  O  O28  1  0.50000000  0.74595800  0.73896700  1
  O  O29  1  0.00000000  0.75404200  0.23896700  1
  O  O30  1  0.00000000  0.68635600  0.57737500  1
  O  O31  1  0.50000000  0.54510800  0.38037400  1
