# generated using pymatgen
data_Ba3GeO5
_symmetry_space_group_name_H-M   'P 1'
_cell_length_a   8.07067612
_cell_length_b   8.07067612
_cell_length_c   28.94592750
_cell_angle_alpha   90.00000000
_cell_angle_beta   90.00000000
_cell_angle_gamma   120.00000000
_symmetry_Int_Tables_number   1
_chemical_formula_structural   Ba3GeO5
_chemical_formula_sum   'Ba27 Ge9 O45'
_cell_volume   1632.81860339
_cell_formula_units_Z   9
loop_
 _symmetry_equiv_pos_site_id
 _symmetry_equiv_pos_as_xyz
  1  'x, y, z'
loop_
 _atom_site_type_symbol
 _atom_site_label
 _atom_site_symmetry_multiplicity
 _atom_site_fract_x
 _atom_site_fract_y
 _atom_site_fract_z
 _atom_site_occupancy
  Ba  Ba0  1  0.48980567  0.51019433  0.22457033  1
  Ba  Ba1  1  0.65599333  0.82799667  0.10969967  1
  Ba  Ba2  1  0.48980567  0.97961133  0.22457033  1
  Ba  Ba3  1  0.17112300  0.34224600  0.33214800  1
  Ba  Ba4  1  0.17200333  0.34400667  0.10969967  1
  Ba  Ba5  1  0.02038867  0.51019433  0.22457033  1
  Ba  Ba6  1  0.17200333  0.82799667  0.10969967  1
  Ba  Ba7  1  0.17112300  0.82887700  0.33214800  1
  Ba  Ba8  1  0.65775400  0.82887700  0.33214800  1
  Ba  Ba9  1  0.15647233  0.84352767  0.55790367  1
  Ba  Ba10  1  0.32266000  0.16133000  0.44303300  1
  Ba  Ba11  1  0.15647233  0.31294467  0.55790367  1
  Ba  Ba12  1  0.83778967  0.67557933  0.66548133  1
  Ba  Ba13  1  0.83867000  0.67734000  0.44303300  1
  Ba  Ba14  1  0.68705533  0.84352767  0.55790367  1
  Ba  Ba15  1  0.83867000  0.16133000  0.44303300  1
  Ba  Ba16  1  0.83778967  0.16221033  0.66548133  1
  Ba  Ba17  1  0.32442067  0.16221033  0.66548133  1
  Ba  Ba18  1  0.82313900  0.17686100  0.89123700  1
  Ba  Ba19  1  0.98932667  0.49466333  0.77636633  1
  Ba  Ba20  1  0.82313900  0.64627800  0.89123700  1
  Ba  Ba21  1  0.50445633  0.00891267  0.99881467  1
  Ba  Ba22  1  0.50533667  0.01067333  0.77636633  1
  Ba  Ba23  1  0.35372200  0.17686100  0.89123700  1
  Ba  Ba24  1  0.50533667  0.49466333  0.77636633  1
  Ba  Ba25  1  0.50445633  0.49554367  0.99881467  1
  Ba  Ba26  1  0.99108733  0.49554367  0.99881467  1
  Ge  Ge27  1  0.00000000  0.00000000  0.00100300  1
  Ge  Ge28  1  0.00000000  0.00000000  0.21915500  1
  Ge  Ge29  1  0.66666667  0.33333333  0.11831733  1
  Ge  Ge30  1  0.66666667  0.33333333  0.33433633  1
  Ge  Ge31  1  0.66666667  0.33333333  0.55248833  1
  Ge  Ge32  1  0.33333333  0.66666667  0.45165067  1
  Ge  Ge33  1  0.33333333  0.66666667  0.66766967  1
  Ge  Ge34  1  0.33333333  0.66666667  0.88582167  1
  Ge  Ge35  1  0.00000000  0.00000000  0.78498400  1
  O  O36  1  0.54620367  0.45379633  0.09744033  1
  O  O37  1  0.33333333  0.66666667  0.04374567  1
  O  O38  1  0.12089067  0.87910933  0.23886233  1
  O  O39  1  0.75821867  0.87910933  0.23886233  1
  O  O40  1  0.00000000  0.00000000  0.06231400  1
  O  O41  1  0.00000000  0.00000000  0.15776200  1
  O  O42  1  0.54620367  0.09240733  0.09744033  1
  O  O43  1  0.12089067  0.24178133  0.23886233  1
  O  O44  1  0.66666667  0.33333333  0.18056433  1
  O  O45  1  0.54507133  0.45492867  0.31517667  1
  O  O46  1  0.90985733  0.45492867  0.31517667  1
  O  O47  1  0.90759267  0.45379633  0.09744033  1
  O  O48  1  0.33333333  0.66666667  0.28405267  1
  O  O49  1  0.33333333  0.66666667  0.16691667  1
  O  O50  1  0.54507133  0.09014267  0.31517667  1
  O  O51  1  0.21287033  0.78712967  0.43077367  1
  O  O52  1  0.00000000  0.00000000  0.37707900  1
  O  O53  1  0.78755733  0.21244267  0.57219567  1
  O  O54  1  0.42488533  0.21244267  0.57219567  1
  O  O55  1  0.66666667  0.33333333  0.39564733  1
  O  O56  1  0.66666667  0.33333333  0.49109533  1
  O  O57  1  0.21287033  0.42574067  0.43077367  1
  O  O58  1  0.78755733  0.57511467  0.57219567  1
  O  O59  1  0.33333333  0.66666667  0.51389767  1
  O  O60  1  0.21173800  0.78826200  0.64851000  1
  O  O61  1  0.57652400  0.78826200  0.64851000  1
  O  O62  1  0.57425933  0.78712967  0.43077367  1
  O  O63  1  0.00000000  0.00000000  0.61738600  1
  O  O64  1  0.00000000  0.00000000  0.50025000  1
  O  O65  1  0.21173800  0.42347600  0.64851000  1
  O  O66  1  0.87953700  0.12046300  0.76410700  1
  O  O67  1  0.66666667  0.33333333  0.71041233  1
  O  O68  1  0.45422400  0.54577600  0.90552900  1
  O  O69  1  0.09155200  0.54577600  0.90552900  1
  O  O70  1  0.33333333  0.66666667  0.72898067  1
  O  O71  1  0.33333333  0.66666667  0.82442867  1
  O  O72  1  0.87953700  0.75907400  0.76410700  1
  O  O73  1  0.45422400  0.90844800  0.90552900  1
  O  O74  1  0.00000000  0.00000000  0.84723100  1
  O  O75  1  0.87840467  0.12159533  0.98184333  1
  O  O76  1  0.24319067  0.12159533  0.98184333  1
  O  O77  1  0.24092600  0.12046300  0.76410700  1
  O  O78  1  0.66666667  0.33333333  0.95071933  1
  O  O79  1  0.66666667  0.33333333  0.83358333  1
  O  O80  1  0.87840467  0.75680933  0.98184333  1
