# generated using pymatgen
data_Li3FeF6
_symmetry_space_group_name_H-M   'P 1'
_cell_length_a   17.49209600
_cell_length_b   5.38400200
_cell_length_c   9.22334803
_cell_angle_alpha   90.00000000
_cell_angle_beta   92.60044383
_cell_angle_gamma   90.00000000
_symmetry_Int_Tables_number   1
_chemical_formula_structural   Li3FeF6
_chemical_formula_sum   'Li24 Fe8 F48'
_cell_volume   867.73717270
_cell_formula_units_Z   8
loop_
 _symmetry_equiv_pos_site_id
 _symmetry_equiv_pos_as_xyz
  1  'x, y, z'
loop_
 _atom_site_type_symbol
 _atom_site_label
 _atom_site_symmetry_multiplicity
 _atom_site_fract_x
 _atom_site_fract_y
 _atom_site_fract_z
 _atom_site_occupancy
  Li  Li0  1  0.91841450  0.74989150  0.55204700  1
  Li  Li1  1  0.91841450  0.25010850  0.05204700  1
  Li  Li2  1  0.82504300  0.21500700  0.67728600  1
  Li  Li3  1  0.88773000  0.71979600  0.89137600  1
  Li  Li4  1  0.82504300  0.78499300  0.17728600  1
  Li  Li5  1  0.88773000  0.28020400  0.39137600  1
  Li  Li6  1  0.61227000  0.21979600  0.60862400  1
  Li  Li7  1  0.67495700  0.71500700  0.82271400  1
  Li  Li8  1  0.61227000  0.78020400  0.10862400  1
  Li  Li9  1  0.67495700  0.28499300  0.32271400  1
  Li  Li10  1  0.58158550  0.24989150  0.94795300  1
  Li  Li11  1  0.58158550  0.75010850  0.44795300  1
  Li  Li12  1  0.41841450  0.24989150  0.55204700  1
  Li  Li13  1  0.41841450  0.75010850  0.05204700  1
  Li  Li14  1  0.32504300  0.71500700  0.67728600  1
  Li  Li15  1  0.38773000  0.21979600  0.89137600  1
  Li  Li16  1  0.32504300  0.28499300  0.17728600  1
  Li  Li17  1  0.38773000  0.78020400  0.39137600  1
  Li  Li18  1  0.11227000  0.71979600  0.60862400  1
  Li  Li19  1  0.17495700  0.21500700  0.82271400  1
  Li  Li20  1  0.11227000  0.28020400  0.10862400  1
  Li  Li21  1  0.17495700  0.78499300  0.32271400  1
  Li  Li22  1  0.08158550  0.74989150  0.94795300  1
  Li  Li23  1  0.08158550  0.25010850  0.44795300  1
  Fe  Fe24  1  0.75000000  0.25000000  0.00000000  1
  Fe  Fe25  1  0.75000000  0.75000000  0.50000000  1
  Fe  Fe26  1  0.00000000  0.19950600  0.75000000  1
  Fe  Fe27  1  0.00000000  0.80049400  0.25000000  1
  Fe  Fe28  1  0.25000000  0.75000000  0.00000000  1
  Fe  Fe29  1  0.25000000  0.25000000  0.50000000  1
  Fe  Fe30  1  0.50000000  0.69950600  0.75000000  1
  Fe  Fe31  1  0.50000000  0.30049400  0.25000000  1
  F  F32  1  0.98259400  0.24108000  0.53657800  1
  F  F33  1  0.92397500  0.92872200  0.73618200  1
  F  F34  1  0.91296750  0.41265550  0.78015600  1
  F  F35  1  0.98259400  0.75892000  0.03657800  1
  F  F36  1  0.92397500  0.07127800  0.23618200  1
  F  F37  1  0.91296750  0.58734450  0.28015600  1
  F  F38  1  0.83206150  0.49802550  0.52860300  1
  F  F39  1  0.83206150  0.50197450  0.02860300  1
  F  F40  1  0.83441850  0.00711750  0.98607100  1
  F  F41  1  0.83441850  0.99288250  0.48607100  1
  F  F42  1  0.75564900  0.82281700  0.70461600  1
  F  F43  1  0.74435100  0.32281700  0.79538400  1
  F  F44  1  0.75564900  0.17718300  0.20461600  1
  F  F45  1  0.74435100  0.67718300  0.29538400  1
  F  F46  1  0.66558150  0.50711750  0.51392900  1
  F  F47  1  0.66558150  0.49288250  0.01392900  1
  F  F48  1  0.66793850  0.99802550  0.97139700  1
  F  F49  1  0.66793850  0.00197450  0.47139700  1
  F  F50  1  0.58703250  0.91265550  0.71984400  1
  F  F51  1  0.57602500  0.42872200  0.76381800  1
  F  F52  1  0.51740600  0.74108000  0.96342200  1
  F  F53  1  0.58703250  0.08734450  0.21984400  1
  F  F54  1  0.57602500  0.57127800  0.26381800  1
  F  F55  1  0.51740600  0.25892000  0.46342200  1
  F  F56  1  0.48259400  0.74108000  0.53657800  1
  F  F57  1  0.42397500  0.42872200  0.73618200  1
  F  F58  1  0.41296750  0.91265550  0.78015600  1
  F  F59  1  0.48259400  0.25892000  0.03657800  1
  F  F60  1  0.42397500  0.57127800  0.23618200  1
  F  F61  1  0.41296750  0.08734450  0.28015600  1
  F  F62  1  0.33206150  0.99802550  0.52860300  1
  F  F63  1  0.33206150  0.00197450  0.02860300  1
  F  F64  1  0.33441850  0.50711750  0.98607100  1
  F  F65  1  0.33441850  0.49288250  0.48607100  1
  F  F66  1  0.25564900  0.32281700  0.70461600  1
  F  F67  1  0.24435100  0.82281700  0.79538400  1
  F  F68  1  0.25564900  0.67718300  0.20461600  1
  F  F69  1  0.24435100  0.17718300  0.29538400  1
  F  F70  1  0.16558150  0.00711750  0.51392900  1
  F  F71  1  0.16558150  0.99288250  0.01392900  1
  F  F72  1  0.16793850  0.49802550  0.97139700  1
  F  F73  1  0.16793850  0.50197450  0.47139700  1
  F  F74  1  0.08703250  0.41265550  0.71984400  1
  F  F75  1  0.07602500  0.92872200  0.76381800  1
  F  F76  1  0.01740600  0.24108000  0.96342200  1
  F  F77  1  0.08703250  0.58734450  0.21984400  1
  F  F78  1  0.07602500  0.07127800  0.26381800  1
  F  F79  1  0.01740600  0.75892000  0.46342200  1
