# generated using pymatgen
data_Li5CuF6
_symmetry_space_group_name_H-M   'P 1'
_cell_length_a   15.04263800
_cell_length_b   8.75561200
_cell_length_c   5.07502895
_cell_angle_alpha   90.00000000
_cell_angle_beta   95.77552740
_cell_angle_gamma   90.00000000
_symmetry_Int_Tables_number   1
_chemical_formula_structural   Li5CuF6
_chemical_formula_sum   'Li30 Cu6 F36'
_cell_volume   665.02634241
_cell_formula_units_Z   6
loop_
 _symmetry_equiv_pos_site_id
 _symmetry_equiv_pos_as_xyz
  1  'x, y, z'
loop_
 _atom_site_type_symbol
 _atom_site_label
 _atom_site_symmetry_multiplicity
 _atom_site_fract_x
 _atom_site_fract_y
 _atom_site_fract_z
 _atom_site_occupancy
  Li  Li0  1  0.16968100  0.16623500  0.06457500  1
  Li  Li1  1  0.16982300  0.00000000  0.56804200  1
  Li  Li2  1  0.16968100  0.83376500  0.06457500  1
  Li  Li3  1  0.33274600  0.16570400  0.44215100  1
  Li  Li4  1  0.33274600  0.83429600  0.44215100  1
  Li  Li5  1  0.50000000  0.33328700  0.00000000  1
  Li  Li6  1  0.50000000  0.16694400  0.50000000  1
  Li  Li7  1  0.50000000  0.00000000  0.00000000  1
  Li  Li8  1  0.50000000  0.83305600  0.50000000  1
  Li  Li9  1  0.50000000  0.66671300  0.00000000  1
  Li  Li10  1  0.66725400  0.16570400  0.55784900  1
  Li  Li11  1  0.66725400  0.83429600  0.55784900  1
  Li  Li12  1  0.83031900  0.16623500  0.93542500  1
  Li  Li13  1  0.83017700  0.00000000  0.43195800  1
  Li  Li14  1  0.83031900  0.83376500  0.93542500  1
  Li  Li15  1  0.66968100  0.66623500  0.06457500  1
  Li  Li16  1  0.66982300  0.50000000  0.56804200  1
  Li  Li17  1  0.66968100  0.33376500  0.06457500  1
  Li  Li18  1  0.83274600  0.66570400  0.44215100  1
  Li  Li19  1  0.83274600  0.33429600  0.44215100  1
  Li  Li20  1  0.00000000  0.83328700  0.00000000  1
  Li  Li21  1  0.00000000  0.66694400  0.50000000  1
  Li  Li22  1  0.00000000  0.50000000  0.00000000  1
  Li  Li23  1  0.00000000  0.33305600  0.50000000  1
  Li  Li24  1  0.00000000  0.16671300  0.00000000  1
  Li  Li25  1  0.16725400  0.66570400  0.55784900  1
  Li  Li26  1  0.16725400  0.33429600  0.55784900  1
  Li  Li27  1  0.33031900  0.66623500  0.93542500  1
  Li  Li28  1  0.33017700  0.50000000  0.43195800  1
  Li  Li29  1  0.33031900  0.33376500  0.93542500  1
  Cu  Cu30  1  0.00000000  0.00000000  0.50000000  1
  Cu  Cu31  1  0.33195700  0.00000000  0.94218100  1
  Cu  Cu32  1  0.66804300  0.00000000  0.05781900  1
  Cu  Cu33  1  0.50000000  0.50000000  0.50000000  1
  Cu  Cu34  1  0.83195700  0.50000000  0.94218100  1
  Cu  Cu35  1  0.16804300  0.50000000  0.05781900  1
  F  F36  1  0.08982300  0.00000000  0.88840700  1
  F  F37  1  0.24274550  0.17631150  0.74876500  1
  F  F38  1  0.24828300  0.00000000  0.27565100  1
  F  F39  1  0.24274550  0.82368850  0.74876500  1
  F  F40  1  0.41052050  0.32395050  0.64357100  1
  F  F41  1  0.42323350  0.17393850  0.15009600  1
  F  F42  1  0.41788100  0.00000000  0.62079800  1
  F  F43  1  0.58947950  0.32395050  0.35642900  1
  F  F44  1  0.42323350  0.82606150  0.15009600  1
  F  F45  1  0.57676650  0.17393850  0.84990400  1
  F  F46  1  0.41052050  0.67604950  0.64357100  1
  F  F47  1  0.58211900  0.00000000  0.37920200  1
  F  F48  1  0.57676650  0.82606150  0.84990400  1
  F  F49  1  0.58947950  0.67604950  0.35642900  1
  F  F50  1  0.75725450  0.17631150  0.25123500  1
  F  F51  1  0.75171700  0.00000000  0.72434900  1
  F  F52  1  0.75725450  0.82368850  0.25123500  1
  F  F53  1  0.91017700  0.00000000  0.11159300  1
  F  F54  1  0.58982300  0.50000000  0.88840700  1
  F  F55  1  0.74274550  0.67631150  0.74876500  1
  F  F56  1  0.74828300  0.50000000  0.27565100  1
  F  F57  1  0.74274550  0.32368850  0.74876500  1
  F  F58  1  0.91052050  0.82395050  0.64357100  1
  F  F59  1  0.92323350  0.67393850  0.15009600  1
  F  F60  1  0.91788100  0.50000000  0.62079800  1
  F  F61  1  0.08947950  0.82395050  0.35642900  1
  F  F62  1  0.92323350  0.32606150  0.15009600  1
  F  F63  1  0.07676650  0.67393850  0.84990400  1
  F  F64  1  0.91052050  0.17604950  0.64357100  1
  F  F65  1  0.08211900  0.50000000  0.37920200  1
  F  F66  1  0.07676650  0.32606150  0.84990400  1
  F  F67  1  0.08947950  0.17604950  0.35642900  1
  F  F68  1  0.25725450  0.67631150  0.25123500  1
  F  F69  1  0.25171700  0.50000000  0.72434900  1
  F  F70  1  0.25725450  0.32368850  0.25123500  1
  F  F71  1  0.41017700  0.50000000  0.11159300  1
