# generated using pymatgen
data_Na5H7(Se2O9)2
_symmetry_space_group_name_H-M   'P 1'
_cell_length_a   6.12147100
_cell_length_b   7.37897619
_cell_length_c   10.09850180
_cell_angle_alpha   102.19120668
_cell_angle_beta   99.60586084
_cell_angle_gamma   100.74783904
_symmetry_Int_Tables_number   1
_chemical_formula_structural   Na5H7(Se2O9)2
_chemical_formula_sum   'Na5 H7 Se4 O18'
_cell_volume   427.82006792
_cell_formula_units_Z   1
loop_
 _symmetry_equiv_pos_site_id
 _symmetry_equiv_pos_as_xyz
  1  'x, y, z'
loop_
 _atom_site_type_symbol
 _atom_site_label
 _atom_site_symmetry_multiplicity
 _atom_site_fract_x
 _atom_site_fract_y
 _atom_site_fract_z
 _atom_site_occupancy
  Na  Na0  1  0.00000000  0.00000000  0.00000000  1
  Na  Na1  1  0.13353900  0.17069800  0.39638000  1
  Na  Na2  1  0.86646100  0.82930200  0.60362000  1
  Na  Na3  1  0.64607400  0.74364800  0.19526800  1
  Na  Na4  1  0.35392600  0.25635200  0.80473200  1
  H  H5  1  0.50000000  0.00000000  0.50000000  1
  H  H6  1  0.27176500  0.55676900  0.61875500  1
  H  H7  1  0.72823500  0.44323100  0.38124500  1
  H  H8  1  0.97611100  0.33956700  0.90436000  1
  H  H9  1  0.02388900  0.66043300  0.09564000  1
  H  H10  1  0.15990700  0.40086500  0.04507900  1
  H  H11  1  0.84009300  0.59913500  0.95492100  1
  Se  Se12  1  0.24642900  0.69085400  0.37332600  1
  Se  Se13  1  0.75357100  0.30914600  0.62667400  1
  Se  Se14  1  0.41210400  0.79697700  0.82351900  1
  Se  Se15  1  0.58789600  0.20302300  0.17648100  1
  O  O16  1  0.51299000  0.83970300  0.44434000  1
  O  O17  1  0.48701000  0.16029700  0.55566000  1
  O  O18  1  0.05423600  0.82030300  0.39656300  1
  O  O19  1  0.94576400  0.17969700  0.60343700  1
  O  O20  1  0.22344200  0.51473000  0.45337700  1
  O  O21  1  0.77655800  0.48527000  0.54662300  1
  O  O22  1  0.24969400  0.61081000  0.20703000  1
  O  O23  1  0.75030600  0.38919000  0.79297000  1
  O  O24  1  0.30295700  0.55871800  0.72173800  1
  O  O25  1  0.69704300  0.44128200  0.27826200  1
  O  O26  1  0.22205200  0.91724300  0.77339700  1
  O  O27  1  0.77794800  0.08275700  0.22660300  1
  O  O28  1  0.41485900  0.77075000  0.98057400  1
  O  O29  1  0.58514100  0.22925000  0.01942600  1
  O  O30  1  0.66662100  0.87607500  0.79411200  1
  O  O31  1  0.33337900  0.12392500  0.20588800  1
  O  O32  1  0.10771600  0.30521900  0.95600700  1
  O  O33  1  0.89228400  0.69478100  0.04399300  1
