# generated using pymatgen
data_Na(FeO2)2
_symmetry_space_group_name_H-M   'P 1'
_cell_length_a   6.05201000
_cell_length_b   6.18865600
_cell_length_c   8.63312200
_cell_angle_alpha   90.00000000
_cell_angle_beta   90.00000000
_cell_angle_gamma   90.00000000
_symmetry_Int_Tables_number   1
_chemical_formula_structural   Na(FeO2)2
_chemical_formula_sum   'Na4 Fe8 O16'
_cell_volume   323.34329382
_cell_formula_units_Z   4
loop_
 _symmetry_equiv_pos_site_id
 _symmetry_equiv_pos_as_xyz
  1  'x, y, z'
loop_
 _atom_site_type_symbol
 _atom_site_label
 _atom_site_symmetry_multiplicity
 _atom_site_fract_x
 _atom_site_fract_y
 _atom_site_fract_z
 _atom_site_occupancy
  Na  Na0  1  0.50000000  0.25000000  0.62455800  1
  Na  Na1  1  0.50000000  0.75000000  0.37544200  1
  Na  Na2  1  0.00000000  0.75000000  0.12455800  1
  Na  Na3  1  0.00000000  0.25000000  0.87544200  1
  Fe  Fe4  1  0.50000000  0.00000000  0.00000000  1
  Fe  Fe5  1  0.75000000  0.25000000  0.25000000  1
  Fe  Fe6  1  0.00000000  0.00000000  0.50000000  1
  Fe  Fe7  1  0.25000000  0.25000000  0.25000000  1
  Fe  Fe8  1  0.00000000  0.50000000  0.50000000  1
  Fe  Fe9  1  0.25000000  0.75000000  0.75000000  1
  Fe  Fe10  1  0.50000000  0.50000000  0.00000000  1
  Fe  Fe11  1  0.75000000  0.75000000  0.75000000  1
  O  O12  1  0.78019900  0.25000000  0.47214700  1
  O  O13  1  0.50000000  0.95381900  0.76220300  1
  O  O14  1  0.21980100  0.25000000  0.47214700  1
  O  O15  1  0.00000000  0.04618100  0.26220300  1
  O  O16  1  0.00000000  0.95381900  0.73779700  1
  O  O17  1  0.78019900  0.75000000  0.52785300  1
  O  O18  1  0.21980100  0.75000000  0.52785300  1
  O  O19  1  0.50000000  0.04618100  0.23779700  1
  O  O20  1  0.28019900  0.75000000  0.97214700  1
  O  O21  1  0.00000000  0.45381900  0.26220300  1
  O  O22  1  0.71980100  0.75000000  0.97214700  1
  O  O23  1  0.50000000  0.54618100  0.76220300  1
  O  O24  1  0.50000000  0.45381900  0.23779700  1
  O  O25  1  0.28019900  0.25000000  0.02785300  1
  O  O26  1  0.71980100  0.25000000  0.02785300  1
  O  O27  1  0.00000000  0.54618100  0.73779700  1
