# generated using pymatgen
data_K2Cr2AsHO10
_symmetry_space_group_name_H-M   'P 1'
_cell_length_a   7.84414625
_cell_length_b   7.84414625
_cell_length_c   14.74552900
_cell_angle_alpha   90.00000000
_cell_angle_beta   90.00000000
_cell_angle_gamma   120.00000000
_symmetry_Int_Tables_number   1
_chemical_formula_structural   K2Cr2AsHO10
_chemical_formula_sum   'K6 Cr6 As3 H3 O30'
_cell_volume   785.74631737
_cell_formula_units_Z   3
loop_
 _symmetry_equiv_pos_site_id
 _symmetry_equiv_pos_as_xyz
  1  'x, y, z'
loop_
 _atom_site_type_symbol
 _atom_site_label
 _atom_site_symmetry_multiplicity
 _atom_site_fract_x
 _atom_site_fract_y
 _atom_site_fract_z
 _atom_site_occupancy
  K  K0  1  0.35403400  0.23341500  0.67996000  1
  K  K1  1  0.87938100  0.64596600  0.01329333  1
  K  K2  1  0.76658500  0.12061900  0.34662667  1
  K  K3  1  0.72986300  0.05745000  0.85224800  1
  K  K4  1  0.32758700  0.27013700  0.18558133  1
  K  K5  1  0.94255000  0.67241300  0.51891467  1
  Cr  Cr6  1  0.91320900  0.66403200  0.76382800  1
  Cr  Cr7  1  0.75082300  0.08679100  0.09716133  1
  Cr  Cr8  1  0.33596800  0.24917700  0.43049467  1
  Cr  Cr9  1  0.32818700  0.23799700  0.94042800  1
  Cr  Cr10  1  0.90981000  0.67181300  0.27376133  1
  Cr  Cr11  1  0.76200300  0.09019000  0.60709467  1
  As  As12  1  0.22934400  0.54219500  0.83553700  1
  As  As13  1  0.31285100  0.77065600  0.16887033  1
  As  As14  1  0.45780500  0.68714900  0.50220367  1
  H  H15  1  0.29665800  0.63229300  0.64389300  1
  H  H16  1  0.33563500  0.70334200  0.97722633  1
  H  H17  1  0.36770700  0.66436500  0.31055967  1
  O  O18  1  0.74744500  0.52346200  0.68998100  1
  O  O19  1  0.77601700  0.25255500  0.02331433  1
  O  O20  1  0.47653800  0.22398300  0.35664767  1
  O  O21  1  0.82363300  0.75751600  0.83507500  1
  O  O22  1  0.93388300  0.17636700  0.16840833  1
  O  O23  1  0.24248400  0.06611700  0.50174167  1
  O  O24  1  0.10079300  0.83547800  0.71027500  1
  O  O25  1  0.73468500  0.89920700  0.04360833  1
  O  O26  1  0.16452200  0.26531500  0.37694167  1
  O  O27  1  0.99371300  0.51643400  0.83139700  1
  O  O28  1  0.52272100  0.00628700  0.16473033  1
  O  O29  1  0.48356600  0.47727900  0.49806367  1
  O  O30  1  0.34230600  0.58044400  0.73579800  1
  O  O31  1  0.23813800  0.65769400  0.06913133  1
  O  O32  1  0.41955600  0.76186200  0.40246467  1
  O  O33  1  0.37991200  0.73012300  0.90967200  1
  O  O34  1  0.35021100  0.62008800  0.24300533  1
  O  O35  1  0.26987700  0.64978900  0.57633867  1
  O  O36  1  0.16603500  0.31157900  0.88141500  1
  O  O37  1  0.14554400  0.83396500  0.21474833  1
  O  O38  1  0.68842100  0.85445600  0.54808167  1
  O  O39  1  0.18921000  0.04100300  0.99915900  1
  O  O40  1  0.85179300  0.81079000  0.33249233  1
  O  O41  1  0.95899700  0.14820700  0.66582567  1
  O  O42  1  0.45638000  0.19874600  0.86496600  1
  O  O43  1  0.74236600  0.54362000  0.19829933  1
  O  O44  1  0.80125400  0.25763400  0.53163267  1
  O  O45  1  0.47291300  0.41459900  0.00849800  1
  O  O46  1  0.94168600  0.52708700  0.34183133  1
  O  O47  1  0.58540100  0.05831400  0.67516467  1
