# generated using pymatgen
data_Li4Mn(OF)2
_symmetry_space_group_name_H-M   'P 1'
_cell_length_a   7.10839500
_cell_length_b   8.27292200
_cell_length_c   6.69038500
_cell_angle_alpha   90.00000000
_cell_angle_beta   90.00000000
_cell_angle_gamma   90.00000000
_symmetry_Int_Tables_number   1
_chemical_formula_structural   Li4Mn(OF)2
_chemical_formula_sum   'Li16 Mn4 O8 F8'
_cell_volume   393.44279124
_cell_formula_units_Z   4
loop_
 _symmetry_equiv_pos_site_id
 _symmetry_equiv_pos_as_xyz
  1  'x, y, z'
loop_
 _atom_site_type_symbol
 _atom_site_label
 _atom_site_symmetry_multiplicity
 _atom_site_fract_x
 _atom_site_fract_y
 _atom_site_fract_z
 _atom_site_occupancy
  Li  Li0  1  0.50000000  0.66771300  0.00000000  1
  Li  Li1  1  0.50000000  0.66771300  0.50000000  1
  Li  Li2  1  0.50000000  0.33228700  0.50000000  1
  Li  Li3  1  0.50000000  0.33228700  0.00000000  1
  Li  Li4  1  0.73764125  0.84233400  0.75000000  1
  Li  Li5  1  0.26235875  0.84233400  0.25000000  1
  Li  Li6  1  0.26235875  0.15766600  0.25000000  1
  Li  Li7  1  0.73764125  0.15766600  0.75000000  1
  Li  Li8  1  0.00000000  0.16771300  0.00000000  1
  Li  Li9  1  0.00000000  0.16771300  0.50000000  1
  Li  Li10  1  0.00000000  0.83228700  0.50000000  1
  Li  Li11  1  0.00000000  0.83228700  0.00000000  1
  Li  Li12  1  0.23764125  0.34233400  0.75000000  1
  Li  Li13  1  0.76235875  0.34233400  0.25000000  1
  Li  Li14  1  0.76235875  0.65766600  0.25000000  1
  Li  Li15  1  0.23764125  0.65766600  0.75000000  1
  Mn  Mn16  1  0.62441125  0.00000000  0.25000000  1
  Mn  Mn17  1  0.37558875  0.00000000  0.75000000  1
  Mn  Mn18  1  0.12441125  0.50000000  0.25000000  1
  Mn  Mn19  1  0.87558875  0.50000000  0.75000000  1
  O  O20  1  0.47535225  0.77702850  0.75000000  1
  O  O21  1  0.52464775  0.77702850  0.25000000  1
  O  O22  1  0.52464775  0.22297150  0.25000000  1
  O  O23  1  0.47535225  0.22297150  0.75000000  1
  O  O24  1  0.97535225  0.27702850  0.75000000  1
  O  O25  1  0.02464775  0.27702850  0.25000000  1
  O  O26  1  0.02464775  0.72297150  0.25000000  1
  O  O27  1  0.97535225  0.72297150  0.75000000  1
  F  F28  1  0.79851775  0.00000000  0.52800375  1
  F  F29  1  0.20148225  0.00000000  0.02800375  1
  F  F30  1  0.79851775  0.00000000  0.97199625  1
  F  F31  1  0.20148225  0.00000000  0.47199625  1
  F  F32  1  0.29851775  0.50000000  0.52800375  1
  F  F33  1  0.70148225  0.50000000  0.02800375  1
  F  F34  1  0.29851775  0.50000000  0.97199625  1
  F  F35  1  0.70148225  0.50000000  0.47199625  1
