# generated using pymatgen
data_Ca3Ta2O8
_symmetry_space_group_name_H-M   'P 1'
_cell_length_a   6.86150000
_cell_length_b   12.72605000
_cell_length_c   9.30732200
_cell_angle_alpha   90.00000000
_cell_angle_beta   90.00000000
_cell_angle_gamma   90.00000000
_symmetry_Int_Tables_number   1
_chemical_formula_structural   Ca3Ta2O8
_chemical_formula_sum   'Ca12 Ta8 O32'
_cell_volume   812.71342182
_cell_formula_units_Z   4
loop_
 _symmetry_equiv_pos_site_id
 _symmetry_equiv_pos_as_xyz
  1  'x, y, z'
loop_
 _atom_site_type_symbol
 _atom_site_label
 _atom_site_symmetry_multiplicity
 _atom_site_fract_x
 _atom_site_fract_y
 _atom_site_fract_z
 _atom_site_occupancy
  Ca  Ca0  1  0.75000000  0.85940900  0.25000000  1
  Ca  Ca1  1  0.00000000  0.50000000  0.50000000  1
  Ca  Ca2  1  0.25000000  0.64059100  0.75000000  1
  Ca  Ca3  1  0.25000000  0.85940900  0.25000000  1
  Ca  Ca4  1  0.50000000  0.50000000  0.00000000  1
  Ca  Ca5  1  0.75000000  0.64059100  0.75000000  1
  Ca  Ca6  1  0.25000000  0.35940900  0.25000000  1
  Ca  Ca7  1  0.50000000  0.00000000  0.50000000  1
  Ca  Ca8  1  0.75000000  0.14059100  0.75000000  1
  Ca  Ca9  1  0.75000000  0.35940900  0.25000000  1
  Ca  Ca10  1  0.00000000  0.00000000  0.00000000  1
  Ca  Ca11  1  0.25000000  0.14059100  0.75000000  1
  Ta  Ta12  1  0.00000000  0.88367300  0.61826100  1
  Ta  Ta13  1  0.00000000  0.61632700  0.11826100  1
  Ta  Ta14  1  0.50000000  0.61632700  0.38173900  1
  Ta  Ta15  1  0.50000000  0.88367300  0.88173900  1
  Ta  Ta16  1  0.50000000  0.38367300  0.61826100  1
  Ta  Ta17  1  0.50000000  0.11632700  0.11826100  1
  Ta  Ta18  1  0.00000000  0.11632700  0.38173900  1
  Ta  Ta19  1  0.00000000  0.38367300  0.88173900  1
  O  O20  1  0.72126600  0.88515800  0.99789700  1
  O  O21  1  0.77873400  0.88515800  0.50210300  1
  O  O22  1  0.00000000  0.99941200  0.25163000  1
  O  O23  1  0.00000000  0.50058800  0.75163000  1
  O  O24  1  0.00000000  0.75713200  0.72111100  1
  O  O25  1  0.00000000  0.74286800  0.22111100  1
  O  O26  1  0.22126600  0.61484200  0.00210300  1
  O  O27  1  0.22126600  0.88515800  0.50210300  1
  O  O28  1  0.27873400  0.61484200  0.49789700  1
  O  O29  1  0.27873400  0.88515800  0.99789700  1
  O  O30  1  0.50000000  0.50058800  0.74837000  1
  O  O31  1  0.50000000  0.74286800  0.27888900  1
  O  O32  1  0.50000000  0.75713200  0.77888900  1
  O  O33  1  0.50000000  0.99941200  0.24837000  1
  O  O34  1  0.72126600  0.61484200  0.49789700  1
  O  O35  1  0.77873400  0.61484200  0.00210300  1
  O  O36  1  0.22126600  0.38515800  0.99789700  1
  O  O37  1  0.27873400  0.38515800  0.50210300  1
  O  O38  1  0.50000000  0.49941200  0.25163000  1
  O  O39  1  0.50000000  0.00058800  0.75163000  1
  O  O40  1  0.50000000  0.25713200  0.72111100  1
  O  O41  1  0.50000000  0.24286800  0.22111100  1
  O  O42  1  0.72126600  0.11484200  0.00210300  1
  O  O43  1  0.72126600  0.38515800  0.50210300  1
  O  O44  1  0.77873400  0.11484200  0.49789700  1
  O  O45  1  0.77873400  0.38515800  0.99789700  1
  O  O46  1  0.00000000  0.00058800  0.74837000  1
  O  O47  1  0.00000000  0.24286800  0.27888900  1
  O  O48  1  0.00000000  0.25713200  0.77888900  1
  O  O49  1  0.00000000  0.49941200  0.24837000  1
  O  O50  1  0.22126600  0.11484200  0.49789700  1
  O  O51  1  0.27873400  0.11484200  0.00210300  1
