# generated using pymatgen
data_Li3V2(O2F)2
_symmetry_space_group_name_H-M   'P 1'
_cell_length_a   5.22268690
_cell_length_b   5.88502389
_cell_length_c   7.32244131
_cell_angle_alpha   90.00000000
_cell_angle_beta   91.48635811
_cell_angle_gamma   90.00000000
_symmetry_Int_Tables_number   1
_chemical_formula_structural   Li3V2(O2F)2
_chemical_formula_sum   'Li6 V4 O8 F4'
_cell_volume   224.98417360
_cell_formula_units_Z   2
loop_
 _symmetry_equiv_pos_site_id
 _symmetry_equiv_pos_as_xyz
  1  'x, y, z'
loop_
 _atom_site_type_symbol
 _atom_site_label
 _atom_site_symmetry_multiplicity
 _atom_site_fract_x
 _atom_site_fract_y
 _atom_site_fract_z
 _atom_site_occupancy
  Li  Li0  1  0.14091650  0.75000000  0.63131050  1
  Li  Li1  1  0.85908350  0.25000000  0.36868950  1
  Li  Li2  1  0.68365650  0.99888200  0.63035050  1
  Li  Li3  1  0.31634350  0.00111800  0.36964950  1
  Li  Li4  1  0.68365650  0.50111800  0.63035050  1
  Li  Li5  1  0.31634350  0.49888200  0.36964950  1
  V  V6  1  0.00000000  0.00000000  0.00000000  1
  V  V7  1  0.00000000  0.50000000  0.00000000  1
  V  V8  1  0.50786050  0.75000000  0.00890450  1
  V  V9  1  0.49213950  0.25000000  0.99109550  1
  O  O10  1  0.18350650  0.75000000  0.14202850  1
  O  O11  1  0.81649350  0.25000000  0.85797150  1
  O  O12  1  0.82729150  0.75000000  0.85172550  1
  O  O13  1  0.17270850  0.25000000  0.14827450  1
  O  O14  1  0.65436450  0.99656100  0.14094750  1
  O  O15  1  0.34563550  0.00343900  0.85905250  1
  O  O16  1  0.65436450  0.50343900  0.14094750  1
  O  O17  1  0.34563550  0.49656100  0.85905250  1
  F  F18  1  0.00000000  0.00000000  0.50000000  1
  F  F19  1  0.00000000  0.50000000  0.50000000  1
  F  F20  1  0.47059550  0.75000000  0.51510850  1
  F  F21  1  0.52940450  0.25000000  0.48489150  1
