# generated using pymatgen
data_Ca13Si10H12(O17F5)2
_symmetry_space_group_name_H-M   'P 1'
_cell_length_a   9.44115369
_cell_length_b   9.44115369
_cell_length_c   37.10835466
_cell_angle_alpha   90.00000000
_cell_angle_beta   90.00000000
_cell_angle_gamma   120.00000000
_symmetry_Int_Tables_number   1
_chemical_formula_structural   Ca13Si10H12(O17F5)2
_chemical_formula_sum   'Ca39 Si30 H36 O102 F30'
_cell_volume   2864.52399865
_cell_formula_units_Z   3
loop_
 _symmetry_equiv_pos_site_id
 _symmetry_equiv_pos_as_xyz
  1  'x, y, z'
loop_
 _atom_site_type_symbol
 _atom_site_label
 _atom_site_symmetry_multiplicity
 _atom_site_fract_x
 _atom_site_fract_y
 _atom_site_fract_z
 _atom_site_occupancy
  Ca  Ca0  1  0.00000000  0.00000000  0.00000000  1
  Ca  Ca1  1  0.09960667  0.48306733  0.32023533  1
  Ca  Ca2  1  0.51693267  0.61653933  0.32023533  1
  Ca  Ca3  1  0.38346067  0.90039333  0.32023533  1
  Ca  Ca4  1  0.56706000  0.85026600  0.01309800  1
  Ca  Ca5  1  0.14973400  0.71679400  0.01309800  1
  Ca  Ca6  1  0.28320600  0.43294000  0.01309800  1
  Ca  Ca7  1  0.13268967  0.69523733  0.23828933  1
  Ca  Ca8  1  0.30476267  0.43745233  0.23828933  1
  Ca  Ca9  1  0.56254767  0.86731033  0.23828933  1
  Ca  Ca10  1  0.53397700  0.63809600  0.09504400  1
  Ca  Ca11  1  0.36190400  0.89588100  0.09504400  1
  Ca  Ca12  1  0.10411900  0.46602300  0.09504400  1
  Ca  Ca13  1  0.66666667  0.33333333  0.33333333  1
  Ca  Ca14  1  0.76627333  0.81640067  0.65356867  1
  Ca  Ca15  1  0.18359933  0.94987267  0.65356867  1
  Ca  Ca16  1  0.05012733  0.23372667  0.65356867  1
  Ca  Ca17  1  0.23372667  0.18359933  0.34643133  1
  Ca  Ca18  1  0.81640067  0.05012733  0.34643133  1
  Ca  Ca19  1  0.94987267  0.76627333  0.34643133  1
  Ca  Ca20  1  0.79935633  0.02857067  0.57162267  1
  Ca  Ca21  1  0.97142933  0.77078567  0.57162267  1
  Ca  Ca22  1  0.22921433  0.20064367  0.57162267  1
  Ca  Ca23  1  0.20064367  0.97142933  0.42837733  1
  Ca  Ca24  1  0.02857067  0.22921433  0.42837733  1
  Ca  Ca25  1  0.77078567  0.79935633  0.42837733  1
  Ca  Ca26  1  0.33333333  0.66666667  0.66666667  1
  Ca  Ca27  1  0.43294000  0.14973400  0.98690200  1
  Ca  Ca28  1  0.85026600  0.28320600  0.98690200  1
  Ca  Ca29  1  0.71679400  0.56706000  0.98690200  1
  Ca  Ca30  1  0.90039333  0.51693267  0.67976467  1
  Ca  Ca31  1  0.48306733  0.38346067  0.67976467  1
  Ca  Ca32  1  0.61653933  0.09960667  0.67976467  1
  Ca  Ca33  1  0.46602300  0.36190400  0.90495600  1
  Ca  Ca34  1  0.63809600  0.10411900  0.90495600  1
  Ca  Ca35  1  0.89588100  0.53397700  0.90495600  1
  Ca  Ca36  1  0.86731033  0.30476267  0.76171067  1
  Ca  Ca37  1  0.69523733  0.56254767  0.76171067  1
  Ca  Ca38  1  0.43745233  0.13268967  0.76171067  1
  Si  Si39  1  0.66666667  0.33333333  0.21654733  1
  Si  Si40  1  0.00000000  0.00000000  0.11678600  1
  Si  Si41  1  0.88200733  0.24794467  0.26067467  1
  Si  Si42  1  0.75205533  0.63406267  0.26067467  1
  Si  Si43  1  0.36593733  0.11799267  0.26067467  1
  Si  Si44  1  0.78465933  0.08538867  0.07265867  1
  Si  Si45  1  0.91461133  0.69927067  0.07265867  1
  Si  Si46  1  0.30072933  0.21534067  0.07265867  1
  Si  Si47  1  0.00000000  0.00000000  0.26838700  1
  Si  Si48  1  0.66666667  0.33333333  0.06494633  1
  Si  Si49  1  0.33333333  0.66666667  0.54988067  1
  Si  Si50  1  0.66666667  0.33333333  0.45011933  1
  Si  Si51  1  0.54867400  0.58127800  0.59400800  1
  Si  Si52  1  0.41872200  0.96739600  0.59400800  1
  Si  Si53  1  0.03260400  0.45132600  0.59400800  1
  Si  Si54  1  0.45132600  0.41872200  0.40599200  1
  Si  Si55  1  0.58127800  0.03260400  0.40599200  1
  Si  Si56  1  0.96739600  0.54867400  0.40599200  1
  Si  Si57  1  0.66666667  0.33333333  0.60172033  1
  Si  Si58  1  0.33333333  0.66666667  0.39827967  1
  Si  Si59  1  0.00000000  0.00000000  0.88321400  1
  Si  Si60  1  0.33333333  0.66666667  0.78345267  1
  Si  Si61  1  0.21534067  0.91461133  0.92734133  1
  Si  Si62  1  0.08538867  0.30072933  0.92734133  1
  Si  Si63  1  0.69927067  0.78465933  0.92734133  1
  Si  Si64  1  0.11799267  0.75205533  0.73932533  1
  Si  Si65  1  0.24794467  0.36593733  0.73932533  1
  Si  Si66  1  0.63406267  0.88200733  0.73932533  1
  Si  Si67  1  0.33333333  0.66666667  0.93505367  1
  Si  Si68  1  0.00000000  0.00000000  0.73161300  1
  H  H69  1  0.07104867  0.70856433  0.16379433  1
  H  H70  1  0.29143567  0.36248433  0.16379433  1
  H  H71  1  0.63751567  0.92895133  0.16379433  1
  H  H72  1  0.59561800  0.62476900  0.16953900  1
  H  H73  1  0.37523100  0.97084900  0.16953900  1
  H  H74  1  0.02915100  0.40438200  0.16953900  1
  H  H75  1  0.06525467  0.87163733  0.17402633  1
  H  H76  1  0.12836267  0.19361733  0.17402633  1
  H  H77  1  0.80638267  0.93474533  0.17402633  1
  H  H78  1  0.60141200  0.46169600  0.15930700  1
  H  H79  1  0.53830400  0.13971600  0.15930700  1
  H  H80  1  0.86028400  0.39858800  0.15930700  1
  H  H81  1  0.73771533  0.04189767  0.49712767  1
  H  H82  1  0.95810233  0.69581767  0.49712767  1
  H  H83  1  0.30418233  0.26228467  0.49712767  1
  H  H84  1  0.26228467  0.95810233  0.50287233  1
  H  H85  1  0.04189767  0.30418233  0.50287233  1
  H  H86  1  0.69581767  0.73771533  0.50287233  1
  H  H87  1  0.73192133  0.20497067  0.50735967  1
  H  H88  1  0.79502933  0.52695067  0.50735967  1
  H  H89  1  0.47304933  0.26807867  0.50735967  1
  H  H90  1  0.26807867  0.79502933  0.49264033  1
  H  H91  1  0.20497067  0.47304933  0.49264033  1
  H  H92  1  0.52695067  0.73192133  0.49264033  1
  H  H93  1  0.40438200  0.37523100  0.83046100  1
  H  H94  1  0.62476900  0.02915100  0.83046100  1
  H  H95  1  0.97084900  0.59561800  0.83046100  1
  H  H96  1  0.92895133  0.29143567  0.83620567  1
  H  H97  1  0.70856433  0.63751567  0.83620567  1
  H  H98  1  0.36248433  0.07104867  0.83620567  1
  H  H99  1  0.39858800  0.53830400  0.84069300  1
  H  H100  1  0.46169600  0.86028400  0.84069300  1
  H  H101  1  0.13971600  0.60141200  0.84069300  1
  H  H102  1  0.93474533  0.12836267  0.82597367  1
  H  H103  1  0.87163733  0.80638267  0.82597367  1
  H  H104  1  0.19361733  0.06525467  0.82597367  1
  O  O105  1  0.66666667  0.33333333  0.17346333  1
  O  O106  1  0.00000000  0.00000000  0.15987000  1
  O  O107  1  0.79204433  0.51662567  0.23392067  1
  O  O108  1  0.48337433  0.27541867  0.23392067  1
  O  O109  1  0.72458133  0.20795567  0.23392067  1
  O  O110  1  0.87462233  0.81670767  0.09941267  1
  O  O111  1  0.18329233  0.05791467  0.09941267  1
  O  O112  1  0.94208533  0.12537767  0.09941267  1
  O  O113  1  0.92076467  0.81319433  0.25206433  1
  O  O114  1  0.18680567  0.10757033  0.25206433  1
  O  O115  1  0.89242967  0.07923533  0.25206433  1
  O  O116  1  0.74590200  0.52013900  0.08126900  1
  O  O117  1  0.47986100  0.22576300  0.08126900  1
  O  O118  1  0.77423700  0.25409800  0.08126900  1
  O  O119  1  0.04935067  0.41414833  0.25078433  1
  O  O120  1  0.58585167  0.63520233  0.25078433  1
  O  O121  1  0.36479767  0.95064933  0.25078433  1
  O  O122  1  0.61731600  0.91918500  0.08254900  1
  O  O123  1  0.08081500  0.69813100  0.08254900  1
  O  O124  1  0.30186900  0.38268400  0.08254900  1
  O  O125  1  0.00000000  0.00000000  0.31185800  1
  O  O126  1  0.66666667  0.33333333  0.02147533  1
  O  O127  1  0.74377700  0.58406500  0.30293300  1
  O  O128  1  0.41593500  0.15971200  0.30293300  1
  O  O129  1  0.84028800  0.25622300  0.30293300  1
  O  O130  1  0.92288967  0.74926833  0.03040033  1
  O  O131  1  0.25073167  0.17362133  0.03040033  1
  O  O132  1  0.82637867  0.07711033  0.03040033  1
  O  O133  1  0.11774600  0.80344900  0.18003000  1
  O  O134  1  0.19655100  0.31429700  0.18003000  1
  O  O135  1  0.68570300  0.88225400  0.18003000  1
  O  O136  1  0.54892067  0.52988433  0.15330333  1
  O  O137  1  0.47011567  0.01903633  0.15330333  1
  O  O138  1  0.98096367  0.45107933  0.15330333  1
  O  O139  1  0.33333333  0.66666667  0.50679667  1
  O  O140  1  0.66666667  0.33333333  0.49320333  1
  O  O141  1  0.45871100  0.84995900  0.56725400  1
  O  O142  1  0.15004100  0.60875200  0.56725400  1
  O  O143  1  0.39124800  0.54128900  0.56725400  1
  O  O144  1  0.54128900  0.15004100  0.43274600  1
  O  O145  1  0.84995900  0.39124800  0.43274600  1
  O  O146  1  0.60875200  0.45871100  0.43274600  1
  O  O147  1  0.58743133  0.14652767  0.58539767  1
  O  O148  1  0.85347233  0.44090367  0.58539767  1
  O  O149  1  0.55909633  0.41256867  0.58539767  1
  O  O150  1  0.41256867  0.85347233  0.41460233  1
  O  O151  1  0.14652767  0.55909633  0.41460233  1
  O  O152  1  0.44090367  0.58743133  0.41460233  1
  O  O153  1  0.71601733  0.74748167  0.58411767  1
  O  O154  1  0.25251833  0.96853567  0.58411767  1
  O  O155  1  0.03146433  0.28398267  0.58411767  1
  O  O156  1  0.28398267  0.25251833  0.41588233  1
  O  O157  1  0.74748167  0.03146433  0.41588233  1
  O  O158  1  0.96853567  0.71601733  0.41588233  1
  O  O159  1  0.66666667  0.33333333  0.64519133  1
  O  O160  1  0.33333333  0.66666667  0.35480867  1
  O  O161  1  0.41044367  0.91739833  0.63626633  1
  O  O162  1  0.08260167  0.49304533  0.63626633  1
  O  O163  1  0.50695467  0.58955633  0.63626633  1
  O  O164  1  0.58955633  0.08260167  0.36373367  1
  O  O165  1  0.91739833  0.50695467  0.36373367  1
  O  O166  1  0.49304533  0.41044367  0.36373367  1
  O  O167  1  0.78441267  0.13678233  0.51336333  1
  O  O168  1  0.86321767  0.64763033  0.51336333  1
  O  O169  1  0.35236967  0.21558733  0.51336333  1
  O  O170  1  0.21558733  0.86321767  0.48663667  1
  O  O171  1  0.13678233  0.35236967  0.48663667  1
  O  O172  1  0.64763033  0.78441267  0.48663667  1
  O  O173  1  0.00000000  0.00000000  0.84013000  1
  O  O174  1  0.33333333  0.66666667  0.82653667  1
  O  O175  1  0.12537767  0.18329233  0.90058733  1
  O  O176  1  0.81670767  0.94208533  0.90058733  1
  O  O177  1  0.05791467  0.87462233  0.90058733  1
  O  O178  1  0.20795567  0.48337433  0.76607933  1
  O  O179  1  0.51662567  0.72458133  0.76607933  1
  O  O180  1  0.27541867  0.79204433  0.76607933  1
  O  O181  1  0.25409800  0.47986100  0.91873100  1
  O  O182  1  0.52013900  0.77423700  0.91873100  1
  O  O183  1  0.22576300  0.74590200  0.91873100  1
  O  O184  1  0.07923533  0.18680567  0.74793567  1
  O  O185  1  0.81319433  0.89242967  0.74793567  1
  O  O186  1  0.10757033  0.92076467  0.74793567  1
  O  O187  1  0.38268400  0.08081500  0.91745100  1
  O  O188  1  0.91918500  0.30186900  0.91745100  1
  O  O189  1  0.69813100  0.61731600  0.91745100  1
  O  O190  1  0.95064933  0.58585167  0.74921567  1
  O  O191  1  0.41414833  0.36479767  0.74921567  1
  O  O192  1  0.63520233  0.04935067  0.74921567  1
  O  O193  1  0.33333333  0.66666667  0.97852467  1
  O  O194  1  0.00000000  0.00000000  0.68814200  1
  O  O195  1  0.07711033  0.25073167  0.96959967  1
  O  O196  1  0.74926833  0.82637867  0.96959967  1
  O  O197  1  0.17362133  0.92288967  0.96959967  1
  O  O198  1  0.25622300  0.41593500  0.69706700  1
  O  O199  1  0.58406500  0.84028800  0.69706700  1
  O  O200  1  0.15971200  0.74377700  0.69706700  1
  O  O201  1  0.45107933  0.47011567  0.84669667  1
  O  O202  1  0.52988433  0.98096367  0.84669667  1
  O  O203  1  0.01903633  0.54892067  0.84669667  1
  O  O204  1  0.88225400  0.19655100  0.81997000  1
  O  O205  1  0.80344900  0.68570300  0.81997000  1
  O  O206  1  0.31429700  0.11774600  0.81997000  1
  F  F207  1  0.10466367  0.72463033  0.30282833  1
  F  F208  1  0.27536967  0.38003333  0.30282833  1
  F  F209  1  0.61996667  0.89533633  0.30282833  1
  F  F210  1  0.56200300  0.60870300  0.03050500  1
  F  F211  1  0.39129700  0.95330000  0.03050500  1
  F  F212  1  0.04670000  0.43799700  0.03050500  1
  F  F213  1  0.33333333  0.66666667  0.28130567  1
  F  F214  1  0.33333333  0.66666667  0.05202767  1
  F  F215  1  0.33333333  0.66666667  0.21034967  1
  F  F216  1  0.33333333  0.66666667  0.12298367  1
  F  F217  1  0.77133033  0.05796367  0.63616167  1
  F  F218  1  0.94203633  0.71336667  0.63616167  1
  F  F219  1  0.28663333  0.22866967  0.63616167  1
  F  F220  1  0.22866967  0.94203633  0.36383833  1
  F  F221  1  0.05796367  0.28663333  0.36383833  1
  F  F222  1  0.71336667  0.77133033  0.36383833  1
  F  F223  1  0.00000000  0.00000000  0.61463900  1
  F  F224  1  0.00000000  0.00000000  0.38536100  1
  F  F225  1  0.00000000  0.00000000  0.54368300  1
  F  F226  1  0.00000000  0.00000000  0.45631700  1
  F  F227  1  0.43799700  0.39129700  0.96949500  1
  F  F228  1  0.60870300  0.04670000  0.96949500  1
  F  F229  1  0.95330000  0.56200300  0.96949500  1
  F  F230  1  0.89533633  0.27536967  0.69717167  1
  F  F231  1  0.72463033  0.61996667  0.69717167  1
  F  F232  1  0.38003333  0.10466367  0.69717167  1
  F  F233  1  0.66666667  0.33333333  0.94797233  1
  F  F234  1  0.66666667  0.33333333  0.71869433  1
  F  F235  1  0.66666667  0.33333333  0.87701633  1
  F  F236  1  0.66666667  0.33333333  0.78965033  1
