# generated using pymatgen
data_Li2Ti7Nb6O30
_symmetry_space_group_name_H-M   'P 1'
_cell_length_a   5.20402624
_cell_length_b   5.20402624
_cell_length_c   24.02098800
_cell_angle_alpha   90.00000000
_cell_angle_beta   90.00000000
_cell_angle_gamma   120.00000000
_symmetry_Int_Tables_number   1
_chemical_formula_structural   Li2Ti7Nb6O30
_chemical_formula_sum   'Li2 Ti7 Nb6 O30'
_cell_volume   563.37873993
_cell_formula_units_Z   1
loop_
 _symmetry_equiv_pos_site_id
 _symmetry_equiv_pos_as_xyz
  1  'x, y, z'
loop_
 _atom_site_type_symbol
 _atom_site_label
 _atom_site_symmetry_multiplicity
 _atom_site_fract_x
 _atom_site_fract_y
 _atom_site_fract_z
 _atom_site_occupancy
  Li  Li0  1  0.33333333  0.66666667  0.20771300  1
  Li  Li1  1  0.33333333  0.66666667  0.47486000  1
  Ti  Ti2  1  0.00000000  0.00000000  0.28601800  1
  Ti  Ti3  1  0.00000000  0.00000000  0.88446000  1
  Ti  Ti4  1  0.00000000  0.00000000  0.00553800  1
  Ti  Ti5  1  0.00000000  0.00000000  0.69695700  1
  Ti  Ti6  1  0.33333333  0.66666667  0.97829500  1
  Ti  Ti7  1  0.33333333  0.66666667  0.71843500  1
  Ti  Ti8  1  0.33333333  0.66666667  0.31456700  1
  Nb  Nb9  1  0.00000000  0.00000000  0.41298200  1
  Nb  Nb10  1  0.66666667  0.33333333  0.19784300  1
  Nb  Nb11  1  0.66666667  0.33333333  0.50536900  1
  Nb  Nb12  1  0.66666667  0.33333333  0.80400500  1
  Nb  Nb13  1  0.33333333  0.66666667  0.09942500  1
  Nb  Nb14  1  0.33333333  0.66666667  0.59786500  1
  O  O15  1  0.59153233  0.99569067  0.15347900  1
  O  O16  1  0.68743633  0.93173867  0.34687900  1
  O  O17  1  0.67038533  0.00370067  0.74652700  1
  O  O18  1  0.96759933  0.30391867  0.45086600  1
  O  O19  1  0.65080333  0.72795967  0.04592800  1
  O  O20  1  0.07715633  0.34919667  0.04592800  1
  O  O21  1  0.69608133  0.66368067  0.45086600  1
  O  O22  1  0.99629933  0.66668467  0.74652700  1
  O  O23  1  0.24430233  0.31256367  0.34687900  1
  O  O24  1  0.00430933  0.59584167  0.15347900  1
  O  O25  1  0.33331533  0.32961467  0.74652700  1
  O  O26  1  0.06826133  0.75569767  0.34687900  1
  O  O27  1  0.00707333  0.61137767  0.54807000  1
  O  O28  1  0.40415833  0.40846767  0.15347900  1
  O  O29  1  0.06101533  0.75179367  0.94783200  1
  O  O30  1  0.27204033  0.92284367  0.04592800  1
  O  O31  1  0.94457733  0.27705267  0.84555200  1
  O  O32  1  0.33631933  0.03240067  0.45086600  1
  O  O33  1  0.25436333  0.90822767  0.65505100  1
  O  O34  1  0.00631033  0.33933167  0.25298300  1
  O  O35  1  0.33247533  0.05542267  0.84555200  1
  O  O36  1  0.09177233  0.34613567  0.65505100  1
  O  O37  1  0.33302133  0.99368967  0.25298300  1
  O  O38  1  0.60430433  0.99292667  0.54807000  1
  O  O39  1  0.24820633  0.30922167  0.94783200  1
  O  O40  1  0.69077833  0.93898467  0.94783200  1
  O  O41  1  0.38862233  0.39569567  0.54807000  1
  O  O42  1  0.66066833  0.66697867  0.25298300  1
  O  O43  1  0.65386433  0.74563667  0.65505100  1
  O  O44  1  0.72294733  0.66752467  0.84555200  1
