# generated using pymatgen
data_La2Nb2N2O5
_symmetry_space_group_name_H-M   'P 1'
_cell_length_a   27.19123000
_cell_length_b   4.00768800
_cell_length_c   5.77335791
_cell_angle_alpha   90.00000000
_cell_angle_beta   90.86432866
_cell_angle_gamma   90.00000000
_symmetry_Int_Tables_number   1
_chemical_formula_structural   La2Nb2N2O5
_chemical_formula_sum   'La8 Nb8 N8 O20'
_cell_volume   629.07412352
_cell_formula_units_Z   4
loop_
 _symmetry_equiv_pos_site_id
 _symmetry_equiv_pos_as_xyz
  1  'x, y, z'
loop_
 _atom_site_type_symbol
 _atom_site_label
 _atom_site_symmetry_multiplicity
 _atom_site_fract_x
 _atom_site_fract_y
 _atom_site_fract_z
 _atom_site_occupancy
  La  La0  1  0.78489000  0.50000000  0.45773800  1
  La  La1  1  0.94609100  0.50000000  0.06368200  1
  La  La2  1  0.54990500  0.00000000  0.52701400  1
  La  La3  1  0.71006400  0.00000000  0.96232400  1
  La  La4  1  0.28489000  0.00000000  0.45773800  1
  La  La5  1  0.44609100  0.00000000  0.06368200  1
  La  La6  1  0.04990500  0.50000000  0.52701400  1
  La  La7  1  0.21006400  0.50000000  0.96232400  1
  Nb  Nb8  1  0.56139900  0.50000000  0.02055900  1
  Nb  Nb9  1  0.65554300  0.50000000  0.50582600  1
  Nb  Nb10  1  0.83696700  0.00000000  0.01084100  1
  Nb  Nb11  1  0.94033700  0.00000000  0.55429400  1
  Nb  Nb12  1  0.06139900  0.00000000  0.02055900  1
  Nb  Nb13  1  0.15554300  0.00000000  0.50582600  1
  Nb  Nb14  1  0.33696700  0.50000000  0.01084100  1
  Nb  Nb15  1  0.44033700  0.50000000  0.55429400  1
  N  N16  1  0.59285300  0.50000000  0.33652400  1
  N  N17  1  0.61507900  0.50000000  0.82300000  1
  N  N18  1  0.78240600  0.00000000  0.21566900  1
  N  N19  1  0.90983600  0.00000000  0.84365000  1
  N  N20  1  0.09285300  0.00000000  0.33652400  1
  N  N21  1  0.11507900  0.00000000  0.82300000  1
  N  N22  1  0.28240600  0.50000000  0.21566900  1
  N  N23  1  0.40983600  0.50000000  0.84365000  1
  O  O24  1  0.51290200  0.50000000  0.72217100  1
  O  O25  1  0.71947900  0.50000000  0.72948100  1
  O  O26  1  0.70343700  0.50000000  0.24690600  1
  O  O27  1  0.95612100  0.50000000  0.53692600  1
  O  O28  1  0.84999800  0.50000000  0.04615900  1
  O  O29  1  0.54352400  0.00000000  0.03537800  1
  O  O30  1  0.79677100  0.00000000  0.73514300  1
  O  O31  1  0.65561900  0.00000000  0.54181400  1
  O  O32  1  0.88831900  0.00000000  0.32923800  1
  O  O33  1  0.98844800  0.00000000  0.23482800  1
  O  O34  1  0.01290200  0.00000000  0.72217100  1
  O  O35  1  0.21947900  0.00000000  0.72948100  1
  O  O36  1  0.20343700  0.00000000  0.24690600  1
  O  O37  1  0.45612100  0.00000000  0.53692600  1
  O  O38  1  0.34999800  0.00000000  0.04615900  1
  O  O39  1  0.04352400  0.50000000  0.03537800  1
  O  O40  1  0.29677100  0.50000000  0.73514300  1
  O  O41  1  0.15561900  0.50000000  0.54181400  1
  O  O42  1  0.38831900  0.50000000  0.32923800  1
  O  O43  1  0.48844800  0.50000000  0.23482800  1
