# generated using pymatgen
data_Na4Sb2C4SO16
_symmetry_space_group_name_H-M   'P 1'
_cell_length_a   14.23498400
_cell_length_b   14.44959600
_cell_length_c   15.29169400
_cell_angle_alpha   90.00000000
_cell_angle_beta   90.00000000
_cell_angle_gamma   90.00000000
_symmetry_Int_Tables_number   1
_chemical_formula_structural   Na4Sb2C4SO16
_chemical_formula_sum   'Na32 Sb16 C32 S8 O128'
_cell_volume   3145.34498914
_cell_formula_units_Z   8
loop_
 _symmetry_equiv_pos_site_id
 _symmetry_equiv_pos_as_xyz
  1  'x, y, z'
loop_
 _atom_site_type_symbol
 _atom_site_label
 _atom_site_symmetry_multiplicity
 _atom_site_fract_x
 _atom_site_fract_y
 _atom_site_fract_z
 _atom_site_occupancy
  Na  Na0  1  0.75000000  0.45228800  0.25000000  1
  Na  Na1  1  0.54662700  0.25000000  0.25000000  1
  Na  Na2  1  0.29662700  0.00000000  0.00000000  1
  Na  Na3  1  0.50000000  0.20228800  0.00000000  1
  Na  Na4  1  0.75000000  0.04771200  0.25000000  1
  Na  Na5  1  0.95337300  0.25000000  0.25000000  1
  Na  Na6  1  0.70337300  0.00000000  0.00000000  1
  Na  Na7  1  0.50000000  0.79771200  0.00000000  1
  Na  Na8  1  0.75000000  0.95228800  0.75000000  1
  Na  Na9  1  0.54662700  0.75000000  0.75000000  1
  Na  Na10  1  0.29662700  0.50000000  0.50000000  1
  Na  Na11  1  0.50000000  0.70228800  0.50000000  1
  Na  Na12  1  0.75000000  0.54771200  0.75000000  1
  Na  Na13  1  0.95337300  0.75000000  0.75000000  1
  Na  Na14  1  0.70337300  0.50000000  0.50000000  1
  Na  Na15  1  0.50000000  0.29771200  0.50000000  1
  Na  Na16  1  0.25000000  0.45228800  0.75000000  1
  Na  Na17  1  0.04662700  0.25000000  0.75000000  1
  Na  Na18  1  0.79662700  0.00000000  0.50000000  1
  Na  Na19  1  0.00000000  0.20228800  0.50000000  1
  Na  Na20  1  0.25000000  0.04771200  0.75000000  1
  Na  Na21  1  0.45337300  0.25000000  0.75000000  1
  Na  Na22  1  0.20337300  0.00000000  0.50000000  1
  Na  Na23  1  0.00000000  0.79771200  0.50000000  1
  Na  Na24  1  0.25000000  0.95228800  0.25000000  1
  Na  Na25  1  0.04662700  0.75000000  0.25000000  1
  Na  Na26  1  0.79662700  0.50000000  0.00000000  1
  Na  Na27  1  0.00000000  0.70228800  0.00000000  1
  Na  Na28  1  0.25000000  0.54771200  0.25000000  1
  Na  Na29  1  0.45337300  0.75000000  0.25000000  1
  Na  Na30  1  0.20337300  0.50000000  0.00000000  1
  Na  Na31  1  0.00000000  0.29771200  0.00000000  1
  Sb  Sb32  1  0.87500000  0.62500000  0.37500000  1
  Sb  Sb33  1  0.62500000  0.87500000  0.37500000  1
  Sb  Sb34  1  0.62500000  0.62500000  0.12500000  1
  Sb  Sb35  1  0.87500000  0.87500000  0.12500000  1
  Sb  Sb36  1  0.87500000  0.12500000  0.87500000  1
  Sb  Sb37  1  0.62500000  0.37500000  0.87500000  1
  Sb  Sb38  1  0.62500000  0.12500000  0.62500000  1
  Sb  Sb39  1  0.87500000  0.37500000  0.62500000  1
  Sb  Sb40  1  0.37500000  0.62500000  0.87500000  1
  Sb  Sb41  1  0.12500000  0.87500000  0.87500000  1
  Sb  Sb42  1  0.12500000  0.62500000  0.62500000  1
  Sb  Sb43  1  0.37500000  0.87500000  0.62500000  1
  Sb  Sb44  1  0.37500000  0.12500000  0.37500000  1
  Sb  Sb45  1  0.12500000  0.37500000  0.37500000  1
  Sb  Sb46  1  0.12500000  0.12500000  0.12500000  1
  Sb  Sb47  1  0.37500000  0.37500000  0.12500000  1
  C  C48  1  0.59798200  0.40456500  0.08932700  1
  C  C49  1  0.34798200  0.15456500  0.16067300  1
  C  C50  1  0.90201800  0.40456500  0.41067300  1
  C  C51  1  0.59798200  0.09543500  0.41067300  1
  C  C52  1  0.15201800  0.15456500  0.33932700  1
  C  C53  1  0.84798200  0.84543500  0.33932700  1
  C  C54  1  0.90201800  0.09543500  0.08932700  1
  C  C55  1  0.65201800  0.84543500  0.16067300  1
  C  C56  1  0.59798200  0.90456500  0.58932700  1
  C  C57  1  0.34798200  0.65456500  0.66067300  1
  C  C58  1  0.90201800  0.90456500  0.91067300  1
  C  C59  1  0.59798200  0.59543500  0.91067300  1
  C  C60  1  0.15201800  0.65456500  0.83932700  1
  C  C61  1  0.84798200  0.34543500  0.83932700  1
  C  C62  1  0.90201800  0.59543500  0.58932700  1
  C  C63  1  0.65201800  0.34543500  0.66067300  1
  C  C64  1  0.09798200  0.40456500  0.58932700  1
  C  C65  1  0.84798200  0.15456500  0.66067300  1
  C  C66  1  0.40201800  0.40456500  0.91067300  1
  C  C67  1  0.09798200  0.09543500  0.91067300  1
  C  C68  1  0.65201800  0.15456500  0.83932700  1
  C  C69  1  0.34798200  0.84543500  0.83932700  1
  C  C70  1  0.40201800  0.09543500  0.58932700  1
  C  C71  1  0.15201800  0.84543500  0.66067300  1
  C  C72  1  0.09798200  0.90456500  0.08932700  1
  C  C73  1  0.84798200  0.65456500  0.16067300  1
  C  C74  1  0.40201800  0.90456500  0.41067300  1
  C  C75  1  0.09798200  0.59543500  0.41067300  1
  C  C76  1  0.65201800  0.65456500  0.33932700  1
  C  C77  1  0.34798200  0.34543500  0.33932700  1
  C  C78  1  0.40201800  0.59543500  0.08932700  1
  C  C79  1  0.15201800  0.34543500  0.16067300  1
  S  S80  1  0.50000000  0.00000000  0.00000000  1
  S  S81  1  0.75000000  0.25000000  0.25000000  1
  S  S82  1  0.50000000  0.50000000  0.50000000  1
  S  S83  1  0.75000000  0.75000000  0.75000000  1
  S  S84  1  0.00000000  0.00000000  0.50000000  1
  S  S85  1  0.25000000  0.25000000  0.75000000  1
  S  S86  1  0.00000000  0.50000000  0.00000000  1
  S  S87  1  0.25000000  0.75000000  0.25000000  1
  O  O88  1  0.10871900  0.96785800  0.14886200  1
  O  O89  1  0.43834450  0.93900950  0.05463000  1
  O  O90  1  0.15241100  0.90264300  0.02182900  1
  O  O91  1  0.40241100  0.15264300  0.22817100  1
  O  O92  1  0.34758900  0.90264300  0.47817100  1
  O  O93  1  0.28187550  0.09216400  0.15108250  1
  O  O94  1  0.06165550  0.93900950  0.44537000  1
  O  O95  1  0.56165550  0.06099050  0.05463000  1
  O  O96  1  0.78187550  0.90783600  0.34891750  1
  O  O97  1  0.65241100  0.09735700  0.47817100  1
  O  O98  1  0.35871900  0.21785800  0.10113800  1
  O  O99  1  0.93834450  0.06099050  0.44537000  1
  O  O100  1  0.39128100  0.96785800  0.35113800  1
  O  O101  1  0.60871900  0.03214200  0.35113800  1
  O  O102  1  0.53187550  0.34216400  0.09891750  1
  O  O103  1  0.21812450  0.09216400  0.34891750  1
  O  O104  1  0.03187550  0.65783600  0.40108250  1
  O  O105  1  0.71812450  0.90783600  0.15108250  1
  O  O106  1  0.14128100  0.21785800  0.39886200  1
  O  O107  1  0.85871900  0.78214200  0.39886200  1
  O  O108  1  0.81165550  0.18900950  0.30463000  1
  O  O109  1  0.89128100  0.03214200  0.14886200  1
  O  O110  1  0.09758900  0.15264300  0.27182900  1
  O  O111  1  0.96812450  0.34216400  0.40108250  1
  O  O112  1  0.68834450  0.18900950  0.19537000  1
  O  O113  1  0.68834450  0.31099050  0.30463000  1
  O  O114  1  0.46812450  0.65783600  0.09891750  1
  O  O115  1  0.90241100  0.84735700  0.27182900  1
  O  O116  1  0.84758900  0.09735700  0.02182900  1
  O  O117  1  0.59758900  0.84735700  0.22817100  1
  O  O118  1  0.81165550  0.31099050  0.19537000  1
  O  O119  1  0.64128100  0.78214200  0.10113800  1
  O  O120  1  0.10871900  0.46785800  0.64886200  1
  O  O121  1  0.43834450  0.43900950  0.55463000  1
  O  O122  1  0.15241100  0.40264300  0.52182900  1
  O  O123  1  0.40241100  0.65264300  0.72817100  1
  O  O124  1  0.34758900  0.40264300  0.97817100  1
  O  O125  1  0.28187550  0.59216400  0.65108250  1
  O  O126  1  0.06165550  0.43900950  0.94537000  1
  O  O127  1  0.56165550  0.56099050  0.55463000  1
  O  O128  1  0.78187550  0.40783600  0.84891750  1
  O  O129  1  0.65241100  0.59735700  0.97817100  1
  O  O130  1  0.35871900  0.71785800  0.60113800  1
  O  O131  1  0.93834450  0.56099050  0.94537000  1
  O  O132  1  0.39128100  0.46785800  0.85113800  1
  O  O133  1  0.60871900  0.53214200  0.85113800  1
  O  O134  1  0.53187550  0.84216400  0.59891750  1
  O  O135  1  0.21812450  0.59216400  0.84891750  1
  O  O136  1  0.03187550  0.15783600  0.90108250  1
  O  O137  1  0.71812450  0.40783600  0.65108250  1
  O  O138  1  0.14128100  0.71785800  0.89886200  1
  O  O139  1  0.85871900  0.28214200  0.89886200  1
  O  O140  1  0.81165550  0.68900950  0.80463000  1
  O  O141  1  0.89128100  0.53214200  0.64886200  1
  O  O142  1  0.09758900  0.65264300  0.77182900  1
  O  O143  1  0.96812450  0.84216400  0.90108250  1
  O  O144  1  0.68834450  0.68900950  0.69537000  1
  O  O145  1  0.68834450  0.81099050  0.80463000  1
  O  O146  1  0.46812450  0.15783600  0.59891750  1
  O  O147  1  0.90241100  0.34735700  0.77182900  1
  O  O148  1  0.84758900  0.59735700  0.52182900  1
  O  O149  1  0.59758900  0.34735700  0.72817100  1
  O  O150  1  0.81165550  0.81099050  0.69537000  1
  O  O151  1  0.64128100  0.28214200  0.60113800  1
  O  O152  1  0.60871900  0.96785800  0.64886200  1
  O  O153  1  0.93834450  0.93900950  0.55463000  1
  O  O154  1  0.65241100  0.90264300  0.52182900  1
  O  O155  1  0.90241100  0.15264300  0.72817100  1
  O  O156  1  0.84758900  0.90264300  0.97817100  1
  O  O157  1  0.78187550  0.09216400  0.65108250  1
  O  O158  1  0.56165550  0.93900950  0.94537000  1
  O  O159  1  0.06165550  0.06099050  0.55463000  1
  O  O160  1  0.28187550  0.90783600  0.84891750  1
  O  O161  1  0.15241100  0.09735700  0.97817100  1
  O  O162  1  0.85871900  0.21785800  0.60113800  1
  O  O163  1  0.43834450  0.06099050  0.94537000  1
  O  O164  1  0.89128100  0.96785800  0.85113800  1
  O  O165  1  0.10871900  0.03214200  0.85113800  1
  O  O166  1  0.03187550  0.34216400  0.59891750  1
  O  O167  1  0.71812450  0.09216400  0.84891750  1
  O  O168  1  0.53187550  0.65783600  0.90108250  1
  O  O169  1  0.21812450  0.90783600  0.65108250  1
  O  O170  1  0.64128100  0.21785800  0.89886200  1
  O  O171  1  0.35871900  0.78214200  0.89886200  1
  O  O172  1  0.31165550  0.18900950  0.80463000  1
  O  O173  1  0.39128100  0.03214200  0.64886200  1
  O  O174  1  0.59758900  0.15264300  0.77182900  1
  O  O175  1  0.46812450  0.34216400  0.90108250  1
  O  O176  1  0.18834450  0.18900950  0.69537000  1
  O  O177  1  0.18834450  0.31099050  0.80463000  1
  O  O178  1  0.96812450  0.65783600  0.59891750  1
  O  O179  1  0.40241100  0.84735700  0.77182900  1
  O  O180  1  0.34758900  0.09735700  0.52182900  1
  O  O181  1  0.09758900  0.84735700  0.72817100  1
  O  O182  1  0.31165550  0.31099050  0.69537000  1
  O  O183  1  0.14128100  0.78214200  0.60113800  1
  O  O184  1  0.60871900  0.46785800  0.14886200  1
  O  O185  1  0.93834450  0.43900950  0.05463000  1
  O  O186  1  0.65241100  0.40264300  0.02182900  1
  O  O187  1  0.90241100  0.65264300  0.22817100  1
  O  O188  1  0.84758900  0.40264300  0.47817100  1
  O  O189  1  0.78187550  0.59216400  0.15108250  1
  O  O190  1  0.56165550  0.43900950  0.44537000  1
  O  O191  1  0.06165550  0.56099050  0.05463000  1
  O  O192  1  0.28187550  0.40783600  0.34891750  1
  O  O193  1  0.15241100  0.59735700  0.47817100  1
  O  O194  1  0.85871900  0.71785800  0.10113800  1
  O  O195  1  0.43834450  0.56099050  0.44537000  1
  O  O196  1  0.89128100  0.46785800  0.35113800  1
  O  O197  1  0.10871900  0.53214200  0.35113800  1
  O  O198  1  0.03187550  0.84216400  0.09891750  1
  O  O199  1  0.71812450  0.59216400  0.34891750  1
  O  O200  1  0.53187550  0.15783600  0.40108250  1
  O  O201  1  0.21812450  0.40783600  0.15108250  1
  O  O202  1  0.64128100  0.71785800  0.39886200  1
  O  O203  1  0.35871900  0.28214200  0.39886200  1
  O  O204  1  0.31165550  0.68900950  0.30463000  1
  O  O205  1  0.39128100  0.53214200  0.14886200  1
  O  O206  1  0.59758900  0.65264300  0.27182900  1
  O  O207  1  0.46812450  0.84216400  0.40108250  1
  O  O208  1  0.18834450  0.68900950  0.19537000  1
  O  O209  1  0.18834450  0.81099050  0.30463000  1
  O  O210  1  0.96812450  0.15783600  0.09891750  1
  O  O211  1  0.40241100  0.34735700  0.27182900  1
  O  O212  1  0.34758900  0.59735700  0.02182900  1
  O  O213  1  0.09758900  0.34735700  0.22817100  1
  O  O214  1  0.31165550  0.81099050  0.19537000  1
  O  O215  1  0.14128100  0.28214200  0.10113800  1
