# generated using pymatgen
data_U3Cu2H10(CO10)2
_symmetry_space_group_name_H-M   'P 1'
_cell_length_a   6.99179700
_cell_length_b   7.82025993
_cell_length_c   7.89229838
_cell_angle_alpha   90.53345715
_cell_angle_beta   95.36939677
_cell_angle_gamma   91.39534635
_symmetry_Int_Tables_number   1
_chemical_formula_structural   U3Cu2H10(CO10)2
_chemical_formula_sum   'U3 Cu2 H10 C2 O20'
_cell_volume   429.48244247
_cell_formula_units_Z   1
loop_
 _symmetry_equiv_pos_site_id
 _symmetry_equiv_pos_as_xyz
  1  'x, y, z'
loop_
 _atom_site_type_symbol
 _atom_site_label
 _atom_site_symmetry_multiplicity
 _atom_site_fract_x
 _atom_site_fract_y
 _atom_site_fract_z
 _atom_site_occupancy
  U  U0  1  0.00000000  0.00000000  0.00000000  1
  U  U1  1  0.47819600  0.80485200  0.86324400  1
  U  U2  1  0.52180400  0.19514800  0.13675600  1
  Cu  Cu3  1  0.73426700  0.50345200  0.49758600  1
  Cu  Cu4  1  0.26573300  0.49654800  0.50241400  1
  H  H5  1  0.48112800  0.45964200  0.75937200  1
  H  H6  1  0.51887200  0.54035800  0.24062800  1
  H  H7  1  0.81429800  0.22670100  0.67274000  1
  H  H8  1  0.18570200  0.77329900  0.32726000  1
  H  H9  1  0.66792800  0.18148100  0.50553900  1
  H  H10  1  0.33207200  0.81851900  0.49446100  1
  H  H11  1  0.35764500  0.18836400  0.60961600  1
  H  H12  1  0.64235500  0.81163600  0.39038400  1
  H  H13  1  0.15922800  0.22945500  0.68198400  1
  H  H14  1  0.84077200  0.77054500  0.31801600  1
  C  C15  1  0.96641600  0.68625900  0.76881300  1
  C  C16  1  0.03358400  0.31374100  0.23118700  1
  O  O17  1  0.99023800  0.13937100  0.80802800  1
  O  O18  1  0.00976200  0.86062900  0.19197200  1
  O  O19  1  0.44297500  0.93145300  0.66583900  1
  O  O20  1  0.55702500  0.06854700  0.33416100  1
  O  O21  1  0.50558700  0.67356300  0.05362300  1
  O  O22  1  0.49441300  0.32643700  0.94637700  1
  O  O23  1  0.13169500  0.75184900  0.83076300  1
  O  O24  1  0.86830500  0.24815100  0.16923700  1
  O  O25  1  0.68476100  0.00172200  0.99561600  1
  O  O26  1  0.31523900  0.99827800  0.00438400  1
  O  O27  1  0.81958400  0.76402300  0.82032100  1
  O  O28  1  0.18041600  0.23597700  0.17967900  1
  O  O29  1  0.95536900  0.55788900  0.66780400  1
  O  O30  1  0.04463100  0.44211100  0.33219600  1
  O  O31  1  0.46309400  0.56113900  0.68554100  1
  O  O32  1  0.53690600  0.43886100  0.31445900  1
  O  O33  1  0.70816700  0.27099000  0.59307900  1
  O  O34  1  0.29183300  0.72901000  0.40692100  1
  O  O35  1  0.24414900  0.25930200  0.59147200  1
  O  O36  1  0.75585100  0.74069800  0.40852800  1
