# generated using pymatgen
data_Nb3N5
_symmetry_space_group_name_H-M   'P 1'
_cell_length_a   3.91996600
_cell_length_b   10.41519000
_cell_length_c   10.40135800
_cell_angle_alpha   90.00000000
_cell_angle_beta   90.00000000
_cell_angle_gamma   90.00000000
_symmetry_Int_Tables_number   1
_chemical_formula_structural   Nb3N5
_chemical_formula_sum   'Nb12 N20'
_cell_volume   424.65822643
_cell_formula_units_Z   4
loop_
 _symmetry_equiv_pos_site_id
 _symmetry_equiv_pos_as_xyz
  1  'x, y, z'
loop_
 _atom_site_type_symbol
 _atom_site_label
 _atom_site_symmetry_multiplicity
 _atom_site_fract_x
 _atom_site_fract_y
 _atom_site_fract_z
 _atom_site_occupancy
  Nb  Nb0  1  0.00000000  0.13018500  0.44083400  1
  Nb  Nb1  1  0.00000000  0.13018500  0.05916600  1
  Nb  Nb2  1  0.00000000  0.20454000  0.75000000  1
  Nb  Nb3  1  0.50000000  0.29546000  0.25000000  1
  Nb  Nb4  1  0.50000000  0.36981500  0.55916600  1
  Nb  Nb5  1  0.50000000  0.36981500  0.94083400  1
  Nb  Nb6  1  0.50000000  0.63018500  0.44083400  1
  Nb  Nb7  1  0.50000000  0.63018500  0.05916600  1
  Nb  Nb8  1  0.50000000  0.70454000  0.75000000  1
  Nb  Nb9  1  0.00000000  0.79546000  0.25000000  1
  Nb  Nb10  1  0.00000000  0.86981500  0.55916600  1
  Nb  Nb11  1  0.00000000  0.86981500  0.94083400  1
  N  N12  1  0.00000000  0.30989000  0.92593600  1
  N  N13  1  0.00000000  0.04747200  0.62042400  1
  N  N14  1  0.00000000  0.04747200  0.87957600  1
  N  N15  1  0.00000000  0.30989000  0.57406400  1
  N  N16  1  0.00000000  0.23443600  0.25000000  1
  N  N17  1  0.50000000  0.45252800  0.37957600  1
  N  N18  1  0.50000000  0.19011000  0.07406400  1
  N  N19  1  0.50000000  0.19011000  0.42593600  1
  N  N20  1  0.50000000  0.26556400  0.75000000  1
  N  N21  1  0.50000000  0.45252800  0.12042400  1
  N  N22  1  0.50000000  0.80989000  0.92593600  1
  N  N23  1  0.50000000  0.54747200  0.62042400  1
  N  N24  1  0.50000000  0.54747200  0.87957600  1
  N  N25  1  0.50000000  0.80989000  0.57406400  1
  N  N26  1  0.50000000  0.73443600  0.25000000  1
  N  N27  1  0.00000000  0.95252800  0.37957600  1
  N  N28  1  0.00000000  0.69011000  0.07406400  1
  N  N29  1  0.00000000  0.69011000  0.42593600  1
  N  N30  1  0.00000000  0.76556400  0.75000000  1
  N  N31  1  0.00000000  0.95252800  0.12042400  1
