# generated using pymatgen
data_Sb5O7F
_symmetry_space_group_name_H-M   'P 1'
_cell_length_a   5.28540400
_cell_length_b   15.66498800
_cell_length_c   23.68392200
_cell_angle_alpha   90.00000000
_cell_angle_beta   90.00000000
_cell_angle_gamma   90.00000000
_symmetry_Int_Tables_number   1
_chemical_formula_structural   Sb5O7F
_chemical_formula_sum   'Sb40 O56 F8'
_cell_volume   1960.92903786
_cell_formula_units_Z   8
loop_
 _symmetry_equiv_pos_site_id
 _symmetry_equiv_pos_as_xyz
  1  'x, y, z'
loop_
 _atom_site_type_symbol
 _atom_site_label
 _atom_site_symmetry_multiplicity
 _atom_site_fract_x
 _atom_site_fract_y
 _atom_site_fract_z
 _atom_site_occupancy
  Sb  Sb0  1  0.96590950  0.41847150  0.30707150  1
  Sb  Sb1  1  0.46590950  0.41847150  0.19292850  1
  Sb  Sb2  1  0.96590950  0.58152850  0.19292850  1
  Sb  Sb3  1  0.46590950  0.58152850  0.30707150  1
  Sb  Sb4  1  0.56486500  0.07940300  0.93132900  1
  Sb  Sb5  1  0.93513500  0.07940300  0.06867100  1
  Sb  Sb6  1  0.93513500  0.57940300  0.93132900  1
  Sb  Sb7  1  0.56486500  0.57940300  0.06867100  1
  Sb  Sb8  1  0.50000000  0.75000000  0.20176700  1
  Sb  Sb9  1  0.00000000  0.25000000  0.20176700  1
  Sb  Sb10  1  0.00000000  0.75000000  0.79823300  1
  Sb  Sb11  1  0.50000000  0.25000000  0.79823300  1
  Sb  Sb12  1  0.43513500  0.42059700  0.93132900  1
  Sb  Sb13  1  0.43513500  0.92059700  0.06867100  1
  Sb  Sb14  1  0.06486500  0.42059700  0.06867100  1
  Sb  Sb15  1  0.06486500  0.92059700  0.93132900  1
  Sb  Sb16  1  0.03409050  0.41847150  0.80707150  1
  Sb  Sb17  1  0.53409050  0.41847150  0.69292850  1
  Sb  Sb18  1  0.53409050  0.58152850  0.80707150  1
  Sb  Sb19  1  0.03409050  0.58152850  0.69292850  1
  Sb  Sb20  1  0.46590950  0.91847150  0.80707150  1
  Sb  Sb21  1  0.96590950  0.91847150  0.69292850  1
  Sb  Sb22  1  0.46590950  0.08152850  0.69292850  1
  Sb  Sb23  1  0.96590950  0.08152850  0.80707150  1
  Sb  Sb24  1  0.06486500  0.57940300  0.43132900  1
  Sb  Sb25  1  0.43513500  0.57940300  0.56867100  1
  Sb  Sb26  1  0.43513500  0.07940300  0.43132900  1
  Sb  Sb27  1  0.06486500  0.07940300  0.56867100  1
  Sb  Sb28  1  0.00000000  0.25000000  0.70176700  1
  Sb  Sb29  1  0.50000000  0.75000000  0.70176700  1
  Sb  Sb30  1  0.50000000  0.25000000  0.29823300  1
  Sb  Sb31  1  0.00000000  0.75000000  0.29823300  1
  Sb  Sb32  1  0.93513500  0.92059700  0.43132900  1
  Sb  Sb33  1  0.93513500  0.42059700  0.56867100  1
  Sb  Sb34  1  0.56486500  0.92059700  0.56867100  1
  Sb  Sb35  1  0.56486500  0.42059700  0.43132900  1
  Sb  Sb36  1  0.53409050  0.91847150  0.30707150  1
  Sb  Sb37  1  0.03409050  0.91847150  0.19292850  1
  Sb  Sb38  1  0.03409050  0.08152850  0.30707150  1
  Sb  Sb39  1  0.53409050  0.08152850  0.19292850  1
  O  O40  1  0.77449600  0.33010400  0.25418700  1
  O  O41  1  0.27449600  0.33010400  0.24581300  1
  O  O42  1  0.09619400  0.42609200  0.15266000  1
  O  O43  1  0.59619400  0.42609200  0.34734000  1
  O  O44  1  0.91984000  0.46156800  0.44278800  1
  O  O45  1  0.41984000  0.46156800  0.05721200  1
  O  O46  1  0.29339400  0.50000000  0.25000000  1
  O  O47  1  0.79339400  0.50000000  0.25000000  1
  O  O48  1  0.41984000  0.53843200  0.44278800  1
  O  O49  1  0.91984000  0.53843200  0.05721200  1
  O  O50  1  0.09619400  0.57390800  0.34734000  1
  O  O51  1  0.59619400  0.57390800  0.15266000  1
  O  O52  1  0.77449600  0.66989600  0.24581300  1
  O  O53  1  0.27449600  0.66989600  0.25418700  1
  O  O54  1  0.72550400  0.33010400  0.74581300  1
  O  O55  1  0.22550400  0.33010400  0.75418700  1
  O  O56  1  0.40380600  0.42609200  0.84734000  1
  O  O57  1  0.90380600  0.42609200  0.65266000  1
  O  O58  1  0.58016000  0.46156800  0.55721200  1
  O  O59  1  0.08016000  0.46156800  0.94278800  1
  O  O60  1  0.70660600  0.50000000  0.75000000  1
  O  O61  1  0.20660600  0.50000000  0.75000000  1
  O  O62  1  0.58016000  0.53843200  0.94278800  1
  O  O63  1  0.08016000  0.53843200  0.55721200  1
  O  O64  1  0.40380600  0.57390800  0.65266000  1
  O  O65  1  0.90380600  0.57390800  0.84734000  1
  O  O66  1  0.22550400  0.66989600  0.74581300  1
  O  O67  1  0.72550400  0.66989600  0.75418700  1
  O  O68  1  0.27449600  0.83010400  0.75418700  1
  O  O69  1  0.77449600  0.83010400  0.74581300  1
  O  O70  1  0.59619400  0.92609200  0.65266000  1
  O  O71  1  0.09619400  0.92609200  0.84734000  1
  O  O72  1  0.41984000  0.96156800  0.94278800  1
  O  O73  1  0.91984000  0.96156800  0.55721200  1
  O  O74  1  0.79339400  0.00000000  0.75000000  1
  O  O75  1  0.29339400  0.00000000  0.75000000  1
  O  O76  1  0.91984000  0.03843200  0.94278800  1
  O  O77  1  0.41984000  0.03843200  0.55721200  1
  O  O78  1  0.59619400  0.07390800  0.84734000  1
  O  O79  1  0.09619400  0.07390800  0.65266000  1
  O  O80  1  0.27449600  0.16989600  0.74581300  1
  O  O81  1  0.77449600  0.16989600  0.75418700  1
  O  O82  1  0.22550400  0.83010400  0.24581300  1
  O  O83  1  0.72550400  0.83010400  0.25418700  1
  O  O84  1  0.90380600  0.92609200  0.34734000  1
  O  O85  1  0.40380600  0.92609200  0.15266000  1
  O  O86  1  0.08016000  0.96156800  0.05721200  1
  O  O87  1  0.58016000  0.96156800  0.44278800  1
  O  O88  1  0.20660600  0.00000000  0.25000000  1
  O  O89  1  0.70660600  0.00000000  0.25000000  1
  O  O90  1  0.08016000  0.03843200  0.44278800  1
  O  O91  1  0.58016000  0.03843200  0.05721200  1
  O  O92  1  0.90380600  0.07390800  0.15266000  1
  O  O93  1  0.40380600  0.07390800  0.34734000  1
  O  O94  1  0.72550400  0.16989600  0.24581300  1
  O  O95  1  0.22550400  0.16989600  0.25418700  1
  F  F96  1  0.00000000  0.75000000  0.15361700  1
  F  F97  1  0.50000000  0.25000000  0.15361700  1
  F  F98  1  0.50000000  0.75000000  0.84638300  1
  F  F99  1  0.00000000  0.25000000  0.84638300  1
  F  F100  1  0.50000000  0.25000000  0.65361700  1
  F  F101  1  0.00000000  0.75000000  0.65361700  1
  F  F102  1  0.00000000  0.25000000  0.34638300  1
  F  F103  1  0.50000000  0.75000000  0.34638300  1
