# generated using pymatgen
data_Li24Mn11CrO36
_symmetry_space_group_name_H-M   'P 1'
_cell_length_a   15.02634400
_cell_length_b   8.64537400
_cell_length_c   11.66429451
_cell_angle_alpha   90.00000000
_cell_angle_beta   124.63438781
_cell_angle_gamma   90.00000000
_symmetry_Int_Tables_number   1
_chemical_formula_structural   Li24Mn11CrO36
_chemical_formula_sum   'Li48 Mn22 Cr2 O72'
_cell_volume   1246.77317669
_cell_formula_units_Z   2
loop_
 _symmetry_equiv_pos_site_id
 _symmetry_equiv_pos_as_xyz
  1  'x, y, z'
loop_
 _atom_site_type_symbol
 _atom_site_label
 _atom_site_symmetry_multiplicity
 _atom_site_fract_x
 _atom_site_fract_y
 _atom_site_fract_z
 _atom_site_occupancy
  Li  Li0  1  0.50217100  0.50666800  0.25246800  1
  Li  Li1  1  0.83449750  0.16809750  0.99966100  1
  Li  Li2  1  0.66639000  0.66627000  0.75013800  1
  Li  Li3  1  0.83502050  0.50462450  0.74968100  1
  Li  Li4  1  0.66799500  0.66709300  0.50217000  1
  Li  Li5  1  0.16497950  0.50462450  0.25031900  1
  Li  Li6  1  0.49918850  0.82698450  0.24818700  1
  Li  Li7  1  0.16699050  0.17030450  0.25166500  1
  Li  Li8  1  0.00000000  0.66716600  0.00000000  1
  Li  Li9  1  0.83298300  0.82926400  0.75148000  1
  Li  Li10  1  0.49972950  0.16574250  0.75169700  1
  Li  Li11  1  0.66756750  0.00397550  0.75093200  1
  Li  Li12  1  0.50027050  0.16574250  0.24830300  1
  Li  Li13  1  0.66575650  0.32911550  0.74908200  1
  Li  Li14  1  0.83300950  0.17030450  0.74833500  1
  Li  Li15  1  0.49782900  0.50666800  0.74753200  1
  Li  Li16  1  0.33200500  0.66709300  0.49783000  1
  Li  Li17  1  0.33243250  0.00397550  0.24906800  1
  Li  Li18  1  0.16701700  0.82926400  0.24852000  1
  Li  Li19  1  0.33361000  0.66627000  0.24986200  1
  Li  Li20  1  0.16550250  0.16809750  0.00033900  1
  Li  Li21  1  0.50081150  0.82698450  0.75181300  1
  Li  Li22  1  0.50000000  0.16982300  0.50000000  1
  Li  Li23  1  0.33424350  0.32911550  0.25091800  1
  Li  Li24  1  0.00217100  0.00666800  0.25246800  1
  Li  Li25  1  0.33449750  0.66809750  0.99966100  1
  Li  Li26  1  0.16639000  0.16627000  0.75013800  1
  Li  Li27  1  0.33502050  0.00462450  0.74968100  1
  Li  Li28  1  0.16799500  0.16709300  0.50217000  1
  Li  Li29  1  0.66497950  0.00462450  0.25031900  1
  Li  Li30  1  0.99918850  0.32698450  0.24818700  1
  Li  Li31  1  0.66699050  0.67030450  0.25166500  1
  Li  Li32  1  0.50000000  0.16716600  0.00000000  1
  Li  Li33  1  0.33298300  0.32926400  0.75148000  1
  Li  Li34  1  0.99972950  0.66574250  0.75169700  1
  Li  Li35  1  0.16756750  0.50397550  0.75093200  1
  Li  Li36  1  0.00027050  0.66574250  0.24830300  1
  Li  Li37  1  0.16575650  0.82911550  0.74908200  1
  Li  Li38  1  0.33300950  0.67030450  0.74833500  1
  Li  Li39  1  0.99782900  0.00666800  0.74753200  1
  Li  Li40  1  0.83200500  0.16709300  0.49783000  1
  Li  Li41  1  0.83243250  0.50397550  0.24906800  1
  Li  Li42  1  0.66701700  0.32926400  0.24852000  1
  Li  Li43  1  0.83361000  0.16627000  0.24986200  1
  Li  Li44  1  0.66550250  0.66809750  0.00033900  1
  Li  Li45  1  0.00081150  0.32698450  0.75181300  1
  Li  Li46  1  0.00000000  0.66982300  0.50000000  1
  Li  Li47  1  0.83424350  0.82911550  0.25091800  1
  Mn  Mn48  1  0.33398650  0.00063550  0.00007500  1
  Mn  Mn49  1  0.00000000  0.33489600  0.00000000  1
  Mn  Mn50  1  0.33415550  0.33495750  0.00101300  1
  Mn  Mn51  1  0.66601350  0.00063550  0.99992500  1
  Mn  Mn52  1  0.66886150  0.00025850  0.50253200  1
  Mn  Mn53  1  0.33373000  0.33488200  0.50046600  1
  Mn  Mn54  1  0.00000000  0.00059600  0.00000000  1
  Mn  Mn55  1  0.66584450  0.33495750  0.99898700  1
  Mn  Mn56  1  0.66627000  0.33488200  0.49953400  1
  Mn  Mn57  1  0.50000000  0.50029900  0.50000000  1
  Mn  Mn58  1  0.33113850  0.00025850  0.49746800  1
  Mn  Mn59  1  0.83398650  0.50063550  0.00007500  1
  Mn  Mn60  1  0.50000000  0.83489600  0.00000000  1
  Mn  Mn61  1  0.83415550  0.83495750  0.00101300  1
  Mn  Mn62  1  0.16601350  0.50063550  0.99992500  1
  Mn  Mn63  1  0.16886150  0.50025850  0.50253200  1
  Mn  Mn64  1  0.83373000  0.83488200  0.50046600  1
  Mn  Mn65  1  0.50000000  0.50059600  0.00000000  1
  Mn  Mn66  1  0.16584450  0.83495750  0.99898700  1
  Mn  Mn67  1  0.16627000  0.83488200  0.49953400  1
  Mn  Mn68  1  0.00000000  0.00029900  0.50000000  1
  Mn  Mn69  1  0.83113850  0.50025850  0.49746800  1
  Cr  Cr70  1  0.50000000  0.83805000  0.50000000  1
  Cr  Cr71  1  0.00000000  0.33805000  0.50000000  1
  O  O72  1  0.50363150  0.66803150  0.11408200  1
  O  O73  1  0.84400650  0.34697150  0.88790300  1
  O  O74  1  0.65658450  0.48879550  0.61159600  1
  O  O75  1  0.49068500  0.98885300  0.11215500  1
  O  O76  1  0.49600700  0.66620200  0.38550100  1
  O  O77  1  0.15599350  0.34697150  0.11209700  1
  O  O78  1  0.83084700  0.66810900  0.88703100  1
  O  O79  1  0.50931500  0.98885300  0.88784500  1
  O  O80  1  0.65994750  0.84649850  0.61424600  1
  O  O81  1  0.33669050  0.16736850  0.61424800  1
  O  O82  1  0.32384450  0.48912950  0.11256200  1
  O  O83  1  0.51156850  0.98530350  0.38900400  1
  O  O84  1  0.49065400  0.34648000  0.11273600  1
  O  O85  1  0.16915300  0.66810900  0.11296900  1
  O  O86  1  0.67732400  0.84694000  0.38894400  1
  O  O87  1  0.84434100  0.98965700  0.88914600  1
  O  O88  1  0.66401100  0.16814500  0.88660700  1
  O  O89  1  0.50934600  0.34648000  0.88726400  1
  O  O90  1  0.32468450  0.48972050  0.61288300  1
  O  O91  1  0.67023500  0.16744500  0.61523400  1
  O  O92  1  0.49017550  0.34470850  0.61200700  1
  O  O93  1  0.15565900  0.98965700  0.11085400  1
  O  O94  1  0.66330950  0.16736850  0.38575200  1
  O  O95  1  0.34341550  0.48879550  0.38840400  1
  O  O96  1  0.32422450  0.84545650  0.11213900  1
  O  O97  1  0.50982450  0.34470850  0.38799300  1
  O  O98  1  0.49636850  0.66803150  0.88591800  1
  O  O99  1  0.67615550  0.48912950  0.88743800  1
  O  O100  1  0.32267600  0.84694000  0.61105600  1
  O  O101  1  0.50399300  0.66620200  0.61449900  1
  O  O102  1  0.67531550  0.48972050  0.38711700  1
  O  O103  1  0.33598900  0.16814500  0.11339300  1
  O  O104  1  0.34005250  0.84649850  0.38575400  1
  O  O105  1  0.67577550  0.84545650  0.88786100  1
  O  O106  1  0.48843150  0.98530350  0.61099600  1
  O  O107  1  0.32976500  0.16744500  0.38476600  1
  O  O108  1  0.00363150  0.16803150  0.11408200  1
  O  O109  1  0.34400650  0.84697150  0.88790300  1
  O  O110  1  0.15658450  0.98879550  0.61159600  1
  O  O111  1  0.99068500  0.48885300  0.11215500  1
  O  O112  1  0.99600700  0.16620200  0.38550100  1
  O  O113  1  0.65599350  0.84697150  0.11209700  1
  O  O114  1  0.33084700  0.16810900  0.88703100  1
  O  O115  1  0.00931500  0.48885300  0.88784500  1
  O  O116  1  0.15994750  0.34649850  0.61424600  1
  O  O117  1  0.83669050  0.66736850  0.61424800  1
  O  O118  1  0.82384450  0.98912950  0.11256200  1
  O  O119  1  0.01156850  0.48530350  0.38900400  1
  O  O120  1  0.99065400  0.84648000  0.11273600  1
  O  O121  1  0.66915300  0.16810900  0.11296900  1
  O  O122  1  0.17732400  0.34694000  0.38894400  1
  O  O123  1  0.34434100  0.48965700  0.88914600  1
  O  O124  1  0.16401100  0.66814500  0.88660700  1
  O  O125  1  0.00934600  0.84648000  0.88726400  1
  O  O126  1  0.82468450  0.98972050  0.61288300  1
  O  O127  1  0.17023500  0.66744500  0.61523400  1
  O  O128  1  0.99017550  0.84470850  0.61200700  1
  O  O129  1  0.65565900  0.48965700  0.11085400  1
  O  O130  1  0.16330950  0.66736850  0.38575200  1
  O  O131  1  0.84341550  0.98879550  0.38840400  1
  O  O132  1  0.82422450  0.34545650  0.11213900  1
  O  O133  1  0.00982450  0.84470850  0.38799300  1
  O  O134  1  0.99636850  0.16803150  0.88591800  1
  O  O135  1  0.17615550  0.98912950  0.88743800  1
  O  O136  1  0.82267600  0.34694000  0.61105600  1
  O  O137  1  0.00399300  0.16620200  0.61449900  1
  O  O138  1  0.17531550  0.98972050  0.38711700  1
  O  O139  1  0.83598900  0.66814500  0.11339300  1
  O  O140  1  0.84005250  0.34649850  0.38575400  1
  O  O141  1  0.17577550  0.34545650  0.88786100  1
  O  O142  1  0.98843150  0.48530350  0.61099600  1
  O  O143  1  0.82976500  0.66744500  0.38476600  1
