# generated using pymatgen
data_Sr9La5Cl33
_symmetry_space_group_name_H-M   'P 1'
_cell_length_a   11.28138100
_cell_length_b   11.31749674
_cell_length_c   21.58775704
_cell_angle_alpha   99.82201927
_cell_angle_beta   99.91292532
_cell_angle_gamma   108.88029672
_symmetry_Int_Tables_number   1
_chemical_formula_structural   Sr9La5Cl33
_chemical_formula_sum   'Sr18 La10 Cl66'
_cell_volume   2492.16186909
_cell_formula_units_Z   2
loop_
 _symmetry_equiv_pos_site_id
 _symmetry_equiv_pos_as_xyz
  1  'x, y, z'
loop_
 _atom_site_type_symbol
 _atom_site_label
 _atom_site_symmetry_multiplicity
 _atom_site_fract_x
 _atom_site_fract_y
 _atom_site_fract_z
 _atom_site_occupancy
  Sr  Sr0  1  0.92494600  0.24896300  0.93093300  1
  Sr  Sr1  1  0.31948300  0.08833100  0.96989600  1
  Sr  Sr2  1  0.47229900  0.02243400  0.19340000  1
  Sr  Sr3  1  0.87004200  0.26931400  0.33839400  1
  Sr  Sr4  1  0.24459600  0.13201900  0.37811000  1
  Sr  Sr5  1  0.68134900  0.40300000  0.53801900  1
  Sr  Sr6  1  0.06884400  0.24461200  0.56202200  1
  Sr  Sr7  1  0.76039700  0.35442500  0.12083200  1
  Sr  Sr8  1  0.13109600  0.21769400  0.15794900  1
  Sr  Sr9  1  0.86890400  0.78230600  0.84205100  1
  Sr  Sr10  1  0.23960300  0.64557500  0.87916800  1
  Sr  Sr11  1  0.93115600  0.75538800  0.43797800  1
  Sr  Sr12  1  0.31865100  0.59700000  0.46198100  1
  Sr  Sr13  1  0.75540400  0.86798100  0.62189000  1
  Sr  Sr14  1  0.12995800  0.73068600  0.66160600  1
  Sr  Sr15  1  0.52770100  0.97756600  0.80660000  1
  Sr  Sr16  1  0.68051700  0.91166900  0.03010400  1
  Sr  Sr17  1  0.07505400  0.75103700  0.06906700  1
  La  La18  1  0.38066000  0.04308500  0.58601900  1
  La  La19  1  0.17721000  0.14090000  0.76612400  1
  La  La20  1  0.85666300  0.35193200  0.73340700  1
  La  La21  1  0.62738700  0.45702300  0.92683000  1
  La  La22  1  0.46254400  0.54047400  0.68658000  1
  La  La23  1  0.53745600  0.45952600  0.31342000  1
  La  La24  1  0.37261300  0.54297700  0.07317000  1
  La  La25  1  0.14333700  0.64806800  0.26659300  1
  La  La26  1  0.82279000  0.85910000  0.23387600  1
  La  La27  1  0.61934000  0.95691500  0.41398100  1
  Cl  Cl28  1  0.77237300  0.13987300  0.78744200  1
  Cl  Cl29  1  0.94447300  0.14893500  0.67212600  1
  Cl  Cl30  1  0.62530900  0.20550100  0.91811800  1
  Cl  Cl31  1  0.73751100  0.04603700  0.19373000  1
  Cl  Cl32  1  0.15644700  0.00849100  0.63607600  1
  Cl  Cl33  1  0.05946300  0.07209800  0.87636200  1
  Cl  Cl34  1  0.65517300  0.18702700  0.62407800  1
  Cl  Cl35  1  0.44476700  0.18399000  0.73896400  1
  Cl  Cl36  1  0.81277700  0.22646700  0.47593000  1
  Cl  Cl37  1  0.58824700  0.11987800  0.33529000  1
  Cl  Cl38  1  0.47742700  0.12169300  0.47143700  1
  Cl  Cl39  1  0.15495400  0.04033200  0.48621700  1
  Cl  Cl40  1  0.35603400  0.29302500  0.88431500  1
  Cl  Cl41  1  0.88615100  0.18399000  0.06040100  1
  Cl  Cl42  1  0.82391000  0.45828600  0.85724400  1
  Cl  Cl43  1  0.55450300  0.10571400  0.07264400  1
  Cl  Cl44  1  0.94768800  0.43341500  0.62473800  1
  Cl  Cl45  1  0.24359600  0.03823400  0.09343400  1
  Cl  Cl46  1  0.39399600  0.30369200  0.58807500  1
  Cl  Cl47  1  0.97717000  0.37447600  0.22401000  1
  Cl  Cl48  1  0.34503200  0.20232600  0.26299000  1
  Cl  Cl49  1  0.65986300  0.31487200  0.23806600  1
  Cl  Cl50  1  0.03585800  0.12350000  0.27562100  1
  Cl  Cl51  1  0.24383000  0.35665700  0.70734700  1
  Cl  Cl52  1  0.70614900  0.50231300  0.68977900  1
  Cl  Cl53  1  0.07986900  0.35697300  0.82500600  1
  Cl  Cl54  1  0.75677300  0.46591900  0.40868900  1
  Cl  Cl55  1  0.57524400  0.56680000  0.82100400  1
  Cl  Cl56  1  0.44763800  0.39092600  0.42624300  1
  Cl  Cl57  1  0.80443400  0.72038300  0.97050900  1
  Cl  Cl58  1  0.46905800  0.61423700  0.96195300  1
  Cl  Cl59  1  0.12327300  0.31816700  0.43687200  1
  Cl  Cl60  1  0.14471000  0.53071700  0.98108400  1
  Cl  Cl61  1  0.85529000  0.46928300  0.01891600  1
  Cl  Cl62  1  0.87672700  0.68183300  0.56312800  1
  Cl  Cl63  1  0.53094200  0.38576300  0.03804700  1
  Cl  Cl64  1  0.19556600  0.27961700  0.02949100  1
  Cl  Cl65  1  0.55236200  0.60907400  0.57375700  1
  Cl  Cl66  1  0.42475600  0.43320000  0.17899600  1
  Cl  Cl67  1  0.24322700  0.53408100  0.59131100  1
  Cl  Cl68  1  0.92013100  0.64302700  0.17499400  1
  Cl  Cl69  1  0.29385100  0.49768700  0.31022100  1
  Cl  Cl70  1  0.75617000  0.64334300  0.29265300  1
  Cl  Cl71  1  0.96414200  0.87650000  0.72437900  1
  Cl  Cl72  1  0.34013700  0.68512800  0.76193400  1
  Cl  Cl73  1  0.65496800  0.79767400  0.73701000  1
  Cl  Cl74  1  0.02283000  0.62552400  0.77599000  1
  Cl  Cl75  1  0.60600400  0.69630800  0.41192500  1
  Cl  Cl76  1  0.75640400  0.96176600  0.90656600  1
  Cl  Cl77  1  0.05231200  0.56658500  0.37526200  1
  Cl  Cl78  1  0.44549700  0.89428600  0.92735600  1
  Cl  Cl79  1  0.17609000  0.54171400  0.14275600  1
  Cl  Cl80  1  0.11384900  0.81601000  0.93959900  1
  Cl  Cl81  1  0.64396600  0.70697500  0.11568500  1
  Cl  Cl82  1  0.84504600  0.95966800  0.51378300  1
  Cl  Cl83  1  0.52257300  0.87830700  0.52856300  1
  Cl  Cl84  1  0.41175300  0.88012200  0.66471000  1
  Cl  Cl85  1  0.18722300  0.77353300  0.52407000  1
  Cl  Cl86  1  0.55523300  0.81601000  0.26103600  1
  Cl  Cl87  1  0.34482700  0.81297300  0.37592200  1
  Cl  Cl88  1  0.94053700  0.92790200  0.12363800  1
  Cl  Cl89  1  0.84355300  0.99150900  0.36392400  1
  Cl  Cl90  1  0.26248900  0.95396300  0.80627000  1
  Cl  Cl91  1  0.37469100  0.79449900  0.08188200  1
  Cl  Cl92  1  0.05552700  0.85106500  0.32787400  1
  Cl  Cl93  1  0.22762700  0.86012700  0.21255800  1
