# generated using pymatgen
data_LiSbO2
_symmetry_space_group_name_H-M   'P 1'
_cell_length_a   7.06092400
_cell_length_b   8.87767800
_cell_length_c   5.35659385
_cell_angle_alpha   90.00000000
_cell_angle_beta   130.23194145
_cell_angle_gamma   90.00000000
_symmetry_Int_Tables_number   1
_chemical_formula_structural   LiSbO2
_chemical_formula_sum   'Li4 Sb4 O8'
_cell_volume   256.34350836
_cell_formula_units_Z   4
loop_
 _symmetry_equiv_pos_site_id
 _symmetry_equiv_pos_as_xyz
  1  'x, y, z'
loop_
 _atom_site_type_symbol
 _atom_site_label
 _atom_site_symmetry_multiplicity
 _atom_site_fract_x
 _atom_site_fract_y
 _atom_site_fract_z
 _atom_site_occupancy
  Li  Li0  1  0.00000000  0.45162600  0.75000000  1
  Li  Li1  1  0.50000000  0.04837400  0.25000000  1
  Li  Li2  1  0.50000000  0.95162600  0.75000000  1
  Li  Li3  1  0.00000000  0.54837400  0.25000000  1
  Sb  Sb4  1  0.50000000  0.39555600  0.75000000  1
  Sb  Sb5  1  0.00000000  0.10444400  0.25000000  1
  Sb  Sb6  1  0.00000000  0.89555600  0.75000000  1
  Sb  Sb7  1  0.50000000  0.60444400  0.25000000  1
  O  O8  1  0.23041500  0.03624500  0.76077600  1
  O  O9  1  0.73041500  0.46375500  0.26077600  1
  O  O10  1  0.76958500  0.03624500  0.73922400  1
  O  O11  1  0.26958500  0.46375500  0.23922400  1
  O  O12  1  0.73041500  0.53624500  0.76077600  1
  O  O13  1  0.23041500  0.96375500  0.26077600  1
  O  O14  1  0.26958500  0.53624500  0.73922400  1
  O  O15  1  0.76958500  0.96375500  0.23922400  1
