# generated using pymatgen
data_LiMn2O3F
_symmetry_space_group_name_H-M   'P 1'
_cell_length_a   13.58190800
_cell_length_b   8.47296800
_cell_length_c   6.02308040
_cell_angle_alpha   90.00000000
_cell_angle_beta   115.93890827
_cell_angle_gamma   90.00000000
_symmetry_Int_Tables_number   1
_chemical_formula_structural   LiMn2O3F
_chemical_formula_sum   'Li8 Mn16 O24 F8'
_cell_volume   623.30519359
_cell_formula_units_Z   8
loop_
 _symmetry_equiv_pos_site_id
 _symmetry_equiv_pos_as_xyz
  1  'x, y, z'
loop_
 _atom_site_type_symbol
 _atom_site_label
 _atom_site_symmetry_multiplicity
 _atom_site_fract_x
 _atom_site_fract_y
 _atom_site_fract_z
 _atom_site_occupancy
  Li  Li0  1  0.12873100  0.11505000  0.89930200  1
  Li  Li1  1  0.37111000  0.63429600  0.60969000  1
  Li  Li2  1  0.12873100  0.88495000  0.39930200  1
  Li  Li3  1  0.37111000  0.36570400  0.10969000  1
  Li  Li4  1  0.62873100  0.61505000  0.89930200  1
  Li  Li5  1  0.87111000  0.13429600  0.60969000  1
  Li  Li6  1  0.62873100  0.38495000  0.39930200  1
  Li  Li7  1  0.87111000  0.86570400  0.10969000  1
  Mn  Mn8  1  0.49370650  0.72925150  0.23655600  1
  Mn  Mn9  1  0.25023950  0.24020250  0.48730800  1
  Mn  Mn10  1  0.25023950  0.75979750  0.98730800  1
  Mn  Mn11  1  0.37723000  0.99921400  0.86340700  1
  Mn  Mn12  1  0.62784400  0.01005600  0.63144000  1
  Mn  Mn13  1  0.37723000  0.00078600  0.36340700  1
  Mn  Mn14  1  0.62784400  0.98994400  0.13144000  1
  Mn  Mn15  1  0.49370650  0.27074850  0.73655600  1
  Mn  Mn16  1  0.99370650  0.22925150  0.23655600  1
  Mn  Mn17  1  0.75023950  0.74020250  0.48730800  1
  Mn  Mn18  1  0.75023950  0.25979750  0.98730800  1
  Mn  Mn19  1  0.87723000  0.49921400  0.86340700  1
  Mn  Mn20  1  0.12784400  0.51005600  0.63144000  1
  Mn  Mn21  1  0.87723000  0.50078600  0.36340700  1
  Mn  Mn22  1  0.12784400  0.48994400  0.13144000  1
  Mn  Mn23  1  0.99370650  0.77074850  0.73655600  1
  O  O24  1  0.37312000  0.76437000  0.32621000  1
  O  O25  1  0.38519600  0.77383000  0.88743200  1
  O  O26  1  0.62028150  0.74520450  0.16866400  1
  O  O27  1  0.51009250  0.98882350  0.29045900  1
  O  O28  1  0.73366600  0.97503700  0.47805000  1
  O  O29  1  0.26584600  0.98860900  0.98557500  1
  O  O30  1  0.73366600  0.02496300  0.97805000  1
  O  O31  1  0.26584600  0.01139100  0.48557500  1
  O  O32  1  0.51009250  0.01117650  0.79045900  1
  O  O33  1  0.37312000  0.23563000  0.82621000  1
  O  O34  1  0.62028150  0.25479550  0.66866400  1
  O  O35  1  0.38519600  0.22617000  0.38743200  1
  O  O36  1  0.87312000  0.26437000  0.32621000  1
  O  O37  1  0.88519600  0.27383000  0.88743200  1
  O  O38  1  0.12028150  0.24520450  0.16866400  1
  O  O39  1  0.01009250  0.48882350  0.29045900  1
  O  O40  1  0.23366600  0.47503700  0.47805000  1
  O  O41  1  0.76584600  0.48860900  0.98557500  1
  O  O42  1  0.23366600  0.52496300  0.97805000  1
  O  O43  1  0.76584600  0.51139100  0.48557500  1
  O  O44  1  0.01009250  0.51117650  0.79045900  1
  O  O45  1  0.87312000  0.73563000  0.82621000  1
  O  O46  1  0.12028150  0.75479550  0.66866400  1
  O  O47  1  0.88519600  0.72617000  0.38743200  1
  F  F48  1  0.49589600  0.50593300  0.75953900  1
  F  F49  1  0.61704300  0.74889400  0.62637200  1
  F  F50  1  0.61704300  0.25110600  0.12637200  1
  F  F51  1  0.49589600  0.49406700  0.25953900  1
  F  F52  1  0.99589600  0.00593300  0.75953900  1
  F  F53  1  0.11704300  0.24889400  0.62637200  1
  F  F54  1  0.11704300  0.75110600  0.12637200  1
  F  F55  1  0.99589600  0.99406700  0.25953900  1
