# generated using pymatgen
data_LiPrPCO7
_symmetry_space_group_name_H-M   'P 1'
_cell_length_a   4.94248300
_cell_length_b   7.08894700
_cell_length_c   9.49011237
_cell_angle_alpha   90.00000000
_cell_angle_beta   94.82218638
_cell_angle_gamma   90.00000000
_symmetry_Int_Tables_number   1
_chemical_formula_structural   LiPrPCO7
_chemical_formula_sum   'Li2 Pr2 P2 C2 O14'
_cell_volume   331.32812661
_cell_formula_units_Z   2
loop_
 _symmetry_equiv_pos_site_id
 _symmetry_equiv_pos_as_xyz
  1  'x, y, z'
loop_
 _atom_site_type_symbol
 _atom_site_label
 _atom_site_symmetry_multiplicity
 _atom_site_fract_x
 _atom_site_fract_y
 _atom_site_fract_z
 _atom_site_occupancy
  Li  Li0  1  0.74976700  0.44525200  0.22528500  1
  Li  Li1  1  0.25023300  0.94525200  0.77471500  1
  Pr  Pr2  1  0.23756400  0.77738100  0.37207900  1
  Pr  Pr3  1  0.76243600  0.27738100  0.62792100  1
  P  P4  1  0.27237400  0.27882100  0.39641600  1
  P  P5  1  0.72762600  0.77882100  0.60358400  1
  C  C6  1  0.27915200  0.71727000  0.05966500  1
  C  C7  1  0.72084800  0.21727000  0.94033500  1
  O  O8  1  0.68704300  0.27020800  0.06426600  1
  O  O9  1  0.03991400  0.70418100  0.10280100  1
  O  O10  1  0.47747600  0.68037200  0.15357400  1
  O  O11  1  0.18597700  0.09325900  0.32254800  1
  O  O12  1  0.10554900  0.44928200  0.33721600  1
  O  O13  1  0.75850700  0.76321900  0.43931100  1
  O  O14  1  0.58098100  0.31860400  0.38839500  1
  O  O15  1  0.41901900  0.81860400  0.61160500  1
  O  O16  1  0.24149300  0.26321900  0.56068900  1
  O  O17  1  0.89445100  0.94928200  0.66278400  1
  O  O18  1  0.81402300  0.59325900  0.67745200  1
  O  O19  1  0.52252400  0.18037200  0.84642600  1
  O  O20  1  0.96008600  0.20418100  0.89719900  1
  O  O21  1  0.31295700  0.77020800  0.93573400  1
