# generated using pymatgen
data_NaSb5O13
_symmetry_space_group_name_H-M   'P 1'
_cell_length_a   6.68121400
_cell_length_b   9.04413400
_cell_length_c   16.78283300
_cell_angle_alpha   90.00000000
_cell_angle_beta   90.00000000
_cell_angle_gamma   90.00000000
_symmetry_Int_Tables_number   1
_chemical_formula_structural   NaSb5O13
_chemical_formula_sum   'Na4 Sb20 O52'
_cell_volume   1014.11602132
_cell_formula_units_Z   4
loop_
 _symmetry_equiv_pos_site_id
 _symmetry_equiv_pos_as_xyz
  1  'x, y, z'
loop_
 _atom_site_type_symbol
 _atom_site_label
 _atom_site_symmetry_multiplicity
 _atom_site_fract_x
 _atom_site_fract_y
 _atom_site_fract_z
 _atom_site_occupancy
  Na  Na0  1  0.52465700  0.37376000  0.75000000  1
  Na  Na1  1  0.52465700  0.62624000  0.25000000  1
  Na  Na2  1  0.02465700  0.87376000  0.75000000  1
  Na  Na3  1  0.02465700  0.12624000  0.25000000  1
  Sb  Sb4  1  0.50014550  0.88548050  0.07964400  1
  Sb  Sb5  1  0.50014550  0.11451950  0.92035600  1
  Sb  Sb6  1  0.00022800  0.00000000  0.00000000  1
  Sb  Sb7  1  0.50014550  0.88548050  0.42035600  1
  Sb  Sb8  1  0.50014550  0.11451950  0.57964400  1
  Sb  Sb9  1  0.00022800  0.00000000  0.50000000  1
  Sb  Sb10  1  0.50084650  0.26826550  0.36098200  1
  Sb  Sb11  1  0.50084650  0.26826550  0.13901800  1
  Sb  Sb12  1  0.50084650  0.73173450  0.86098200  1
  Sb  Sb13  1  0.50084650  0.73173450  0.63901800  1
  Sb  Sb14  1  0.00014550  0.38548050  0.07964400  1
  Sb  Sb15  1  0.00014550  0.61451950  0.92035600  1
  Sb  Sb16  1  0.50022800  0.50000000  0.00000000  1
  Sb  Sb17  1  0.00014550  0.38548050  0.42035600  1
  Sb  Sb18  1  0.00014550  0.61451950  0.57964400  1
  Sb  Sb19  1  0.50022800  0.50000000  0.50000000  1
  Sb  Sb20  1  0.00084650  0.76826550  0.36098200  1
  Sb  Sb21  1  0.00084650  0.76826550  0.13901800  1
  Sb  Sb22  1  0.00084650  0.23173450  0.86098200  1
  Sb  Sb23  1  0.00084650  0.23173450  0.63901800  1
  O  O24  1  0.29956750  0.23074450  0.86362400  1
  O  O25  1  0.29956750  0.76925550  0.36362400  1
  O  O26  1  0.29956750  0.76925550  0.13637600  1
  O  O27  1  0.29956750  0.23074450  0.63637600  1
  O  O28  1  0.31104900  0.00000000  0.00000000  1
  O  O29  1  0.31104900  0.00000000  0.50000000  1
  O  O30  1  0.50017350  0.51356450  0.61510700  1
  O  O31  1  0.49987550  0.67126150  0.75000000  1
  O  O32  1  0.50004450  0.72563350  0.98965600  1
  O  O33  1  0.50004450  0.72563350  0.51034400  1
  O  O34  1  0.49920950  0.94649950  0.65399000  1
  O  O35  1  0.49920950  0.05350050  0.15399000  1
  O  O36  1  0.50004450  0.27436650  0.48965600  1
  O  O37  1  0.50017350  0.48643550  0.38489300  1
  O  O38  1  0.49920950  0.05350050  0.34601000  1
  O  O39  1  0.50017350  0.48643550  0.11510700  1
  O  O40  1  0.49987550  0.32873850  0.25000000  1
  O  O41  1  0.50004450  0.27436650  0.01034400  1
  O  O42  1  0.50017350  0.51356450  0.88489300  1
  O  O43  1  0.49920950  0.94649950  0.84601000  1
  O  O44  1  0.68916000  0.00000000  0.50000000  1
  O  O45  1  0.68916000  0.00000000  0.00000000  1
  O  O46  1  0.70129000  0.76921600  0.36350600  1
  O  O47  1  0.70129000  0.23078400  0.63649400  1
  O  O48  1  0.70129000  0.23078400  0.86350600  1
  O  O49  1  0.70129000  0.76921600  0.13649400  1
  O  O50  1  0.79956750  0.73074450  0.86362400  1
  O  O51  1  0.79956750  0.26925550  0.36362400  1
  O  O52  1  0.79956750  0.26925550  0.13637600  1
  O  O53  1  0.79956750  0.73074450  0.63637600  1
  O  O54  1  0.81104900  0.50000000  0.00000000  1
  O  O55  1  0.81104900  0.50000000  0.50000000  1
  O  O56  1  0.00017350  0.01356450  0.61510700  1
  O  O57  1  0.99987550  0.17126150  0.75000000  1
  O  O58  1  0.00004450  0.22563350  0.98965600  1
  O  O59  1  0.00004450  0.22563350  0.51034400  1
  O  O60  1  0.99920950  0.44649950  0.65399000  1
  O  O61  1  0.99920950  0.55350050  0.15399000  1
  O  O62  1  0.00004450  0.77436650  0.48965600  1
  O  O63  1  0.00017350  0.98643550  0.38489300  1
  O  O64  1  0.99920950  0.55350050  0.34601000  1
  O  O65  1  0.00017350  0.98643550  0.11510700  1
  O  O66  1  0.99987550  0.82873850  0.25000000  1
  O  O67  1  0.00004450  0.77436650  0.01034400  1
  O  O68  1  0.00017350  0.01356450  0.88489300  1
  O  O69  1  0.99920950  0.44649950  0.84601000  1
  O  O70  1  0.18916000  0.50000000  0.50000000  1
  O  O71  1  0.18916000  0.50000000  0.00000000  1
  O  O72  1  0.20129000  0.26921600  0.36350600  1
  O  O73  1  0.20129000  0.73078400  0.63649400  1
  O  O74  1  0.20129000  0.73078400  0.86350600  1
  O  O75  1  0.20129000  0.26921600  0.13649400  1
