# generated using pymatgen
data_Li4Fe2C4SO16
_symmetry_space_group_name_H-M   'P 1'
_cell_length_a   13.04884200
_cell_length_b   13.29304600
_cell_length_c   14.21083200
_cell_angle_alpha   90.00000000
_cell_angle_beta   90.00000000
_cell_angle_gamma   90.00000000
_symmetry_Int_Tables_number   1
_chemical_formula_structural   Li4Fe2C4SO16
_chemical_formula_sum   'Li32 Fe16 C32 S8 O128'
_cell_volume   2464.99467507
_cell_formula_units_Z   8
loop_
 _symmetry_equiv_pos_site_id
 _symmetry_equiv_pos_as_xyz
  1  'x, y, z'
loop_
 _atom_site_type_symbol
 _atom_site_label
 _atom_site_symmetry_multiplicity
 _atom_site_fract_x
 _atom_site_fract_y
 _atom_site_fract_z
 _atom_site_occupancy
  Li  Li0  1  0.75000000  0.45245900  0.25000000  1
  Li  Li1  1  0.95420300  0.25000000  0.25000000  1
  Li  Li2  1  0.70420300  0.00000000  0.00000000  1
  Li  Li3  1  0.50000000  0.20245900  0.00000000  1
  Li  Li4  1  0.75000000  0.04754100  0.25000000  1
  Li  Li5  1  0.54579700  0.25000000  0.25000000  1
  Li  Li6  1  0.29579700  0.00000000  0.00000000  1
  Li  Li7  1  0.50000000  0.79754100  0.00000000  1
  Li  Li8  1  0.75000000  0.95245900  0.75000000  1
  Li  Li9  1  0.95420300  0.75000000  0.75000000  1
  Li  Li10  1  0.70420300  0.50000000  0.50000000  1
  Li  Li11  1  0.50000000  0.70245900  0.50000000  1
  Li  Li12  1  0.75000000  0.54754100  0.75000000  1
  Li  Li13  1  0.54579700  0.75000000  0.75000000  1
  Li  Li14  1  0.29579700  0.50000000  0.50000000  1
  Li  Li15  1  0.50000000  0.29754100  0.50000000  1
  Li  Li16  1  0.25000000  0.45245900  0.75000000  1
  Li  Li17  1  0.45420300  0.25000000  0.75000000  1
  Li  Li18  1  0.20420300  0.00000000  0.50000000  1
  Li  Li19  1  0.00000000  0.20245900  0.50000000  1
  Li  Li20  1  0.25000000  0.04754100  0.75000000  1
  Li  Li21  1  0.04579700  0.25000000  0.75000000  1
  Li  Li22  1  0.79579700  0.00000000  0.50000000  1
  Li  Li23  1  0.00000000  0.79754100  0.50000000  1
  Li  Li24  1  0.25000000  0.95245900  0.25000000  1
  Li  Li25  1  0.45420300  0.75000000  0.25000000  1
  Li  Li26  1  0.20420300  0.50000000  0.00000000  1
  Li  Li27  1  0.00000000  0.70245900  0.00000000  1
  Li  Li28  1  0.25000000  0.54754100  0.25000000  1
  Li  Li29  1  0.04579700  0.75000000  0.25000000  1
  Li  Li30  1  0.79579700  0.50000000  0.00000000  1
  Li  Li31  1  0.00000000  0.29754100  0.00000000  1
  Fe  Fe32  1  0.62500000  0.62500000  0.12500000  1
  Fe  Fe33  1  0.87500000  0.87500000  0.12500000  1
  Fe  Fe34  1  0.87500000  0.62500000  0.37500000  1
  Fe  Fe35  1  0.62500000  0.87500000  0.37500000  1
  Fe  Fe36  1  0.62500000  0.12500000  0.62500000  1
  Fe  Fe37  1  0.87500000  0.37500000  0.62500000  1
  Fe  Fe38  1  0.87500000  0.12500000  0.87500000  1
  Fe  Fe39  1  0.62500000  0.37500000  0.87500000  1
  Fe  Fe40  1  0.12500000  0.62500000  0.62500000  1
  Fe  Fe41  1  0.37500000  0.87500000  0.62500000  1
  Fe  Fe42  1  0.37500000  0.62500000  0.87500000  1
  Fe  Fe43  1  0.12500000  0.87500000  0.87500000  1
  Fe  Fe44  1  0.12500000  0.12500000  0.12500000  1
  Fe  Fe45  1  0.37500000  0.37500000  0.12500000  1
  Fe  Fe46  1  0.37500000  0.12500000  0.37500000  1
  Fe  Fe47  1  0.12500000  0.37500000  0.37500000  1
  C  C48  1  0.90231150  0.40566450  0.41370200  1
  C  C49  1  0.15231150  0.15566450  0.33629800  1
  C  C50  1  0.59768850  0.40566450  0.08629800  1
  C  C51  1  0.90231150  0.09433550  0.08629800  1
  C  C52  1  0.34768850  0.15566450  0.16370200  1
  C  C53  1  0.65231150  0.84433550  0.16370200  1
  C  C54  1  0.59768850  0.09433550  0.41370200  1
  C  C55  1  0.84768850  0.84433550  0.33629800  1
  C  C56  1  0.90231150  0.90566450  0.91370200  1
  C  C57  1  0.15231150  0.65566450  0.83629800  1
  C  C58  1  0.59768850  0.90566450  0.58629800  1
  C  C59  1  0.90231150  0.59433550  0.58629800  1
  C  C60  1  0.34768850  0.65566450  0.66370200  1
  C  C61  1  0.65231150  0.34433550  0.66370200  1
  C  C62  1  0.59768850  0.59433550  0.91370200  1
  C  C63  1  0.84768850  0.34433550  0.83629800  1
  C  C64  1  0.40231150  0.40566450  0.91370200  1
  C  C65  1  0.65231150  0.15566450  0.83629800  1
  C  C66  1  0.09768850  0.40566450  0.58629800  1
  C  C67  1  0.40231150  0.09433550  0.58629800  1
  C  C68  1  0.84768850  0.15566450  0.66370200  1
  C  C69  1  0.15231150  0.84433550  0.66370200  1
  C  C70  1  0.09768850  0.09433550  0.91370200  1
  C  C71  1  0.34768850  0.84433550  0.83629800  1
  C  C72  1  0.40231150  0.90566450  0.41370200  1
  C  C73  1  0.65231150  0.65566450  0.33629800  1
  C  C74  1  0.09768850  0.90566450  0.08629800  1
  C  C75  1  0.40231150  0.59433550  0.08629800  1
  C  C76  1  0.84768850  0.65566450  0.16370200  1
  C  C77  1  0.15231150  0.34433550  0.16370200  1
  C  C78  1  0.09768850  0.59433550  0.41370200  1
  C  C79  1  0.34768850  0.34433550  0.33629800  1
  S  S80  1  0.50000000  0.00000000  0.00000000  1
  S  S81  1  0.75000000  0.25000000  0.25000000  1
  S  S82  1  0.50000000  0.50000000  0.50000000  1
  S  S83  1  0.75000000  0.75000000  0.75000000  1
  S  S84  1  0.00000000  0.00000000  0.50000000  1
  S  S85  1  0.25000000  0.25000000  0.75000000  1
  S  S86  1  0.00000000  0.50000000  0.00000000  1
  S  S87  1  0.25000000  0.75000000  0.25000000  1
  O  O88  1  0.39009700  0.97571900  0.35135900  1
  O  O89  1  0.06817750  0.93285250  0.44307600  1
  O  O90  1  0.34324000  0.90091250  0.48646050  1
  O  O91  1  0.09324000  0.15091250  0.26353950  1
  O  O92  1  0.15676000  0.90091250  0.01353950  1
  O  O93  1  0.22475500  0.08951400  0.34813300  1
  O  O94  1  0.43182250  0.93285250  0.05692400  1
  O  O95  1  0.93182250  0.06714750  0.44307600  1
  O  O96  1  0.72475500  0.91048600  0.15186700  1
  O  O97  1  0.84324000  0.09908750  0.01353950  1
  O  O98  1  0.14009700  0.22571900  0.39864100  1
  O  O99  1  0.56817750  0.06714750  0.05692400  1
  O  O100  1  0.10990300  0.97571900  0.14864100  1
  O  O101  1  0.89009700  0.02428100  0.14864100  1
  O  O102  1  0.97475500  0.33951400  0.40186700  1
  O  O103  1  0.27524500  0.08951400  0.15186700  1
  O  O104  1  0.47475500  0.66048600  0.09813300  1
  O  O105  1  0.77524500  0.91048600  0.34813300  1
  O  O106  1  0.35990300  0.22571900  0.10135900  1
  O  O107  1  0.64009700  0.77428100  0.10135900  1
  O  O108  1  0.68182250  0.18285250  0.19307600  1
  O  O109  1  0.60990300  0.02428100  0.35135900  1
  O  O110  1  0.40676000  0.15091250  0.23646050  1
  O  O111  1  0.52524500  0.33951400  0.09813300  1
  O  O112  1  0.81817750  0.18285250  0.30692400  1
  O  O113  1  0.81817750  0.31714750  0.19307600  1
  O  O114  1  0.02524500  0.66048600  0.40186700  1
  O  O115  1  0.59324000  0.84908750  0.23646050  1
  O  O116  1  0.65676000  0.09908750  0.48646050  1
  O  O117  1  0.90676000  0.84908750  0.26353950  1
  O  O118  1  0.68182250  0.31714750  0.30692400  1
  O  O119  1  0.85990300  0.77428100  0.39864100  1
  O  O120  1  0.39009700  0.47571900  0.85135900  1
  O  O121  1  0.06817750  0.43285250  0.94307600  1
  O  O122  1  0.34324000  0.40091250  0.98646050  1
  O  O123  1  0.09324000  0.65091250  0.76353950  1
  O  O124  1  0.15676000  0.40091250  0.51353950  1
  O  O125  1  0.22475500  0.58951400  0.84813300  1
  O  O126  1  0.43182250  0.43285250  0.55692400  1
  O  O127  1  0.93182250  0.56714750  0.94307600  1
  O  O128  1  0.72475500  0.41048600  0.65186700  1
  O  O129  1  0.84324000  0.59908750  0.51353950  1
  O  O130  1  0.14009700  0.72571900  0.89864100  1
  O  O131  1  0.56817750  0.56714750  0.55692400  1
  O  O132  1  0.10990300  0.47571900  0.64864100  1
  O  O133  1  0.89009700  0.52428100  0.64864100  1
  O  O134  1  0.97475500  0.83951400  0.90186700  1
  O  O135  1  0.27524500  0.58951400  0.65186700  1
  O  O136  1  0.47475500  0.16048600  0.59813300  1
  O  O137  1  0.77524500  0.41048600  0.84813300  1
  O  O138  1  0.35990300  0.72571900  0.60135900  1
  O  O139  1  0.64009700  0.27428100  0.60135900  1
  O  O140  1  0.68182250  0.68285250  0.69307600  1
  O  O141  1  0.60990300  0.52428100  0.85135900  1
  O  O142  1  0.40676000  0.65091250  0.73646050  1
  O  O143  1  0.52524500  0.83951400  0.59813300  1
  O  O144  1  0.81817750  0.68285250  0.80692400  1
  O  O145  1  0.81817750  0.81714750  0.69307600  1
  O  O146  1  0.02524500  0.16048600  0.90186700  1
  O  O147  1  0.59324000  0.34908750  0.73646050  1
  O  O148  1  0.65676000  0.59908750  0.98646050  1
  O  O149  1  0.90676000  0.34908750  0.76353950  1
  O  O150  1  0.68182250  0.81714750  0.80692400  1
  O  O151  1  0.85990300  0.27428100  0.89864100  1
  O  O152  1  0.89009700  0.97571900  0.85135900  1
  O  O153  1  0.56817750  0.93285250  0.94307600  1
  O  O154  1  0.84324000  0.90091250  0.98646050  1
  O  O155  1  0.59324000  0.15091250  0.76353950  1
  O  O156  1  0.65676000  0.90091250  0.51353950  1
  O  O157  1  0.72475500  0.08951400  0.84813300  1
  O  O158  1  0.93182250  0.93285250  0.55692400  1
  O  O159  1  0.43182250  0.06714750  0.94307600  1
  O  O160  1  0.22475500  0.91048600  0.65186700  1
  O  O161  1  0.34324000  0.09908750  0.51353950  1
  O  O162  1  0.64009700  0.22571900  0.89864100  1
  O  O163  1  0.06817750  0.06714750  0.55692400  1
  O  O164  1  0.60990300  0.97571900  0.64864100  1
  O  O165  1  0.39009700  0.02428100  0.64864100  1
  O  O166  1  0.47475500  0.33951400  0.90186700  1
  O  O167  1  0.77524500  0.08951400  0.65186700  1
  O  O168  1  0.97475500  0.66048600  0.59813300  1
  O  O169  1  0.27524500  0.91048600  0.84813300  1
  O  O170  1  0.85990300  0.22571900  0.60135900  1
  O  O171  1  0.14009700  0.77428100  0.60135900  1
  O  O172  1  0.18182250  0.18285250  0.69307600  1
  O  O173  1  0.10990300  0.02428100  0.85135900  1
  O  O174  1  0.90676000  0.15091250  0.73646050  1
  O  O175  1  0.02524500  0.33951400  0.59813300  1
  O  O176  1  0.31817750  0.18285250  0.80692400  1
  O  O177  1  0.31817750  0.31714750  0.69307600  1
  O  O178  1  0.52524500  0.66048600  0.90186700  1
  O  O179  1  0.09324000  0.84908750  0.73646050  1
  O  O180  1  0.15676000  0.09908750  0.98646050  1
  O  O181  1  0.40676000  0.84908750  0.76353950  1
  O  O182  1  0.18182250  0.31714750  0.80692400  1
  O  O183  1  0.35990300  0.77428100  0.89864100  1
  O  O184  1  0.89009700  0.47571900  0.35135900  1
  O  O185  1  0.56817750  0.43285250  0.44307600  1
  O  O186  1  0.84324000  0.40091250  0.48646050  1
  O  O187  1  0.59324000  0.65091250  0.26353950  1
  O  O188  1  0.65676000  0.40091250  0.01353950  1
  O  O189  1  0.72475500  0.58951400  0.34813300  1
  O  O190  1  0.93182250  0.43285250  0.05692400  1
  O  O191  1  0.43182250  0.56714750  0.44307600  1
  O  O192  1  0.22475500  0.41048600  0.15186700  1
  O  O193  1  0.34324000  0.59908750  0.01353950  1
  O  O194  1  0.64009700  0.72571900  0.39864100  1
  O  O195  1  0.06817750  0.56714750  0.05692400  1
  O  O196  1  0.60990300  0.47571900  0.14864100  1
  O  O197  1  0.39009700  0.52428100  0.14864100  1
  O  O198  1  0.47475500  0.83951400  0.40186700  1
  O  O199  1  0.77524500  0.58951400  0.15186700  1
  O  O200  1  0.97475500  0.16048600  0.09813300  1
  O  O201  1  0.27524500  0.41048600  0.34813300  1
  O  O202  1  0.85990300  0.72571900  0.10135900  1
  O  O203  1  0.14009700  0.27428100  0.10135900  1
  O  O204  1  0.18182250  0.68285250  0.19307600  1
  O  O205  1  0.10990300  0.52428100  0.35135900  1
  O  O206  1  0.90676000  0.65091250  0.23646050  1
  O  O207  1  0.02524500  0.83951400  0.09813300  1
  O  O208  1  0.31817750  0.68285250  0.30692400  1
  O  O209  1  0.31817750  0.81714750  0.19307600  1
  O  O210  1  0.52524500  0.16048600  0.40186700  1
  O  O211  1  0.09324000  0.34908750  0.23646050  1
  O  O212  1  0.15676000  0.59908750  0.48646050  1
  O  O213  1  0.40676000  0.34908750  0.26353950  1
  O  O214  1  0.18182250  0.81714750  0.30692400  1
  O  O215  1  0.35990300  0.27428100  0.39864100  1
