# generated using pymatgen
data_Li5V4O8
_symmetry_space_group_name_H-M   'P 1'
_cell_length_a   6.07688580
_cell_length_b   6.07688580
_cell_length_c   14.75915399
_cell_angle_alpha   90.00000000
_cell_angle_beta   90.00000000
_cell_angle_gamma   120.00000000
_symmetry_Int_Tables_number   1
_chemical_formula_structural   Li5V4O8
_chemical_formula_sum   'Li15 V12 O24'
_cell_volume   472.01331079
_cell_formula_units_Z   3
loop_
 _symmetry_equiv_pos_site_id
 _symmetry_equiv_pos_as_xyz
  1  'x, y, z'
loop_
 _atom_site_type_symbol
 _atom_site_label
 _atom_site_symmetry_multiplicity
 _atom_site_fract_x
 _atom_site_fract_y
 _atom_site_fract_z
 _atom_site_occupancy
  Li  Li0  1  0.19522033  0.80477967  0.82426267  1
  Li  Li1  1  0.33333333  0.66666667  0.68529867  1
  Li  Li2  1  0.19522033  0.39044067  0.82426267  1
  Li  Li3  1  0.33333333  0.66666667  0.54251167  1
  Li  Li4  1  0.60955933  0.80477967  0.82426267  1
  Li  Li5  1  0.86188700  0.13811300  0.15759600  1
  Li  Li6  1  0.00000000  0.00000000  0.01863200  1
  Li  Li7  1  0.86188700  0.72377400  0.15759600  1
  Li  Li8  1  0.00000000  0.00000000  0.87584500  1
  Li  Li9  1  0.27622600  0.13811300  0.15759600  1
  Li  Li10  1  0.52855367  0.47144633  0.49092933  1
  Li  Li11  1  0.66666667  0.33333333  0.35196533  1
  Li  Li12  1  0.52855367  0.05710733  0.49092933  1
  Li  Li13  1  0.66666667  0.33333333  0.20917833  1
  Li  Li14  1  0.94289267  0.47144633  0.49092933  1
  V  V15  1  0.16652800  0.33305600  0.33281100  1
  V  V16  1  0.16652800  0.83347200  0.33281100  1
  V  V17  1  0.66694400  0.83347200  0.33281100  1
  V  V18  1  0.33333333  0.66666667  0.16747167  1
  V  V19  1  0.83319467  0.66638933  0.66614433  1
  V  V20  1  0.83319467  0.16680533  0.66614433  1
  V  V21  1  0.33361067  0.16680533  0.66614433  1
  V  V22  1  0.00000000  0.00000000  0.50080500  1
  V  V23  1  0.49986133  0.99972267  0.99947767  1
  V  V24  1  0.49986133  0.50013867  0.99947767  1
  V  V25  1  0.00027733  0.50013867  0.99947767  1
  V  V26  1  0.66666667  0.33333333  0.83413833  1
  O  O27  1  0.17345467  0.82654533  0.07727333  1
  O  O28  1  0.65309067  0.82654533  0.07727333  1
  O  O29  1  0.33333333  0.66666667  0.91845467  1
  O  O30  1  0.17345467  0.34690933  0.07727333  1
  O  O31  1  0.33333333  0.66666667  0.41461067  1
  O  O32  1  0.49461900  0.98923800  0.25671000  1
  O  O33  1  0.01076200  0.50538100  0.25671000  1
  O  O34  1  0.49461900  0.50538100  0.25671000  1
  O  O35  1  0.84012133  0.15987867  0.41060667  1
  O  O36  1  0.31975733  0.15987867  0.41060667  1
  O  O37  1  0.00000000  0.00000000  0.25178800  1
  O  O38  1  0.84012133  0.68024267  0.41060667  1
  O  O39  1  0.00000000  0.00000000  0.74794400  1
  O  O40  1  0.16128567  0.32257133  0.59004333  1
  O  O41  1  0.67742867  0.83871433  0.59004333  1
  O  O42  1  0.16128567  0.83871433  0.59004333  1
  O  O43  1  0.50678800  0.49321200  0.74394000  1
  O  O44  1  0.98642400  0.49321200  0.74394000  1
  O  O45  1  0.66666667  0.33333333  0.58512133  1
  O  O46  1  0.50678800  0.01357600  0.74394000  1
  O  O47  1  0.66666667  0.33333333  0.08127733  1
  O  O48  1  0.82795233  0.65590467  0.92337667  1
  O  O49  1  0.34409533  0.17204767  0.92337667  1
  O  O50  1  0.82795233  0.17204767  0.92337667  1
