# generated using pymatgen
data_Li2MnF4
_symmetry_space_group_name_H-M   'P 1'
_cell_length_a   2.97636600
_cell_length_b   9.65732600
_cell_length_c   9.90172300
_cell_angle_alpha   90.00000000
_cell_angle_beta   90.00000000
_cell_angle_gamma   90.00000000
_symmetry_Int_Tables_number   1
_chemical_formula_structural   Li2MnF4
_chemical_formula_sum   'Li8 Mn4 F16'
_cell_volume   284.61251936
_cell_formula_units_Z   4
loop_
 _symmetry_equiv_pos_site_id
 _symmetry_equiv_pos_as_xyz
  1  'x, y, z'
loop_
 _atom_site_type_symbol
 _atom_site_label
 _atom_site_symmetry_multiplicity
 _atom_site_fract_x
 _atom_site_fract_y
 _atom_site_fract_z
 _atom_site_occupancy
  Li  Li0  1  0.00000000  0.37426800  0.93890100  1
  Li  Li1  1  0.00000000  0.37426800  0.56109900  1
  Li  Li2  1  0.50000000  0.12573200  0.06109900  1
  Li  Li3  1  0.50000000  0.12573200  0.43890100  1
  Li  Li4  1  0.50000000  0.87426800  0.93890100  1
  Li  Li5  1  0.50000000  0.87426800  0.56109900  1
  Li  Li6  1  0.00000000  0.62573200  0.06109900  1
  Li  Li7  1  0.00000000  0.62573200  0.43890100  1
  Mn  Mn8  1  0.00000000  0.11803300  0.75000000  1
  Mn  Mn9  1  0.50000000  0.38196700  0.25000000  1
  Mn  Mn10  1  0.50000000  0.61803300  0.75000000  1
  Mn  Mn11  1  0.00000000  0.88196700  0.25000000  1
  F  F12  1  0.00000000  0.00000000  0.50000000  1
  F  F13  1  0.00000000  0.00000000  0.00000000  1
  F  F14  1  0.00000000  0.45837300  0.75000000  1
  F  F15  1  0.00000000  0.27896300  0.11805400  1
  F  F16  1  0.00000000  0.27896300  0.38194600  1
  F  F17  1  0.50000000  0.04162700  0.25000000  1
  F  F18  1  0.50000000  0.22103700  0.61805400  1
  F  F19  1  0.50000000  0.22103700  0.88194600  1
  F  F20  1  0.50000000  0.50000000  0.50000000  1
  F  F21  1  0.50000000  0.50000000  0.00000000  1
  F  F22  1  0.50000000  0.95837300  0.75000000  1
  F  F23  1  0.50000000  0.77896300  0.11805400  1
  F  F24  1  0.50000000  0.77896300  0.38194600  1
  F  F25  1  0.00000000  0.54162700  0.25000000  1
  F  F26  1  0.00000000  0.72103700  0.61805400  1
  F  F27  1  0.00000000  0.72103700  0.88194600  1
