# generated using pymatgen
data_La2SiO5
_symmetry_space_group_name_H-M   'P 1'
_cell_length_a   15.01906200
_cell_length_b   7.14465000
_cell_length_c   11.14509430
_cell_angle_alpha   90.00000000
_cell_angle_beta   121.82118540
_cell_angle_gamma   90.00000000
_symmetry_Int_Tables_number   1
_chemical_formula_structural   La2SiO5
_chemical_formula_sum   'La16 Si8 O40'
_cell_volume   1016.18318666
_cell_formula_units_Z   8
loop_
 _symmetry_equiv_pos_site_id
 _symmetry_equiv_pos_as_xyz
  1  'x, y, z'
loop_
 _atom_site_type_symbol
 _atom_site_label
 _atom_site_symmetry_multiplicity
 _atom_site_fract_x
 _atom_site_fract_y
 _atom_site_fract_z
 _atom_site_occupancy
  La  La0  1  0.35361250  0.88285150  0.66481100  1
  La  La1  1  0.53737150  0.24814150  0.96545400  1
  La  La2  1  0.46262850  0.24814150  0.53454600  1
  La  La3  1  0.35361250  0.11714850  0.16481100  1
  La  La4  1  0.64638750  0.88285150  0.83518900  1
  La  La5  1  0.53737150  0.75185850  0.46545400  1
  La  La6  1  0.46262850  0.75185850  0.03454600  1
  La  La7  1  0.64638750  0.11714850  0.33518900  1
  La  La8  1  0.85361250  0.38285150  0.66481100  1
  La  La9  1  0.03737150  0.74814150  0.96545400  1
  La  La10  1  0.96262850  0.74814150  0.53454600  1
  La  La11  1  0.85361250  0.61714850  0.16481100  1
  La  La12  1  0.14638750  0.38285150  0.83518900  1
  La  La13  1  0.03737150  0.25185850  0.46545400  1
  La  La14  1  0.96262850  0.25185850  0.03454600  1
  La  La15  1  0.14638750  0.61714850  0.33518900  1
  Si  Si16  1  0.17963400  0.08746600  0.30694600  1
  Si  Si17  1  0.32036600  0.58746600  0.19305400  1
  Si  Si18  1  0.67963400  0.41253400  0.80694600  1
  Si  Si19  1  0.82036600  0.91253400  0.69305400  1
  Si  Si20  1  0.67963400  0.58746600  0.30694600  1
  Si  Si21  1  0.82036600  0.08746600  0.19305400  1
  Si  Si22  1  0.17963400  0.91253400  0.80694600  1
  Si  Si23  1  0.32036600  0.41253400  0.69305400  1
  O  O24  1  0.09570250  0.00103250  0.14844400  1
  O  O25  1  0.30336700  0.56325200  0.57043100  1
  O  O26  1  0.38057000  0.22314100  0.68316500  1
  O  O27  1  0.20703950  0.64158850  0.17195500  1
  O  O28  1  0.29296050  0.14158850  0.32804500  1
  O  O29  1  0.51522750  0.91048550  0.89367500  1
  O  O30  1  0.48477250  0.91048550  0.60632500  1
  O  O31  1  0.40429750  0.50103250  0.35155600  1
  O  O32  1  0.30336700  0.43674800  0.07043100  1
  O  O33  1  0.61943000  0.22314100  0.81683500  1
  O  O34  1  0.38057000  0.77685900  0.18316500  1
  O  O35  1  0.69663300  0.56325200  0.92956900  1
  O  O36  1  0.59570250  0.49896750  0.64844400  1
  O  O37  1  0.51522750  0.08951450  0.39367500  1
  O  O38  1  0.48477250  0.08951450  0.10632500  1
  O  O39  1  0.70703950  0.85841150  0.67195500  1
  O  O40  1  0.79296050  0.35841150  0.82804500  1
  O  O41  1  0.61943000  0.77685900  0.31683500  1
  O  O42  1  0.69663300  0.43674800  0.42956900  1
  O  O43  1  0.90429750  0.99896750  0.85155600  1
  O  O44  1  0.59570250  0.50103250  0.14844400  1
  O  O45  1  0.80336700  0.06325200  0.57043100  1
  O  O46  1  0.88057000  0.72314100  0.68316500  1
  O  O47  1  0.70703950  0.14158850  0.17195500  1
  O  O48  1  0.79296050  0.64158850  0.32804500  1
  O  O49  1  0.01522750  0.41048550  0.89367500  1
  O  O50  1  0.98477250  0.41048550  0.60632500  1
  O  O51  1  0.90429750  0.00103250  0.35155600  1
  O  O52  1  0.80336700  0.93674800  0.07043100  1
  O  O53  1  0.11943000  0.72314100  0.81683500  1
  O  O54  1  0.88057000  0.27685900  0.18316500  1
  O  O55  1  0.19663300  0.06325200  0.92956900  1
  O  O56  1  0.09570250  0.99896750  0.64844400  1
  O  O57  1  0.01522750  0.58951450  0.39367500  1
  O  O58  1  0.98477250  0.58951450  0.10632500  1
  O  O59  1  0.20703950  0.35841150  0.67195500  1
  O  O60  1  0.29296050  0.85841150  0.82804500  1
  O  O61  1  0.11943000  0.27685900  0.31683500  1
  O  O62  1  0.19663300  0.93674800  0.42956900  1
  O  O63  1  0.40429750  0.49896750  0.85155600  1
