# generated using pymatgen
data_Bi24B2O39
_symmetry_space_group_name_H-M   'P 1'
_cell_length_a   8.73859600
_cell_length_b   8.88414573
_cell_length_c   14.25180532
_cell_angle_alpha   90.03399485
_cell_angle_beta   90.17125474
_cell_angle_gamma   109.73363505
_symmetry_Int_Tables_number   1
_chemical_formula_structural   Bi24B2O39
_chemical_formula_sum   'Bi24 B2 O39'
_cell_volume   1041.45381371
_cell_formula_units_Z   1
loop_
 _symmetry_equiv_pos_site_id
 _symmetry_equiv_pos_as_xyz
  1  'x, y, z'
loop_
 _atom_site_type_symbol
 _atom_site_label
 _atom_site_symmetry_multiplicity
 _atom_site_fract_x
 _atom_site_fract_y
 _atom_site_fract_z
 _atom_site_occupancy
  Bi  Bi0  1  0.61482400  0.79096400  0.91785800  1
  Bi  Bi1  1  0.24292700  0.40838800  0.91081000  1
  Bi  Bi2  1  0.18835100  0.47851500  0.63860100  1
  Bi  Bi3  1  0.52440800  0.82665600  0.66458400  1
  Bi  Bi4  1  0.32903900  0.03143500  0.83591700  1
  Bi  Bi5  1  0.99225100  0.65776700  0.82426200  1
  Bi  Bi6  1  0.24182300  0.73853900  0.42767800  1
  Bi  Bi7  1  0.75665200  0.23136800  0.92687400  1
  Bi  Bi8  1  0.58083100  0.44182000  0.74904300  1
  Bi  Bi9  1  0.07269400  0.94065700  0.24019500  1
  Bi  Bi10  1  0.08440400  0.27508300  0.41559500  1
  Bi  Bi11  1  0.88715300  0.72772300  0.59206200  1
  Bi  Bi12  1  0.73086100  0.89184000  0.40966900  1
  Bi  Bi13  1  0.27680000  0.08445300  0.57967900  1
  Bi  Bi14  1  0.94857600  0.08188100  0.75747000  1
  Bi  Bi15  1  0.44390800  0.56693000  0.27597000  1
  Bi  Bi16  1  0.73462900  0.23842100  0.57211100  1
  Bi  Bi17  1  0.27257200  0.74372500  0.08244300  1
  Bi  Bi18  1  0.01079500  0.32345700  0.16137400  1
  Bi  Bi19  1  0.67181000  0.98829900  0.14788700  1
  Bi  Bi20  1  0.82808000  0.52081300  0.34200100  1
  Bi  Bi21  1  0.48802600  0.14956700  0.34541400  1
  Bi  Bi22  1  0.36073700  0.20150100  0.08528000  1
  Bi  Bi23  1  0.73512300  0.56490200  0.09667700  1
  B  B24  1  0.98867100  0.01166200  0.00335400  1
  B  B25  1  0.50826700  0.50915900  0.49771500  1
  O  O26  1  0.31897400  0.70514600  0.94166200  1
  O  O27  1  0.04656900  0.91278700  0.70183100  1
  O  O28  1  0.99168800  0.18311500  0.00344300  1
  O  O29  1  0.03773000  0.43228700  0.84211700  1
  O  O30  1  0.58724700  0.93776100  0.80696600  1
  O  O31  1  0.90597700  0.92829800  0.91460300  1
  O  O32  1  0.16356800  0.00981200  0.00752800  1
  O  O33  1  0.41833900  0.54995700  0.80277600  1
  O  O34  1  0.21299600  0.82123300  0.56316700  1
  O  O35  1  0.20266300  0.20442500  0.80087400  1
  O  O36  1  0.50074000  0.24591600  0.88771900  1
  O  O37  1  0.75395900  0.52805100  0.87033300  1
  O  O38  1  0.02448500  0.24130300  0.62464100  1
  O  O39  1  0.73946900  0.99422700  0.60924700  1
  O  O40  1  0.10310300  0.50049000  0.49762500  1
  O  O41  1  0.60517200  0.00320400  0.99870800  1
  O  O42  1  0.69732000  0.69838400  0.70031700  1
  O  O43  1  0.50618100  0.67750200  0.49522400  1
  O  O44  1  0.40592300  0.41675700  0.57970700  1
  O  O45  1  0.43645000  0.08260500  0.69181900  1
  O  O46  1  0.54481100  0.92550000  0.32562900  1
  O  O47  1  0.08212300  0.43827500  0.30784600  1
  O  O48  1  0.93870100  0.55676700  0.68190900  1
  O  O49  1  0.68083900  0.50683000  0.50556500  1
  O  O50  1  0.43178000  0.42041800  0.40581600  1
  O  O51  1  0.70098500  0.69778500  0.30273800  1
  O  O52  1  0.50103100  0.10582300  0.49884500  1
  O  O53  1  0.99446300  0.73956700  0.38876700  1
  O  O54  1  0.24249300  0.01272400  0.37008500  1
  O  O55  1  0.22090000  0.48706400  0.10027400  1
  O  O56  1  0.51727800  0.74393200  0.12624200  1
  O  O57  1  0.19373200  0.19710200  0.19877400  1
  O  O58  1  0.81890000  0.21338600  0.43567300  1
  O  O59  1  0.55145200  0.42223800  0.19588200  1
  O  O60  1  0.89732100  0.92446000  0.09026200  1
  O  O61  1  0.92655800  0.57772400  0.18941100  1
  O  O62  1  0.41749400  0.03003400  0.16876600  1
  O  O63  1  0.91914200  0.04861400  0.30591400  1
  O  O64  1  0.74722800  0.33226500  0.06077900  1
