# generated using pymatgen
data_Al10ZnO16
_symmetry_space_group_name_H-M   'P 1'
_cell_length_a   5.71554836
_cell_length_b   5.71554836
_cell_length_c   27.37458500
_cell_angle_alpha   90.00000000
_cell_angle_beta   90.00000000
_cell_angle_gamma   120.00000000
_symmetry_Int_Tables_number   1
_chemical_formula_structural   Al10ZnO16
_chemical_formula_sum   'Al30 Zn3 O48'
_cell_volume   774.45106936
_cell_formula_units_Z   3
loop_
 _symmetry_equiv_pos_site_id
 _symmetry_equiv_pos_as_xyz
  1  'x, y, z'
loop_
 _atom_site_type_symbol
 _atom_site_label
 _atom_site_symmetry_multiplicity
 _atom_site_fract_x
 _atom_site_fract_y
 _atom_site_fract_z
 _atom_site_occupancy
  Al  Al0  1  0.33333333  0.66666667  0.16502067  1
  Al  Al1  1  0.66666667  0.33333333  0.02558733  1
  Al  Al2  1  0.16479867  0.83520133  0.07985933  1
  Al  Al3  1  0.67040267  0.83520133  0.07985933  1
  Al  Al4  1  0.98979000  0.49489500  0.25432600  1
  Al  Al5  1  0.00000000  0.00000000  0.18889200  1
  Al  Al6  1  0.50510500  0.01021000  0.25432600  1
  Al  Al7  1  0.16479867  0.32959733  0.07985933  1
  Al  Al8  1  0.50510500  0.49489500  0.25432600  1
  Al  Al9  1  0.00000000  0.00000000  0.30971100  1
  Al  Al10  1  0.00000000  0.00000000  0.49835400  1
  Al  Al11  1  0.33333333  0.66666667  0.35892067  1
  Al  Al12  1  0.83146533  0.16853467  0.41319267  1
  Al  Al13  1  0.33706933  0.16853467  0.41319267  1
  Al  Al14  1  0.65645667  0.82822833  0.58765933  1
  Al  Al15  1  0.66666667  0.33333333  0.52222533  1
  Al  Al16  1  0.17177167  0.34354333  0.58765933  1
  Al  Al17  1  0.83146533  0.66293067  0.41319267  1
  Al  Al18  1  0.17177167  0.82822833  0.58765933  1
  Al  Al19  1  0.66666667  0.33333333  0.64304433  1
  Al  Al20  1  0.66666667  0.33333333  0.83168733  1
  Al  Al21  1  0.00000000  0.00000000  0.69225400  1
  Al  Al22  1  0.49813200  0.50186800  0.74652600  1
  Al  Al23  1  0.00373600  0.50186800  0.74652600  1
  Al  Al24  1  0.32312333  0.16156167  0.92099267  1
  Al  Al25  1  0.33333333  0.66666667  0.85555867  1
  Al  Al26  1  0.83843833  0.67687667  0.92099267  1
  Al  Al27  1  0.49813200  0.99626400  0.74652600  1
  Al  Al28  1  0.83843833  0.16156167  0.92099267  1
  Al  Al29  1  0.33333333  0.66666667  0.97637767  1
  Zn  Zn30  1  0.66666667  0.33333333  0.14352933  1
  Zn  Zn31  1  0.33333333  0.66666667  0.47686267  1
  Zn  Zn32  1  0.00000000  0.00000000  0.81019600  1
  O  O33  1  0.47879433  0.95758867  0.12156167  1
  O  O34  1  0.04241133  0.52120567  0.12156167  1
  O  O35  1  0.33333333  0.66666667  0.28990967  1
  O  O36  1  0.32973133  0.16486567  0.04727067  1
  O  O37  1  0.00000000  0.00000000  0.12228600  1
  O  O38  1  0.83513433  0.67026867  0.04727067  1
  O  O39  1  0.17924367  0.82075633  0.20925033  1
  O  O40  1  0.83513433  0.16486567  0.04727067  1
  O  O41  1  0.47879433  0.52120567  0.12156167  1
  O  O42  1  0.83398067  0.66796133  0.28653433  1
  O  O43  1  0.83398067  0.16601933  0.28653433  1
  O  O44  1  0.33203867  0.16601933  0.28653433  1
  O  O45  1  0.33333333  0.66666667  0.04207267  1
  O  O46  1  0.66666667  0.33333333  0.21659233  1
  O  O47  1  0.64151267  0.82075633  0.20925033  1
  O  O48  1  0.17924367  0.35848733  0.20925033  1
  O  O49  1  0.14546100  0.29092200  0.45489500  1
  O  O50  1  0.70907800  0.85453900  0.45489500  1
  O  O51  1  0.00000000  0.00000000  0.62324300  1
  O  O52  1  0.99639800  0.49819900  0.38060400  1
  O  O53  1  0.66666667  0.33333333  0.45561933  1
  O  O54  1  0.50180100  0.00360200  0.38060400  1
  O  O55  1  0.84591033  0.15408967  0.54258367  1
  O  O56  1  0.50180100  0.49819900  0.38060400  1
  O  O57  1  0.14546100  0.85453900  0.45489500  1
  O  O58  1  0.50064733  0.00129467  0.61986767  1
  O  O59  1  0.50064733  0.49935267  0.61986767  1
  O  O60  1  0.99870533  0.49935267  0.61986767  1
  O  O61  1  0.00000000  0.00000000  0.37540600  1
  O  O62  1  0.33333333  0.66666667  0.54992567  1
  O  O63  1  0.30817933  0.15408967  0.54258367  1
  O  O64  1  0.84591033  0.69182067  0.54258367  1
  O  O65  1  0.81212767  0.62425533  0.78822833  1
  O  O66  1  0.37574467  0.18787233  0.78822833  1
  O  O67  1  0.66666667  0.33333333  0.95657633  1
  O  O68  1  0.66306467  0.83153233  0.71393733  1
  O  O69  1  0.33333333  0.66666667  0.78895267  1
  O  O70  1  0.16846767  0.33693533  0.71393733  1
  O  O71  1  0.51257700  0.48742300  0.87591700  1
  O  O72  1  0.16846767  0.83153233  0.71393733  1
  O  O73  1  0.81212767  0.18787233  0.78822833  1
  O  O74  1  0.16731400  0.33462800  0.95320100  1
  O  O75  1  0.16731400  0.83268600  0.95320100  1
  O  O76  1  0.66537200  0.83268600  0.95320100  1
  O  O77  1  0.66666667  0.33333333  0.70873933  1
  O  O78  1  0.00000000  0.00000000  0.88325900  1
  O  O79  1  0.97484600  0.48742300  0.87591700  1
  O  O80  1  0.51257700  0.02515400  0.87591700  1
