# generated using pymatgen
data_Ho2P4O13
_symmetry_space_group_name_H-M   'P 1'
_cell_length_a   8.73913800
_cell_length_b   9.73593200
_cell_length_c   14.08219204
_cell_angle_alpha   90.00000000
_cell_angle_beta   105.33700523
_cell_angle_gamma   90.00000000
_symmetry_Int_Tables_number   1
_chemical_formula_structural   Ho2P4O13
_chemical_formula_sum   'Ho8 P16 O52'
_cell_volume   1155.49386879
_cell_formula_units_Z   4
loop_
 _symmetry_equiv_pos_site_id
 _symmetry_equiv_pos_as_xyz
  1  'x, y, z'
loop_
 _atom_site_type_symbol
 _atom_site_label
 _atom_site_symmetry_multiplicity
 _atom_site_fract_x
 _atom_site_fract_y
 _atom_site_fract_z
 _atom_site_occupancy
  Ho  Ho0  1  0.71558100  0.00081600  0.00948000  1
  Ho  Ho1  1  0.78669000  0.00423100  0.48788300  1
  Ho  Ho2  1  0.71558100  0.49918400  0.50948000  1
  Ho  Ho3  1  0.78669000  0.49576900  0.98788300  1
  Ho  Ho4  1  0.21331000  0.50423100  0.01211700  1
  Ho  Ho5  1  0.28441900  0.50081600  0.49052000  1
  Ho  Ho6  1  0.21331000  0.99576900  0.51211700  1
  Ho  Ho7  1  0.28441900  0.99918400  0.99052000  1
  P  P8  1  0.96992400  0.28043700  0.40484600  1
  P  P9  1  0.88670100  0.24503300  0.18628400  1
  P  P10  1  0.76425800  0.73200400  0.31518800  1
  P  P11  1  0.96992400  0.21956300  0.90484600  1
  P  P12  1  0.88670100  0.25496700  0.68628400  1
  P  P13  1  0.54066000  0.71918100  0.09830200  1
  P  P14  1  0.76425800  0.76799600  0.81518800  1
  P  P15  1  0.45934000  0.21918100  0.40169800  1
  P  P16  1  0.54066000  0.78081900  0.59830200  1
  P  P17  1  0.23574200  0.23200400  0.18481200  1
  P  P18  1  0.45934000  0.28081900  0.90169800  1
  P  P19  1  0.11329900  0.74503300  0.31371600  1
  P  P20  1  0.03007600  0.78043700  0.09515400  1
  P  P21  1  0.23574200  0.26799600  0.68481200  1
  P  P22  1  0.11329900  0.75496700  0.81371600  1
  P  P23  1  0.03007600  0.71956300  0.59515400  1
  O  O24  1  0.93115600  0.69123300  0.29258300  1
  O  O25  1  0.87428700  0.84728000  0.09728800  1
  O  O26  1  0.98839500  0.12876400  0.44027400  1
  O  O27  1  0.86222500  0.37537400  0.12711900  1
  O  O28  1  0.86216100  0.27734400  0.29211300  1
  O  O29  1  0.87652100  0.36217600  0.46195100  1
  O  O30  1  0.77678800  0.12762700  0.14527400  1
  O  O31  1  0.93115600  0.80876700  0.79258300  1
  O  O32  1  0.87428700  0.65272000  0.59728800  1
  O  O33  1  0.98839500  0.37123600  0.94027400  1
  O  O34  1  0.63567800  0.63223000  0.04484500  1
  O  O35  1  0.77279400  0.87480300  0.35639900  1
  O  O36  1  0.86222500  0.12462600  0.62711900  1
  O  O37  1  0.86216100  0.22265600  0.79211300  1
  O  O38  1  0.72063600  0.61910600  0.37635200  1
  O  O39  1  0.63828800  0.73028800  0.21187000  1
  O  O40  1  0.87652100  0.13782400  0.96195100  1
  O  O41  1  0.61700400  0.15362700  0.40229500  1
  O  O42  1  0.51878800  0.87025500  0.05888400  1
  O  O43  1  0.77678800  0.37237300  0.64527400  1
  O  O44  1  0.63567800  0.86777000  0.54484500  1
  O  O45  1  0.77279400  0.62519700  0.85639900  1
  O  O46  1  0.72063600  0.88089400  0.87635200  1
  O  O47  1  0.63828800  0.76971200  0.71187000  1
  O  O48  1  0.48121200  0.37025500  0.44111600  1
  O  O49  1  0.38299600  0.65362700  0.09770500  1
  O  O50  1  0.61700400  0.34637300  0.90229500  1
  O  O51  1  0.51878800  0.62974500  0.55888400  1
  O  O52  1  0.36171200  0.23028800  0.28813000  1
  O  O53  1  0.27936400  0.11910600  0.12364800  1
  O  O54  1  0.22720600  0.37480300  0.14360100  1
  O  O55  1  0.36432200  0.13223000  0.45515500  1
  O  O56  1  0.22321200  0.62762700  0.35472600  1
  O  O57  1  0.48121200  0.12974500  0.94111600  1
  O  O58  1  0.38299600  0.84637300  0.59770500  1
  O  O59  1  0.12347900  0.86217600  0.03804900  1
  O  O60  1  0.36171200  0.26971200  0.78813000  1
  O  O61  1  0.27936400  0.38089400  0.62364800  1
  O  O62  1  0.13783900  0.77734400  0.20788700  1
  O  O63  1  0.13777500  0.87537400  0.37288100  1
  O  O64  1  0.22720600  0.12519700  0.64360100  1
  O  O65  1  0.36432200  0.36777000  0.95515500  1
  O  O66  1  0.01160500  0.62876400  0.05972600  1
  O  O67  1  0.12571300  0.34728000  0.40271200  1
  O  O68  1  0.06884400  0.19123300  0.20741700  1
  O  O69  1  0.22321200  0.87237300  0.85472600  1
  O  O70  1  0.12347900  0.63782400  0.53804900  1
  O  O71  1  0.13783900  0.72265600  0.70788700  1
  O  O72  1  0.13777500  0.62462600  0.87288100  1
  O  O73  1  0.01160500  0.87123600  0.55972600  1
  O  O74  1  0.12571300  0.15272000  0.90271200  1
  O  O75  1  0.06884400  0.30876700  0.70741700  1
