# generated using pymatgen
data_La3Ti2N3O4
_symmetry_space_group_name_H-M   'P 1'
_cell_length_a   3.95491200
_cell_length_b   3.95491200
_cell_length_c   20.76430200
_cell_angle_alpha   90.00000000
_cell_angle_beta   90.00000000
_cell_angle_gamma   90.00000000
_symmetry_Int_Tables_number   1
_chemical_formula_structural   La3Ti2N3O4
_chemical_formula_sum   'La6 Ti4 N6 O8'
_cell_volume   324.78127754
_cell_formula_units_Z   2
loop_
 _symmetry_equiv_pos_site_id
 _symmetry_equiv_pos_as_xyz
  1  'x, y, z'
loop_
 _atom_site_type_symbol
 _atom_site_label
 _atom_site_symmetry_multiplicity
 _atom_site_fract_x
 _atom_site_fract_y
 _atom_site_fract_z
 _atom_site_occupancy
  La  La0  1  0.00000000  0.00000000  0.00000000  1
  La  La1  1  0.00000000  0.00000000  0.18207200  1
  La  La2  1  0.50000000  0.50000000  0.31792800  1
  La  La3  1  0.50000000  0.50000000  0.50000000  1
  La  La4  1  0.50000000  0.50000000  0.68207200  1
  La  La5  1  0.00000000  0.00000000  0.81792800  1
  Ti  Ti6  1  0.00000000  0.00000000  0.40680200  1
  Ti  Ti7  1  0.50000000  0.50000000  0.09319800  1
  Ti  Ti8  1  0.50000000  0.50000000  0.90680200  1
  Ti  Ti9  1  0.00000000  0.00000000  0.59319800  1
  N  N10  1  0.50000000  0.50000000  0.00000000  1
  N  N11  1  0.50000000  0.00000000  0.09995800  1
  N  N12  1  0.50000000  0.00000000  0.40004200  1
  N  N13  1  0.00000000  0.00000000  0.50000000  1
  N  N14  1  0.00000000  0.50000000  0.59995800  1
  N  N15  1  0.00000000  0.50000000  0.90004200  1
  O  O16  1  0.00000000  0.00000000  0.29491100  1
  O  O17  1  0.50000000  0.50000000  0.20508900  1
  O  O18  1  0.00000000  0.50000000  0.10480000  1
  O  O19  1  0.00000000  0.50000000  0.39520000  1
  O  O20  1  0.50000000  0.50000000  0.79491100  1
  O  O21  1  0.00000000  0.00000000  0.70508900  1
  O  O22  1  0.50000000  0.00000000  0.60480000  1
  O  O23  1  0.50000000  0.00000000  0.89520000  1
