# generated using pymatgen
data_Rb2CaH8(N3O)4
_symmetry_space_group_name_H-M   'P 1'
_cell_length_a   11.23107400
_cell_length_b   19.61667200
_cell_length_c   6.32673700
_cell_angle_alpha   90.00000000
_cell_angle_beta   90.00000000
_cell_angle_gamma   90.00000000
_symmetry_Int_Tables_number   1
_chemical_formula_structural   Rb2CaH8(N3O)4
_chemical_formula_sum   'Rb8 Ca4 H32 N48 O16'
_cell_volume   1393.88325443
_cell_formula_units_Z   4
loop_
 _symmetry_equiv_pos_site_id
 _symmetry_equiv_pos_as_xyz
  1  'x, y, z'
loop_
 _atom_site_type_symbol
 _atom_site_label
 _atom_site_symmetry_multiplicity
 _atom_site_fract_x
 _atom_site_fract_y
 _atom_site_fract_z
 _atom_site_occupancy
  Rb  Rb0  1  0.50000000  0.16855400  0.00000000  1
  Rb  Rb1  1  0.50000000  0.33144600  0.50000000  1
  Rb  Rb2  1  0.00000000  0.16855400  0.50000000  1
  Rb  Rb3  1  0.00000000  0.33144600  0.00000000  1
  Rb  Rb4  1  0.00000000  0.66855400  0.00000000  1
  Rb  Rb5  1  0.00000000  0.83144600  0.50000000  1
  Rb  Rb6  1  0.50000000  0.66855400  0.50000000  1
  Rb  Rb7  1  0.50000000  0.83144600  0.00000000  1
  Ca  Ca8  1  0.00000000  0.00000000  0.00000000  1
  Ca  Ca9  1  0.50000000  0.00000000  0.50000000  1
  Ca  Ca10  1  0.50000000  0.50000000  0.00000000  1
  Ca  Ca11  1  0.00000000  0.50000000  0.50000000  1
  H  H12  1  0.70289150  0.42100350  0.14774000  1
  H  H13  1  0.70289150  0.07899650  0.64774000  1
  H  H14  1  0.79710850  0.42100350  0.64774000  1
  H  H15  1  0.79710850  0.07899650  0.14774000  1
  H  H16  1  0.29710850  0.07899650  0.35226000  1
  H  H17  1  0.29710850  0.42100350  0.85226000  1
  H  H18  1  0.20289150  0.07899650  0.85226000  1
  H  H19  1  0.20289150  0.42100350  0.35226000  1
  H  H20  1  0.63710000  0.36456900  0.01567900  1
  H  H21  1  0.63710000  0.13543100  0.51567900  1
  H  H22  1  0.86290000  0.36456900  0.51567900  1
  H  H23  1  0.86290000  0.13543100  0.01567900  1
  H  H24  1  0.36290000  0.13543100  0.48432100  1
  H  H25  1  0.36290000  0.36456900  0.98432100  1
  H  H26  1  0.13710000  0.13543100  0.98432100  1
  H  H27  1  0.13710000  0.36456900  0.48432100  1
  H  H28  1  0.20289150  0.92100350  0.14774000  1
  H  H29  1  0.20289150  0.57899650  0.64774000  1
  H  H30  1  0.29710850  0.92100350  0.64774000  1
  H  H31  1  0.29710850  0.57899650  0.14774000  1
  H  H32  1  0.79710850  0.57899650  0.35226000  1
  H  H33  1  0.79710850  0.92100350  0.85226000  1
  H  H34  1  0.70289150  0.57899650  0.85226000  1
  H  H35  1  0.70289150  0.92100350  0.35226000  1
  H  H36  1  0.13710000  0.86456900  0.01567900  1
  H  H37  1  0.13710000  0.63543100  0.51567900  1
  H  H38  1  0.36290000  0.86456900  0.51567900  1
  H  H39  1  0.36290000  0.63543100  0.01567900  1
  H  H40  1  0.86290000  0.63543100  0.48432100  1
  H  H41  1  0.86290000  0.86456900  0.98432100  1
  H  H42  1  0.63710000  0.63543100  0.98432100  1
  H  H43  1  0.63710000  0.86456900  0.48432100  1
  N  N44  1  0.66798550  0.28782350  0.85040100  1
  N  N45  1  0.66798550  0.21217650  0.35040100  1
  N  N46  1  0.83201450  0.28782350  0.35040100  1
  N  N47  1  0.83201450  0.21217650  0.85040100  1
  N  N48  1  0.33201450  0.21217650  0.64959900  1
  N  N49  1  0.33201450  0.28782350  0.14959900  1
  N  N50  1  0.16798550  0.21217650  0.14959900  1
  N  N51  1  0.16798550  0.28782350  0.64959900  1
  N  N52  1  0.75000000  0.25000000  0.85152500  1
  N  N53  1  0.75000000  0.25000000  0.35152500  1
  N  N54  1  0.25000000  0.25000000  0.64847500  1
  N  N55  1  0.25000000  0.25000000  0.14847500  1
  N  N56  1  0.36758850  0.03528550  0.84783100  1
  N  N57  1  0.36758850  0.46471450  0.34783100  1
  N  N58  1  0.13241150  0.03528550  0.34783100  1
  N  N59  1  0.13241150  0.46471450  0.84783100  1
  N  N60  1  0.63241150  0.46471450  0.65216900  1
  N  N61  1  0.63241150  0.03528550  0.15216900  1
  N  N62  1  0.86758850  0.46471450  0.15216900  1
  N  N63  1  0.86758850  0.03528550  0.65216900  1
  N  N64  1  0.86774000  0.00000000  0.50000000  1
  N  N65  1  0.36774000  0.00000000  0.00000000  1
  N  N66  1  0.63226000  0.00000000  0.00000000  1
  N  N67  1  0.13226000  0.00000000  0.50000000  1
  N  N68  1  0.16798550  0.78782350  0.85040100  1
  N  N69  1  0.16798550  0.71217650  0.35040100  1
  N  N70  1  0.33201450  0.78782350  0.35040100  1
  N  N71  1  0.33201450  0.71217650  0.85040100  1
  N  N72  1  0.83201450  0.71217650  0.64959900  1
  N  N73  1  0.83201450  0.78782350  0.14959900  1
  N  N74  1  0.66798550  0.71217650  0.14959900  1
  N  N75  1  0.66798550  0.78782350  0.64959900  1
  N  N76  1  0.25000000  0.75000000  0.85152500  1
  N  N77  1  0.25000000  0.75000000  0.35152500  1
  N  N78  1  0.75000000  0.75000000  0.64847500  1
  N  N79  1  0.75000000  0.75000000  0.14847500  1
  N  N80  1  0.86758850  0.53528550  0.84783100  1
  N  N81  1  0.86758850  0.96471450  0.34783100  1
  N  N82  1  0.63241150  0.53528550  0.34783100  1
  N  N83  1  0.63241150  0.96471450  0.84783100  1
  N  N84  1  0.13241150  0.96471450  0.65216900  1
  N  N85  1  0.13241150  0.53528550  0.15216900  1
  N  N86  1  0.36758850  0.96471450  0.15216900  1
  N  N87  1  0.36758850  0.53528550  0.65216900  1
  N  N88  1  0.36774000  0.50000000  0.50000000  1
  N  N89  1  0.86774000  0.50000000  0.00000000  1
  N  N90  1  0.13226000  0.50000000  0.00000000  1
  N  N91  1  0.63226000  0.50000000  0.50000000  1
  O  O92  1  0.62273350  0.40459350  0.10873000  1
  O  O93  1  0.62273350  0.09540650  0.60873000  1
  O  O94  1  0.87726650  0.40459350  0.60873000  1
  O  O95  1  0.87726650  0.09540650  0.10873000  1
  O  O96  1  0.37726650  0.09540650  0.39127000  1
  O  O97  1  0.37726650  0.40459350  0.89127000  1
  O  O98  1  0.12273350  0.09540650  0.89127000  1
  O  O99  1  0.12273350  0.40459350  0.39127000  1
  O  O100  1  0.12273350  0.90459350  0.10873000  1
  O  O101  1  0.12273350  0.59540650  0.60873000  1
  O  O102  1  0.37726650  0.90459350  0.60873000  1
  O  O103  1  0.37726650  0.59540650  0.10873000  1
  O  O104  1  0.87726650  0.59540650  0.39127000  1
  O  O105  1  0.87726650  0.90459350  0.89127000  1
  O  O106  1  0.62273350  0.59540650  0.89127000  1
  O  O107  1  0.62273350  0.90459350  0.39127000  1
