# generated using pymatgen
data_CaH2I2O7
_symmetry_space_group_name_H-M   'P 1'
_cell_length_a   7.62754900
_cell_length_b   10.16259500
_cell_length_c   8.60601108
_cell_angle_alpha   90.00000000
_cell_angle_beta   95.07420451
_cell_angle_gamma   90.00000000
_symmetry_Int_Tables_number   1
_chemical_formula_structural   CaH2I2O7
_chemical_formula_sum   'Ca4 H8 I8 O28'
_cell_volume   664.48652053
_cell_formula_units_Z   4
loop_
 _symmetry_equiv_pos_site_id
 _symmetry_equiv_pos_as_xyz
  1  'x, y, z'
loop_
 _atom_site_type_symbol
 _atom_site_label
 _atom_site_symmetry_multiplicity
 _atom_site_fract_x
 _atom_site_fract_y
 _atom_site_fract_z
 _atom_site_occupancy
  Ca  Ca0  1  0.83644700  0.00806000  0.78734200  1
  Ca  Ca1  1  0.66355300  0.50806000  0.21265800  1
  Ca  Ca2  1  0.16355300  0.99194000  0.21265800  1
  Ca  Ca3  1  0.33644700  0.49194000  0.78734200  1
  H  H4  1  0.18128100  0.00523800  0.63108200  1
  H  H5  1  0.31871900  0.50523800  0.36891800  1
  H  H6  1  0.81871900  0.99476200  0.36891800  1
  H  H7  1  0.68128100  0.49476200  0.63108200  1
  H  H8  1  0.22077800  0.09800900  0.77871100  1
  H  H9  1  0.27922200  0.59800900  0.22128900  1
  H  H10  1  0.77922200  0.90199100  0.22128900  1
  H  H11  1  0.72077800  0.40199100  0.77871100  1
  I  I12  1  0.95674100  0.69008100  0.97197500  1
  I  I13  1  0.54325900  0.19008100  0.02802500  1
  I  I14  1  0.04325900  0.30991900  0.02802500  1
  I  I15  1  0.45674100  0.80991900  0.97197500  1
  I  I16  1  0.55433800  0.18649600  0.48520600  1
  I  I17  1  0.94566200  0.68649600  0.51479400  1
  I  I18  1  0.44566200  0.81350400  0.51479400  1
  I  I19  1  0.05433800  0.31350400  0.48520600  1
  O  O20  1  0.04214000  0.85965200  0.97812900  1
  O  O21  1  0.45786000  0.35965200  0.02187100  1
  O  O22  1  0.95786000  0.14034800  0.02187100  1
  O  O23  1  0.54214000  0.64034800  0.97812900  1
  O  O24  1  0.89597700  0.66985900  0.16986400  1
  O  O25  1  0.60402300  0.16985900  0.83013600  1
  O  O26  1  0.10402300  0.33014100  0.83013600  1
  O  O27  1  0.39597700  0.83014100  0.16986400  1
  O  O28  1  0.16894300  0.60226700  0.99150600  1
  O  O29  1  0.33105700  0.10226700  0.00849400  1
  O  O30  1  0.83105700  0.39773300  0.00849400  1
  O  O31  1  0.66894300  0.89773300  0.99150600  1
  O  O32  1  0.88523500  0.81334500  0.64980300  1
  O  O33  1  0.61476500  0.31334500  0.35019700  1
  O  O34  1  0.11476500  0.18665500  0.35019700  1
  O  O35  1  0.38523500  0.68665500  0.64980300  1
  O  O36  1  0.51966300  0.93676600  0.66145500  1
  O  O37  1  0.98033700  0.43676600  0.33854500  1
  O  O38  1  0.48033700  0.06323400  0.33854500  1
  O  O39  1  0.01966300  0.56323400  0.66145500  1
  O  O40  1  0.77734900  0.12216000  0.53868800  1
  O  O41  1  0.72265100  0.62216000  0.46131200  1
  O  O42  1  0.22265100  0.87784000  0.46131200  1
  O  O43  1  0.27734900  0.37784000  0.53868800  1
  O  O44  1  0.12974900  0.07193900  0.69629600  1
  O  O45  1  0.37025100  0.57193900  0.30370400  1
  O  O46  1  0.87025100  0.92806100  0.30370400  1
  O  O47  1  0.62974900  0.42806100  0.69629600  1
