# generated using pymatgen
data_Li8Cr3TeO12
_symmetry_space_group_name_H-M   'P 1'
_cell_length_a   5.04856728
_cell_length_b   8.60868900
_cell_length_c   5.06505312
_cell_angle_alpha   90.00000000
_cell_angle_beta   90.37227387
_cell_angle_gamma   90.00000000
_symmetry_Int_Tables_number   1
_chemical_formula_structural   Li8Cr3TeO12
_chemical_formula_sum   'Li8 Cr3 Te1 O12'
_cell_volume   220.13039063
_cell_formula_units_Z   1
loop_
 _symmetry_equiv_pos_site_id
 _symmetry_equiv_pos_as_xyz
  1  'x, y, z'
loop_
 _atom_site_type_symbol
 _atom_site_label
 _atom_site_symmetry_multiplicity
 _atom_site_fract_x
 _atom_site_fract_y
 _atom_site_fract_z
 _atom_site_occupancy
  Li  Li0  1  0.50000000  0.41702500  0.00000000  1
  Li  Li1  1  0.50000000  0.70817200  0.00000000  1
  Li  Li2  1  0.00000000  0.74425500  0.00000000  1
  Li  Li3  1  0.00000000  0.07974600  0.00000000  1
  Li  Li4  1  0.50000000  0.55035700  0.50000000  1
  Li  Li5  1  0.50000000  0.26724500  0.50000000  1
  Li  Li6  1  0.00000000  0.92649700  0.50000000  1
  Li  Li7  1  0.00000000  0.24528300  0.50000000  1
  Cr  Cr8  1  0.00000000  0.40548500  0.00000000  1
  Cr  Cr9  1  0.00000000  0.57294500  0.50000000  1
  Cr  Cr10  1  0.50000000  0.09515500  0.00000000  1
  Te  Te11  1  0.50000000  0.90165600  0.50000000  1
  O  O12  1  0.26324900  0.74737600  0.34756900  1
  O  O13  1  0.28247400  0.06657500  0.33203500  1
  O  O14  1  0.22464700  0.41567700  0.32662800  1
  O  O15  1  0.78555900  0.56515800  0.16494500  1
  O  O16  1  0.71969100  0.91664200  0.18337900  1
  O  O17  1  0.76071300  0.24549200  0.14647300  1
  O  O18  1  0.23928700  0.24549200  0.85352700  1
  O  O19  1  0.28030900  0.91664200  0.81662100  1
  O  O20  1  0.21444100  0.56515800  0.83505500  1
  O  O21  1  0.77535300  0.41567700  0.67337200  1
  O  O22  1  0.71752600  0.06657500  0.66796500  1
  O  O23  1  0.73675100  0.74737600  0.65243100  1
