# generated using pymatgen
data_Na2FePCO7
_symmetry_space_group_name_H-M   'P 1'
_cell_length_a   8.34284800
_cell_length_b   8.35632033
_cell_length_c   10.35270023
_cell_angle_alpha   108.05067909
_cell_angle_beta   108.08162546
_cell_angle_gamma   102.50861921
_symmetry_Int_Tables_number   1
_chemical_formula_structural   Na2FePCO7
_chemical_formula_sum   'Na8 Fe4 P4 C4 O28'
_cell_volume   612.03233885
_cell_formula_units_Z   4
loop_
 _symmetry_equiv_pos_site_id
 _symmetry_equiv_pos_as_xyz
  1  'x, y, z'
loop_
 _atom_site_type_symbol
 _atom_site_label
 _atom_site_symmetry_multiplicity
 _atom_site_fract_x
 _atom_site_fract_y
 _atom_site_fract_z
 _atom_site_occupancy
  Na  Na0  1  0.46069200  0.70587900  0.92764100  1
  Na  Na1  1  0.94576900  0.19980100  0.91323000  1
  Na  Na2  1  0.72758400  0.74759900  0.73187700  1
  Na  Na3  1  0.99951000  0.48176300  0.73275100  1
  Na  Na4  1  0.00049000  0.51823700  0.26724900  1
  Na  Na5  1  0.27241600  0.25240100  0.26812300  1
  Na  Na6  1  0.53930800  0.29412100  0.07235900  1
  Na  Na7  1  0.05423100  0.80019900  0.08677000  1
  Fe  Fe8  1  0.54942100  0.29951700  0.65691700  1
  Fe  Fe9  1  0.07113700  0.82161000  0.65380000  1
  Fe  Fe10  1  0.92886300  0.17839000  0.34620000  1
  Fe  Fe11  1  0.45057900  0.70048300  0.34308300  1
  P  P12  1  0.30825800  0.55703100  0.57372300  1
  P  P13  1  0.80905700  0.06071400  0.57799400  1
  P  P14  1  0.69174200  0.44296900  0.42627700  1
  P  P15  1  0.19094300  0.93928600  0.42200600  1
  C  C16  1  0.73620500  0.48181700  0.93598500  1
  C  C17  1  0.22097200  0.97527500  0.93459100  1
  C  C18  1  0.77902800  0.02472500  0.06540900  1
  C  C19  1  0.26379500  0.51818300  0.06401500  1
  O  O20  1  0.70230000  0.93740900  0.92558100  1
  O  O21  1  0.17605900  0.44122600  0.92346200  1
  O  O22  1  0.58969100  0.34037200  0.87356200  1
  O  O23  1  0.07809400  0.82749100  0.87025300  1
  O  O24  1  0.78556700  0.53744400  0.84423800  1
  O  O25  1  0.27650300  0.02449800  0.84319600  1
  O  O26  1  0.91533100  0.97829200  0.67569200  1
  O  O27  1  0.22574800  0.66352700  0.67127300  1
  O  O28  1  0.43073700  0.49074800  0.67608900  1
  O  O29  1  0.74237100  0.18336400  0.67949700  1
  O  O30  1  0.84321500  0.59831600  0.57027400  1
  O  O31  1  0.34237500  0.08613400  0.56632500  1
  O  O32  1  0.93626200  0.18360600  0.53693600  1
  O  O33  1  0.42678900  0.67803600  0.52616600  1
  O  O34  1  0.06373800  0.81639400  0.46306400  1
  O  O35  1  0.57321100  0.32196400  0.47383400  1
  O  O36  1  0.65762500  0.91386600  0.43367500  1
  O  O37  1  0.15678500  0.40168400  0.42972600  1
  O  O38  1  0.25762900  0.81663600  0.32050300  1
  O  O39  1  0.56926300  0.50925200  0.32391100  1
  O  O40  1  0.77425200  0.33647300  0.32872700  1
  O  O41  1  0.08466900  0.02170800  0.32430800  1
  O  O42  1  0.72349700  0.97550200  0.15680400  1
  O  O43  1  0.21443300  0.46255600  0.15576200  1
  O  O44  1  0.92190600  0.17250900  0.12974700  1
  O  O45  1  0.41030900  0.65962800  0.12643800  1
  O  O46  1  0.82394100  0.55877400  0.07653800  1
  O  O47  1  0.29770000  0.06259100  0.07441900  1
