# generated using pymatgen
data_Li4Nb3Fe3(TeO8)2
_symmetry_space_group_name_H-M   'P 1'
_cell_length_a   10.95924000
_cell_length_b   6.07895000
_cell_length_c   10.50071958
_cell_angle_alpha   90.00000000
_cell_angle_beta   90.47151727
_cell_angle_gamma   90.00000000
_symmetry_Int_Tables_number   1
_chemical_formula_structural   Li4Nb3Fe3(TeO8)2
_chemical_formula_sum   'Li8 Nb6 Fe6 Te4 O32'
_cell_volume   699.54130590
_cell_formula_units_Z   2
loop_
 _symmetry_equiv_pos_site_id
 _symmetry_equiv_pos_as_xyz
  1  'x, y, z'
loop_
 _atom_site_type_symbol
 _atom_site_label
 _atom_site_symmetry_multiplicity
 _atom_site_fract_x
 _atom_site_fract_y
 _atom_site_fract_z
 _atom_site_occupancy
  Li  Li0  1  0.66964500  0.00000000  0.90380300  1
  Li  Li1  1  0.50233800  0.50000000  0.99666300  1
  Li  Li2  1  0.99907500  0.00000000  0.48379000  1
  Li  Li3  1  0.83954100  0.50000000  0.40348700  1
  Li  Li4  1  0.16964500  0.50000000  0.90380300  1
  Li  Li5  1  0.00233800  0.00000000  0.99666300  1
  Li  Li6  1  0.49907500  0.50000000  0.48379000  1
  Li  Li7  1  0.33954100  0.00000000  0.40348700  1
  Nb  Nb8  1  0.81896500  0.00000000  0.23492700  1
  Nb  Nb9  1  0.90688650  0.74248150  0.72073700  1
  Nb  Nb10  1  0.90688650  0.25751850  0.72073700  1
  Nb  Nb11  1  0.31896500  0.50000000  0.23492700  1
  Nb  Nb12  1  0.40688650  0.24248150  0.72073700  1
  Nb  Nb13  1  0.40688650  0.75751850  0.72073700  1
  Fe  Fe14  1  0.58634050  0.24376950  0.21388700  1
  Fe  Fe15  1  0.58634050  0.75623050  0.21388700  1
  Fe  Fe16  1  0.66636700  0.50000000  0.70627000  1
  Fe  Fe17  1  0.08634050  0.74376950  0.21388700  1
  Fe  Fe18  1  0.08634050  0.25623050  0.21388700  1
  Fe  Fe19  1  0.16636700  0.00000000  0.70627000  1
  Te  Te20  1  0.64408600  0.00000000  0.49591300  1
  Te  Te21  1  0.82987500  0.50000000  0.01726400  1
  Te  Te22  1  0.14408600  0.50000000  0.49591300  1
  Te  Te23  1  0.32987500  0.00000000  0.01726400  1
  O  O24  1  0.57203400  0.25365700  0.59130200  1
  O  O25  1  0.52335400  0.00000000  0.35441300  1
  O  O26  1  0.68585300  0.00000000  0.10347600  1
  O  O27  1  0.98889000  0.00000000  0.30078300  1
  O  O28  1  0.99917000  0.00000000  0.81110700  1
  O  O29  1  0.57203400  0.74634300  0.59130200  1
  O  O30  1  0.75467550  0.23343750  0.33530800  1
  O  O31  1  0.75467550  0.76656250  0.33530800  1
  O  O32  1  0.66761200  0.50000000  0.09835200  1
  O  O33  1  0.86069100  0.00000000  0.60473700  1
  O  O34  1  0.76152050  0.74379350  0.81718600  1
  O  O35  1  0.76152050  0.25620650  0.81718600  1
  O  O36  1  0.84224400  0.50000000  0.59690100  1
  O  O37  1  0.91271000  0.74731200  0.10423200  1
  O  O38  1  0.99617000  0.50000000  0.82612700  1
  O  O39  1  0.91271000  0.25268800  0.10423200  1
  O  O40  1  0.07203400  0.75365700  0.59130200  1
  O  O41  1  0.02335400  0.50000000  0.35441300  1
  O  O42  1  0.18585300  0.50000000  0.10347600  1
  O  O43  1  0.48889000  0.50000000  0.30078300  1
  O  O44  1  0.49917000  0.50000000  0.81110700  1
  O  O45  1  0.07203400  0.24634300  0.59130200  1
  O  O46  1  0.25467550  0.73343750  0.33530800  1
  O  O47  1  0.25467550  0.26656250  0.33530800  1
  O  O48  1  0.16761200  0.00000000  0.09835200  1
  O  O49  1  0.36069100  0.50000000  0.60473700  1
  O  O50  1  0.26152050  0.24379350  0.81718600  1
  O  O51  1  0.26152050  0.75620650  0.81718600  1
  O  O52  1  0.34224400  0.00000000  0.59690100  1
  O  O53  1  0.41271000  0.24731200  0.10423200  1
  O  O54  1  0.49617000  0.00000000  0.82612700  1
  O  O55  1  0.41271000  0.75268800  0.10423200  1
