# generated using pymatgen
data_Mo2P3O13
_symmetry_space_group_name_H-M   'P 1'
_cell_length_a   10.96047800
_cell_length_b   14.48538000
_cell_length_c   8.95840650
_cell_angle_alpha   90.00000000
_cell_angle_beta   126.31673293
_cell_angle_gamma   90.00000000
_symmetry_Int_Tables_number   1
_chemical_formula_structural   Mo2P3O13
_chemical_formula_sum   'Mo8 P12 O52'
_cell_volume   1146.02304958
_cell_formula_units_Z   4
loop_
 _symmetry_equiv_pos_site_id
 _symmetry_equiv_pos_as_xyz
  1  'x, y, z'
loop_
 _atom_site_type_symbol
 _atom_site_label
 _atom_site_symmetry_multiplicity
 _atom_site_fract_x
 _atom_site_fract_y
 _atom_site_fract_z
 _atom_site_occupancy
  Mo  Mo0  1  0.75495800  0.08830700  0.32520300  1
  Mo  Mo1  1  0.24504200  0.08830700  0.17479700  1
  Mo  Mo2  1  0.24504200  0.91169300  0.67479700  1
  Mo  Mo3  1  0.75495800  0.91169300  0.82520300  1
  Mo  Mo4  1  0.25495800  0.58830700  0.32520300  1
  Mo  Mo5  1  0.74504200  0.58830700  0.17479700  1
  Mo  Mo6  1  0.74504200  0.41169300  0.67479700  1
  Mo  Mo7  1  0.25495800  0.41169300  0.82520300  1
  P  P8  1  0.55596700  0.79382000  0.93833000  1
  P  P9  1  0.44403300  0.20618000  0.06167000  1
  P  P10  1  0.50000000  0.50959100  0.25000000  1
  P  P11  1  0.50000000  0.49040900  0.75000000  1
  P  P12  1  0.44403300  0.79382000  0.56167000  1
  P  P13  1  0.55596700  0.20618000  0.43833000  1
  P  P14  1  0.05596700  0.29382000  0.93833000  1
  P  P15  1  0.94403300  0.70618000  0.06167000  1
  P  P16  1  0.00000000  0.00959100  0.25000000  1
  P  P17  1  0.00000000  0.99040900  0.75000000  1
  P  P18  1  0.94403300  0.29382000  0.56167000  1
  P  P19  1  0.05596700  0.70618000  0.43833000  1
  O  O20  1  0.37485450  0.72563750  0.40688200  1
  O  O21  1  0.12925950  0.92900450  0.78139300  1
  O  O22  1  0.12925950  0.07099550  0.28139300  1
  O  O23  1  0.41355850  0.84253350  0.89947900  1
  O  O24  1  0.66683500  0.86777700  0.95877300  1
  O  O25  1  0.58644150  0.15746650  0.10052100  1
  O  O26  1  0.32623200  0.98181900  0.22951000  1
  O  O27  1  0.41355850  0.15746650  0.39947900  1
  O  O28  1  0.58644150  0.84253350  0.60052100  1
  O  O29  1  0.06189200  0.05249500  0.92080300  1
  O  O30  1  0.62514550  0.27436250  0.59311800  1
  O  O31  1  0.67376800  0.01818100  0.77049000  1
  O  O32  1  0.32623200  0.01818100  0.72951000  1
  O  O33  1  0.50000000  0.26183200  0.25000000  1
  O  O34  1  0.50000000  0.73816800  0.75000000  1
  O  O35  1  0.33316500  0.13222300  0.04122700  1
  O  O36  1  0.93810800  0.05249500  0.57919700  1
  O  O37  1  0.87074050  0.07099550  0.21860700  1
  O  O38  1  0.66683500  0.13222300  0.45877300  1
  O  O39  1  0.67376800  0.98181900  0.27049000  1
  O  O40  1  0.06189200  0.94750500  0.42080300  1
  O  O41  1  0.93810800  0.94750500  0.07919700  1
  O  O42  1  0.33316500  0.86777700  0.54122700  1
  O  O43  1  0.62514550  0.72563750  0.09311800  1
  O  O44  1  0.87074050  0.92900450  0.71860700  1
  O  O45  1  0.37485450  0.27436250  0.90688200  1
  O  O46  1  0.87485450  0.22563750  0.40688200  1
  O  O47  1  0.62925950  0.42900450  0.78139300  1
  O  O48  1  0.62925950  0.57099550  0.28139300  1
  O  O49  1  0.91355850  0.34253350  0.89947900  1
  O  O50  1  0.16683500  0.36777700  0.95877300  1
  O  O51  1  0.08644150  0.65746650  0.10052100  1
  O  O52  1  0.82623200  0.48181900  0.22951000  1
  O  O53  1  0.91355850  0.65746650  0.39947900  1
  O  O54  1  0.08644150  0.34253350  0.60052100  1
  O  O55  1  0.56189200  0.55249500  0.92080300  1
  O  O56  1  0.12514550  0.77436250  0.59311800  1
  O  O57  1  0.17376800  0.51818100  0.77049000  1
  O  O58  1  0.82623200  0.51818100  0.72951000  1
  O  O59  1  0.00000000  0.76183200  0.25000000  1
  O  O60  1  0.00000000  0.23816800  0.75000000  1
  O  O61  1  0.83316500  0.63222300  0.04122700  1
  O  O62  1  0.43810800  0.55249500  0.57919700  1
  O  O63  1  0.37074050  0.57099550  0.21860700  1
  O  O64  1  0.16683500  0.63222300  0.45877300  1
  O  O65  1  0.17376800  0.48181900  0.27049000  1
  O  O66  1  0.56189200  0.44750500  0.42080300  1
  O  O67  1  0.43810800  0.44750500  0.07919700  1
  O  O68  1  0.83316500  0.36777700  0.54122700  1
  O  O69  1  0.12514550  0.22563750  0.09311800  1
  O  O70  1  0.37074050  0.42900450  0.71860700  1
  O  O71  1  0.87485450  0.77436250  0.90688200  1
