# generated using pymatgen
data_Fe5Co(PO4)6
_symmetry_space_group_name_H-M   'P 1'
_cell_length_a   8.60186374
_cell_length_b   8.60186374
_cell_length_c   20.19351964
_cell_angle_alpha   90.00000000
_cell_angle_beta   90.00000000
_cell_angle_gamma   120.00000000
_symmetry_Int_Tables_number   1
_chemical_formula_structural   Fe5Co(PO4)6
_chemical_formula_sum   'Fe15 Co3 P18 O72'
_cell_volume   1293.98061560
_cell_formula_units_Z   3
loop_
 _symmetry_equiv_pos_site_id
 _symmetry_equiv_pos_as_xyz
  1  'x, y, z'
loop_
 _atom_site_type_symbol
 _atom_site_label
 _atom_site_symmetry_multiplicity
 _atom_site_fract_x
 _atom_site_fract_y
 _atom_site_fract_z
 _atom_site_occupancy
  Fe  Fe0  1  0.33333333  0.66666667  0.66819767  1
  Fe  Fe1  1  0.33333333  0.66666667  0.01989967  1
  Fe  Fe2  1  0.33333333  0.66666667  0.16572167  1
  Fe  Fe3  1  0.33333333  0.66666667  0.81192867  1
  Fe  Fe4  1  0.33333333  0.66666667  0.31258467  1
  Fe  Fe5  1  0.00000000  0.00000000  0.00153100  1
  Fe  Fe6  1  0.00000000  0.00000000  0.35323300  1
  Fe  Fe7  1  0.00000000  0.00000000  0.49905500  1
  Fe  Fe8  1  0.00000000  0.00000000  0.14526200  1
  Fe  Fe9  1  0.00000000  0.00000000  0.64591800  1
  Fe  Fe10  1  0.66666667  0.33333333  0.33486433  1
  Fe  Fe11  1  0.66666667  0.33333333  0.68656633  1
  Fe  Fe12  1  0.66666667  0.33333333  0.83238833  1
  Fe  Fe13  1  0.66666667  0.33333333  0.47859533  1
  Fe  Fe14  1  0.66666667  0.33333333  0.97925133  1
  Co  Co15  1  0.33333333  0.66666667  0.52665967  1
  Co  Co16  1  0.00000000  0.00000000  0.85999300  1
  Co  Co17  1  0.66666667  0.33333333  0.19332633  1
  P  P18  1  0.37664233  0.04138867  0.08511567  1
  P  P19  1  0.66474633  0.62335767  0.08511567  1
  P  P20  1  0.95861133  0.33525367  0.08511567  1
  P  P21  1  0.70189833  0.00257767  0.24817067  1
  P  P22  1  0.99742233  0.69932067  0.24817067  1
  P  P23  1  0.30067933  0.29810167  0.24817067  1
  P  P24  1  0.04330900  0.37472200  0.41844900  1
  P  P25  1  0.33141300  0.95669100  0.41844900  1
  P  P26  1  0.62527800  0.66858700  0.41844900  1
  P  P27  1  0.36856500  0.33591100  0.58150400  1
  P  P28  1  0.66408900  0.03265400  0.58150400  1
  P  P29  1  0.96734600  0.63143500  0.58150400  1
  P  P30  1  0.70997567  0.70805533  0.75178233  1
  P  P31  1  0.99807967  0.29002433  0.75178233  1
  P  P32  1  0.29194467  0.00192033  0.75178233  1
  P  P33  1  0.03523167  0.66924433  0.91483733  1
  P  P34  1  0.33075567  0.36598733  0.91483733  1
  P  P35  1  0.63401267  0.96476833  0.91483733  1
  O  O36  1  0.31878767  0.85659833  0.35490833  1
  O  O37  1  0.53781067  0.68121233  0.35490833  1
  O  O38  1  0.14340167  0.46218933  0.35490833  1
  O  O39  1  0.18316900  0.01616800  0.07274500  1
  O  O40  1  0.47142033  0.14023067  0.14772867  1
  O  O41  1  0.34511700  0.84562900  0.09504000  1
  O  O42  1  0.83299900  0.81683100  0.07274500  1
  O  O43  1  0.50051200  0.65488300  0.09504000  1
  O  O44  1  0.80625367  0.01183633  0.18655333  1
  O  O45  1  0.15437100  0.49948800  0.09504000  1
  O  O46  1  0.67844000  0.17206800  0.25889200  1
  O  O47  1  0.98816367  0.79441733  0.18655333  1
  O  O48  1  0.66881033  0.52857967  0.14772867  1
  O  O49  1  0.98383200  0.16700100  0.07274500  1
  O  O50  1  0.50968033  0.83688267  0.23801867  1
  O  O51  1  0.85976933  0.33118967  0.14772867  1
  O  O52  1  0.16311733  0.67279767  0.23801867  1
  O  O53  1  0.82793200  0.50637200  0.25889200  1
  O  O54  1  0.32720233  0.49031967  0.23801867  1
  O  O55  1  0.20558267  0.19374633  0.18655333  1
  O  O56  1  0.49362800  0.32156000  0.25889200  1
  O  O57  1  0.53399700  0.87023200  0.97782900  1
  O  O58  1  0.12976800  0.66376500  0.97782900  1
  O  O59  1  0.33623500  0.46600300  0.97782900  1
  O  O60  1  0.98545433  0.18993167  0.68824167  1
  O  O61  1  0.20447733  0.01454567  0.68824167  1
  O  O62  1  0.81006833  0.79552267  0.68824167  1
  O  O63  1  0.84983567  0.34950133  0.40607833  1
  O  O64  1  0.13808700  0.47356400  0.48106200  1
  O  O65  1  0.01178367  0.17896233  0.42837333  1
  O  O66  1  0.49966567  0.15016433  0.40607833  1
  O  O67  1  0.16717867  0.98821633  0.42837333  1
  O  O68  1  0.47292033  0.34516967  0.51988667  1
  O  O69  1  0.82103767  0.83282133  0.42837333  1
  O  O70  1  0.34510667  0.50540133  0.59222533  1
  O  O71  1  0.65483033  0.12775067  0.51988667  1
  O  O72  1  0.33547700  0.86191300  0.48106200  1
  O  O73  1  0.65049867  0.50033433  0.40607833  1
  O  O74  1  0.17634700  0.17021600  0.57135200  1
  O  O75  1  0.52643600  0.66452300  0.48106200  1
  O  O76  1  0.82978400  0.00613100  0.57135200  1
  O  O77  1  0.49459867  0.83970533  0.59222533  1
  O  O78  1  0.99386900  0.82365300  0.57135200  1
  O  O79  1  0.87224933  0.52707967  0.51988667  1
  O  O80  1  0.16029467  0.65489333  0.59222533  1
  O  O81  1  0.20066367  0.20356533  0.31116233  1
  O  O82  1  0.79643467  0.99709833  0.31116233  1
  O  O83  1  0.00290167  0.79933633  0.31116233  1
  O  O84  1  0.65212100  0.52326500  0.02157500  1
  O  O85  1  0.87114400  0.34787900  0.02157500  1
  O  O86  1  0.47673500  0.12885600  0.02157500  1
  O  O87  1  0.51650233  0.68283467  0.73941167  1
  O  O88  1  0.80475367  0.80689733  0.81439533  1
  O  O89  1  0.67845033  0.51229567  0.76170667  1
  O  O90  1  0.16633233  0.48349767  0.73941167  1
  O  O91  1  0.83384533  0.32154967  0.76170667  1
  O  O92  1  0.13958700  0.67850300  0.85322000  1
  O  O93  1  0.48770433  0.16615467  0.76170667  1
  O  O94  1  0.01177333  0.83873467  0.92555867  1
  O  O95  1  0.32149700  0.46108400  0.85322000  1
  O  O96  1  0.00214367  0.19524633  0.81439533  1
  O  O97  1  0.31716533  0.83366767  0.73941167  1
  O  O98  1  0.84301367  0.50354933  0.90468533  1
  O  O99  1  0.19310267  0.99785633  0.81439533  1
  O  O100  1  0.49645067  0.33946433  0.90468533  1
  O  O101  1  0.16126533  0.17303867  0.92555867  1
  O  O102  1  0.66053567  0.15698633  0.90468533  1
  O  O103  1  0.53891600  0.86041300  0.85322000  1
  O  O104  1  0.82696133  0.98822667  0.92555867  1
  O  O105  1  0.86733033  0.53689867  0.64449567  1
  O  O106  1  0.46310133  0.33043167  0.64449567  1
  O  O107  1  0.66956833  0.13266967  0.64449567  1
