# generated using pymatgen
data_Dy3Sb5O12
_symmetry_space_group_name_H-M   'P 1'
_cell_length_a   10.87518400
_cell_length_b   10.87518400
_cell_length_c   10.87518400
_cell_angle_alpha   90.00000000
_cell_angle_beta   90.00000000
_cell_angle_gamma   90.00000000
_symmetry_Int_Tables_number   1
_chemical_formula_structural   Dy3Sb5O12
_chemical_formula_sum   'Dy12 Sb20 O48'
_cell_volume   1286.20395560
_cell_formula_units_Z   4
loop_
 _symmetry_equiv_pos_site_id
 _symmetry_equiv_pos_as_xyz
  1  'x, y, z'
loop_
 _atom_site_type_symbol
 _atom_site_label
 _atom_site_symmetry_multiplicity
 _atom_site_fract_x
 _atom_site_fract_y
 _atom_site_fract_z
 _atom_site_occupancy
  Dy  Dy0  1  0.00000000  0.50000000  0.25000000  1
  Dy  Dy1  1  0.00000000  0.25000000  0.50000000  1
  Dy  Dy2  1  0.25000000  0.50000000  0.00000000  1
  Dy  Dy3  1  0.25000000  0.00000000  0.50000000  1
  Dy  Dy4  1  0.50000000  0.00000000  0.25000000  1
  Dy  Dy5  1  0.50000000  0.25000000  0.00000000  1
  Dy  Dy6  1  0.50000000  0.00000000  0.75000000  1
  Dy  Dy7  1  0.50000000  0.75000000  0.00000000  1
  Dy  Dy8  1  0.75000000  0.00000000  0.50000000  1
  Dy  Dy9  1  0.75000000  0.50000000  0.00000000  1
  Dy  Dy10  1  0.00000000  0.50000000  0.75000000  1
  Dy  Dy11  1  0.00000000  0.75000000  0.50000000  1
  Sb  Sb12  1  0.74262950  0.25737050  0.25737050  1
  Sb  Sb13  1  0.00000000  0.28388700  0.00000000  1
  Sb  Sb14  1  0.00000000  0.00000000  0.28388700  1
  Sb  Sb15  1  0.00000000  0.71611300  0.00000000  1
  Sb  Sb16  1  0.00000000  0.00000000  0.71611300  1
  Sb  Sb17  1  0.25737050  0.74262950  0.25737050  1
  Sb  Sb18  1  0.25737050  0.25737050  0.74262950  1
  Sb  Sb19  1  0.24262950  0.24262950  0.24262950  1
  Sb  Sb20  1  0.28388700  0.00000000  0.00000000  1
  Sb  Sb21  1  0.71611300  0.00000000  0.00000000  1
  Sb  Sb22  1  0.24262950  0.75737050  0.75737050  1
  Sb  Sb23  1  0.50000000  0.78388700  0.50000000  1
  Sb  Sb24  1  0.50000000  0.50000000  0.78388700  1
  Sb  Sb25  1  0.50000000  0.21611300  0.50000000  1
  Sb  Sb26  1  0.50000000  0.50000000  0.21611300  1
  Sb  Sb27  1  0.75737050  0.24262950  0.75737050  1
  Sb  Sb28  1  0.75737050  0.75737050  0.24262950  1
  Sb  Sb29  1  0.74262950  0.74262950  0.74262950  1
  Sb  Sb30  1  0.78388700  0.50000000  0.50000000  1
  Sb  Sb31  1  0.21611300  0.50000000  0.50000000  1
  O  O32  1  0.86102300  0.34043400  0.13897700  1
  O  O33  1  0.86102300  0.13897700  0.34043400  1
  O  O34  1  0.89914900  0.10085100  0.60277200  1
  O  O35  1  0.89914900  0.60277200  0.10085100  1
  O  O36  1  0.89722800  0.39914900  0.39914900  1
  O  O37  1  0.10085100  0.10085100  0.39722800  1
  O  O38  1  0.10085100  0.39722800  0.10085100  1
  O  O39  1  0.10085100  0.89914900  0.60277200  1
  O  O40  1  0.10085100  0.60277200  0.89914900  1
  O  O41  1  0.15956600  0.36102300  0.36102300  1
  O  O42  1  0.13897700  0.65956600  0.13897700  1
  O  O43  1  0.13897700  0.13897700  0.65956600  1
  O  O44  1  0.13897700  0.86102300  0.34043400  1
  O  O45  1  0.13897700  0.34043400  0.86102300  1
  O  O46  1  0.36102300  0.15956600  0.36102300  1
  O  O47  1  0.36102300  0.36102300  0.15956600  1
  O  O48  1  0.34043400  0.86102300  0.13897700  1
  O  O49  1  0.34043400  0.13897700  0.86102300  1
  O  O50  1  0.39914900  0.89722800  0.39914900  1
  O  O51  1  0.39914900  0.39914900  0.89722800  1
  O  O52  1  0.39722800  0.10085100  0.10085100  1
  O  O53  1  0.60277200  0.89914900  0.10085100  1
  O  O54  1  0.60277200  0.10085100  0.89914900  1
  O  O55  1  0.65956600  0.13897700  0.13897700  1
  O  O56  1  0.36102300  0.84043400  0.63897700  1
  O  O57  1  0.36102300  0.63897700  0.84043400  1
  O  O58  1  0.39914900  0.60085100  0.10277200  1
  O  O59  1  0.39914900  0.10277200  0.60085100  1
  O  O60  1  0.39722800  0.89914900  0.89914900  1
  O  O61  1  0.60085100  0.60085100  0.89722800  1
  O  O62  1  0.60085100  0.89722800  0.60085100  1
  O  O63  1  0.60085100  0.39914900  0.10277200  1
  O  O64  1  0.60085100  0.10277200  0.39914900  1
  O  O65  1  0.65956600  0.86102300  0.86102300  1
  O  O66  1  0.63897700  0.15956600  0.63897700  1
  O  O67  1  0.63897700  0.63897700  0.15956600  1
  O  O68  1  0.63897700  0.36102300  0.84043400  1
  O  O69  1  0.63897700  0.84043400  0.36102300  1
  O  O70  1  0.86102300  0.65956600  0.86102300  1
  O  O71  1  0.86102300  0.86102300  0.65956600  1
  O  O72  1  0.84043400  0.36102300  0.63897700  1
  O  O73  1  0.84043400  0.63897700  0.36102300  1
  O  O74  1  0.89914900  0.39722800  0.89914900  1
  O  O75  1  0.89914900  0.89914900  0.39722800  1
  O  O76  1  0.89722800  0.60085100  0.60085100  1
  O  O77  1  0.10277200  0.39914900  0.60085100  1
  O  O78  1  0.10277200  0.60085100  0.39914900  1
  O  O79  1  0.15956600  0.63897700  0.63897700  1
