# generated using pymatgen
data_Sm3NbO7
_symmetry_space_group_name_H-M   'P 1'
_cell_length_a   7.67634800
_cell_length_b   10.81128400
_cell_length_c   7.67723200
_cell_angle_alpha   90.00000000
_cell_angle_beta   90.00000000
_cell_angle_gamma   90.00000000
_symmetry_Int_Tables_number   1
_chemical_formula_structural   Sm3NbO7
_chemical_formula_sum   'Sm12 Nb4 O28'
_cell_volume   637.14252985
_cell_formula_units_Z   4
loop_
 _symmetry_equiv_pos_site_id
 _symmetry_equiv_pos_as_xyz
  1  'x, y, z'
loop_
 _atom_site_type_symbol
 _atom_site_label
 _atom_site_symmetry_multiplicity
 _atom_site_fract_x
 _atom_site_fract_y
 _atom_site_fract_z
 _atom_site_occupancy
  Sm  Sm0  1  0.23218050  0.76839250  0.25485000  1
  Sm  Sm1  1  0.76781950  0.76839250  0.24515000  1
  Sm  Sm2  1  0.47351200  0.00000000  0.00000000  1
  Sm  Sm3  1  0.52648800  0.00000000  0.50000000  1
  Sm  Sm4  1  0.76781950  0.23160750  0.75485000  1
  Sm  Sm5  1  0.23218050  0.23160750  0.74515000  1
  Sm  Sm6  1  0.73218050  0.26839250  0.25485000  1
  Sm  Sm7  1  0.26781950  0.26839250  0.24515000  1
  Sm  Sm8  1  0.97351200  0.50000000  0.00000000  1
  Sm  Sm9  1  0.02648800  0.50000000  0.50000000  1
  Sm  Sm10  1  0.26781950  0.73160750  0.75485000  1
  Sm  Sm11  1  0.73218050  0.73160750  0.74515000  1
  Nb  Nb12  1  0.00331700  0.00000000  0.50000000  1
  Nb  Nb13  1  0.99668300  0.00000000  0.00000000  1
  Nb  Nb14  1  0.50331700  0.50000000  0.50000000  1
  Nb  Nb15  1  0.49668300  0.50000000  0.00000000  1
  O  O16  1  0.50000000  0.56478200  0.75000000  1
  O  O17  1  0.50000000  0.86360200  0.75000000  1
  O  O18  1  0.18535500  0.87425800  0.53687100  1
  O  O19  1  0.81464500  0.87425800  0.96312900  1
  O  O20  1  0.50000000  0.87043900  0.25000000  1
  O  O21  1  0.79868650  0.87777550  0.52639500  1
  O  O22  1  0.20131350  0.87777550  0.97360500  1
  O  O23  1  0.20131350  0.12222450  0.02639500  1
  O  O24  1  0.79868650  0.12222450  0.47360500  1
  O  O25  1  0.50000000  0.12956100  0.75000000  1
  O  O26  1  0.81464500  0.12574200  0.03687100  1
  O  O27  1  0.18535500  0.12574200  0.46312900  1
  O  O28  1  0.50000000  0.13639800  0.25000000  1
  O  O29  1  0.50000000  0.43521800  0.25000000  1
  O  O30  1  0.00000000  0.06478200  0.75000000  1
  O  O31  1  0.00000000  0.36360200  0.75000000  1
  O  O32  1  0.68535500  0.37425800  0.53687100  1
  O  O33  1  0.31464500  0.37425800  0.96312900  1
  O  O34  1  0.00000000  0.37043900  0.25000000  1
  O  O35  1  0.29868650  0.37777550  0.52639500  1
  O  O36  1  0.70131350  0.37777550  0.97360500  1
  O  O37  1  0.70131350  0.62222450  0.02639500  1
  O  O38  1  0.29868650  0.62222450  0.47360500  1
  O  O39  1  0.00000000  0.62956100  0.75000000  1
  O  O40  1  0.31464500  0.62574200  0.03687100  1
  O  O41  1  0.68535500  0.62574200  0.46312900  1
  O  O42  1  0.00000000  0.63639800  0.25000000  1
  O  O43  1  0.00000000  0.93521800  0.25000000  1
