# generated using pymatgen
data_Li4Fe7(OF7)2
_symmetry_space_group_name_H-M   'P 1'
_cell_length_a   6.14684013
_cell_length_b   6.15558041
_cell_length_c   10.76420921
_cell_angle_alpha   105.69174367
_cell_angle_beta   91.42641713
_cell_angle_gamma   118.72400521
_symmetry_Int_Tables_number   1
_chemical_formula_structural   Li4Fe7(OF7)2
_chemical_formula_sum   'Li4 Fe7 O2 F14'
_cell_volume   338.02362481
_cell_formula_units_Z   1
loop_
 _symmetry_equiv_pos_site_id
 _symmetry_equiv_pos_as_xyz
  1  'x, y, z'
loop_
 _atom_site_type_symbol
 _atom_site_label
 _atom_site_symmetry_multiplicity
 _atom_site_fract_x
 _atom_site_fract_y
 _atom_site_fract_z
 _atom_site_occupancy
  Li  Li0  1  0.35907986  0.65023800  0.44484014  1
  Li  Li1  1  0.62641550  0.81851987  0.05704167  1
  Li  Li2  1  0.37867909  0.18022129  0.94759560  1
  Li  Li3  1  0.62915264  0.33136315  0.55808823  1
  Fe  Fe4  1  0.00310231  0.51509829  0.99073042  1
  Fe  Fe5  1  0.47606223  0.25085293  0.25209370  1
  Fe  Fe6  1  0.01508811  0.77164692  0.24260071  1
  Fe  Fe7  1  0.01327484  0.00544688  0.50297781  1
  Fe  Fe8  1  0.00225270  0.24394331  0.74961743  1
  Fe  Fe9  1  0.01816001  0.24875404  0.25232417  1
  Fe  Fe10  1  0.49869942  0.75225846  0.74841364  1
  O  O11  1  0.22727656  0.33194057  0.37602418  1
  O  O12  1  0.23265301  0.11155452  0.13773585  1
  F  F13  1  0.75460578  0.61930730  0.12087513  1
  F  F14  1  0.26211810  0.61335534  0.63732060  1
  F  F15  1  0.76645058  0.16566871  0.12926859  1
  F  F16  1  0.74907925  0.12456083  0.62996219  1
  F  F17  1  0.24649487  0.14816573  0.62918206  1
  F  F18  1  0.23659139  0.61704401  0.12217642  1
  F  F19  1  0.24369712  0.86329468  0.37872854  1
  F  F20  1  0.74844522  0.86738097  0.37566685  1
  F  F21  1  0.76731401  0.34870556  0.87588468  1
  F  F22  1  0.25342978  0.85773667  0.88134591  1
  F  F23  1  0.75104615  0.65712248  0.61304242  1
  F  F24  1  0.72555225  0.87726719  0.86760286  1
  F  F25  1  0.77124158  0.39855501  0.35360225  1
  F  F26  1  0.24403867  0.37999532  0.87525694  1
