# generated using pymatgen
data_SrCa2I6
_symmetry_space_group_name_H-M   'P 1'
_cell_length_a   7.41976700
_cell_length_b   14.52394600
_cell_length_c   14.64814200
_cell_angle_alpha   90.00000000
_cell_angle_beta   90.00000000
_cell_angle_gamma   90.00000000
_symmetry_Int_Tables_number   1
_chemical_formula_structural   SrCa2I6
_chemical_formula_sum   'Sr4 Ca8 I24'
_cell_volume   1578.54669921
_cell_formula_units_Z   4
loop_
 _symmetry_equiv_pos_site_id
 _symmetry_equiv_pos_as_xyz
  1  'x, y, z'
loop_
 _atom_site_type_symbol
 _atom_site_label
 _atom_site_symmetry_multiplicity
 _atom_site_fract_x
 _atom_site_fract_y
 _atom_site_fract_z
 _atom_site_occupancy
  Sr  Sr0  1  0.72938200  0.60503500  0.75382800  1
  Sr  Sr1  1  0.27061800  0.10503500  0.74617200  1
  Sr  Sr2  1  0.22938200  0.89496500  0.24617200  1
  Sr  Sr3  1  0.77061800  0.39496500  0.25382800  1
  Ca  Ca4  1  0.78475000  0.70333700  0.37403900  1
  Ca  Ca5  1  0.69252100  0.11840500  0.43798700  1
  Ca  Ca6  1  0.30747900  0.61840500  0.06201300  1
  Ca  Ca7  1  0.21525000  0.20333700  0.12596100  1
  Ca  Ca8  1  0.28475000  0.79666300  0.62596100  1
  Ca  Ca9  1  0.19252100  0.38159500  0.56201300  1
  Ca  Ca10  1  0.80747900  0.88159500  0.93798700  1
  Ca  Ca11  1  0.71525000  0.29666300  0.87403900  1
  I  I12  1  0.61295400  0.27154900  0.08085900  1
  I  I13  1  0.53768300  0.57970200  0.24030500  1
  I  I14  1  0.62500100  0.07728200  0.87782200  1
  I  I15  1  0.52208600  0.49582700  0.91837200  1
  I  I16  1  0.49172700  0.31452900  0.41805200  1
  I  I17  1  0.48290000  0.29160500  0.69418100  1
  I  I18  1  0.51710000  0.79160500  0.80581900  1
  I  I19  1  0.50827300  0.81452900  0.08194800  1
  I  I20  1  0.47791400  0.99582700  0.58162800  1
  I  I21  1  0.37499900  0.57728200  0.62217800  1
  I  I22  1  0.46231700  0.07970200  0.25969500  1
  I  I23  1  0.38704600  0.77154900  0.41914100  1
  I  I24  1  0.11295400  0.22845100  0.91914100  1
  I  I25  1  0.03768300  0.92029800  0.75969500  1
  I  I26  1  0.12500100  0.42271800  0.12217800  1
  I  I27  1  0.02208600  0.00417300  0.08162800  1
  I  I28  1  0.99172700  0.18547100  0.58194800  1
  I  I29  1  0.98290000  0.20839500  0.30581900  1
  I  I30  1  0.01710000  0.70839500  0.19418100  1
  I  I31  1  0.00827300  0.68547100  0.91805200  1
  I  I32  1  0.97791400  0.50417300  0.41837200  1
  I  I33  1  0.87499900  0.92271800  0.37782200  1
  I  I34  1  0.96231700  0.42029800  0.74030500  1
  I  I35  1  0.88704600  0.72845100  0.58085900  1
