# generated using pymatgen
data_Ba6HfO8
_symmetry_space_group_name_H-M   'P 1'
_cell_length_a   10.88325200
_cell_length_b   10.88325200
_cell_length_c   10.88325200
_cell_angle_alpha   90.00000000
_cell_angle_beta   90.00000000
_cell_angle_gamma   90.00000000
_symmetry_Int_Tables_number   1
_chemical_formula_structural   Ba6HfO8
_chemical_formula_sum   'Ba24 Hf4 O32'
_cell_volume   1289.06867787
_cell_formula_units_Z   4
loop_
 _symmetry_equiv_pos_site_id
 _symmetry_equiv_pos_as_xyz
  1  'x, y, z'
loop_
 _atom_site_type_symbol
 _atom_site_label
 _atom_site_symmetry_multiplicity
 _atom_site_fract_x
 _atom_site_fract_y
 _atom_site_fract_z
 _atom_site_occupancy
  Ba  Ba0  1  0.00000000  0.75000000  0.75000000  1
  Ba  Ba1  1  0.25000000  0.00000000  0.75000000  1
  Ba  Ba2  1  0.25000000  0.25000000  0.00000000  1
  Ba  Ba3  1  0.25000000  0.75000000  0.00000000  1
  Ba  Ba4  1  0.75000000  0.00000000  0.75000000  1
  Ba  Ba5  1  0.00000000  0.25000000  0.75000000  1
  Ba  Ba6  1  0.00000000  0.25000000  0.25000000  1
  Ba  Ba7  1  0.25000000  0.50000000  0.25000000  1
  Ba  Ba8  1  0.25000000  0.75000000  0.50000000  1
  Ba  Ba9  1  0.25000000  0.25000000  0.50000000  1
  Ba  Ba10  1  0.75000000  0.50000000  0.25000000  1
  Ba  Ba11  1  0.00000000  0.75000000  0.25000000  1
  Ba  Ba12  1  0.50000000  0.75000000  0.25000000  1
  Ba  Ba13  1  0.75000000  0.00000000  0.25000000  1
  Ba  Ba14  1  0.75000000  0.25000000  0.50000000  1
  Ba  Ba15  1  0.75000000  0.75000000  0.50000000  1
  Ba  Ba16  1  0.25000000  0.00000000  0.25000000  1
  Ba  Ba17  1  0.50000000  0.25000000  0.25000000  1
  Ba  Ba18  1  0.50000000  0.25000000  0.75000000  1
  Ba  Ba19  1  0.75000000  0.50000000  0.75000000  1
  Ba  Ba20  1  0.75000000  0.75000000  0.00000000  1
  Ba  Ba21  1  0.75000000  0.25000000  0.00000000  1
  Ba  Ba22  1  0.25000000  0.50000000  0.75000000  1
  Ba  Ba23  1  0.50000000  0.75000000  0.75000000  1
  Hf  Hf24  1  0.00000000  0.00000000  0.00000000  1
  Hf  Hf25  1  0.00000000  0.50000000  0.50000000  1
  Hf  Hf26  1  0.50000000  0.00000000  0.50000000  1
  Hf  Hf27  1  0.50000000  0.50000000  0.00000000  1
  O  O28  1  0.19845100  0.00000000  0.00000000  1
  O  O29  1  0.25000000  0.75000000  0.75000000  1
  O  O30  1  0.50000000  0.69845100  0.00000000  1
  O  O31  1  0.50000000  0.00000000  0.69845100  1
  O  O32  1  0.00000000  0.00000000  0.80154900  1
  O  O33  1  0.50000000  0.30154900  0.00000000  1
  O  O34  1  0.25000000  0.25000000  0.75000000  1
  O  O35  1  0.80154900  0.00000000  0.00000000  1
  O  O36  1  0.19845100  0.50000000  0.50000000  1
  O  O37  1  0.25000000  0.25000000  0.25000000  1
  O  O38  1  0.50000000  0.19845100  0.50000000  1
  O  O39  1  0.50000000  0.50000000  0.19845100  1
  O  O40  1  0.00000000  0.50000000  0.30154900  1
  O  O41  1  0.50000000  0.80154900  0.50000000  1
  O  O42  1  0.25000000  0.75000000  0.25000000  1
  O  O43  1  0.80154900  0.50000000  0.50000000  1
  O  O44  1  0.69845100  0.00000000  0.50000000  1
  O  O45  1  0.75000000  0.75000000  0.25000000  1
  O  O46  1  0.00000000  0.69845100  0.50000000  1
  O  O47  1  0.00000000  0.00000000  0.19845100  1
  O  O48  1  0.50000000  0.00000000  0.30154900  1
  O  O49  1  0.00000000  0.30154900  0.50000000  1
  O  O50  1  0.75000000  0.25000000  0.25000000  1
  O  O51  1  0.30154900  0.00000000  0.50000000  1
  O  O52  1  0.69845100  0.50000000  0.00000000  1
  O  O53  1  0.75000000  0.25000000  0.75000000  1
  O  O54  1  0.00000000  0.19845100  0.00000000  1
  O  O55  1  0.00000000  0.50000000  0.69845100  1
  O  O56  1  0.50000000  0.50000000  0.80154900  1
  O  O57  1  0.00000000  0.80154900  0.00000000  1
  O  O58  1  0.75000000  0.75000000  0.75000000  1
  O  O59  1  0.30154900  0.50000000  0.00000000  1
