# generated using pymatgen
data_La2(GeO3)3
_symmetry_space_group_name_H-M   'P 1'
_cell_length_a   5.80325100
_cell_length_b   7.80835770
_cell_length_c   8.90980072
_cell_angle_alpha   107.93278568
_cell_angle_beta   108.32727639
_cell_angle_gamma   91.42259108
_symmetry_Int_Tables_number   1
_chemical_formula_structural   La2(GeO3)3
_chemical_formula_sum   'La4 Ge6 O18'
_cell_volume   361.31638553
_cell_formula_units_Z   2
loop_
 _symmetry_equiv_pos_site_id
 _symmetry_equiv_pos_as_xyz
  1  'x, y, z'
loop_
 _atom_site_type_symbol
 _atom_site_label
 _atom_site_symmetry_multiplicity
 _atom_site_fract_x
 _atom_site_fract_y
 _atom_site_fract_z
 _atom_site_occupancy
  La  La0  1  0.86618500  0.80025800  0.78054400  1
  La  La1  1  0.13381500  0.19974200  0.21945600  1
  La  La2  1  0.19288400  0.81970100  0.41775800  1
  La  La3  1  0.80711600  0.18029900  0.58224200  1
  Ge  Ge4  1  0.76264200  0.48820600  0.99863900  1
  Ge  Ge5  1  0.23735800  0.51179400  0.00136100  1
  Ge  Ge6  1  0.57254300  0.92672200  0.14645000  1
  Ge  Ge7  1  0.42745700  0.07327800  0.85355000  1
  Ge  Ge8  1  0.66207700  0.51837600  0.33945200  1
  Ge  Ge9  1  0.33792300  0.48162400  0.66054800  1
  O  O10  1  0.70908300  0.00549200  0.99892200  1
  O  O11  1  0.29091700  0.99450800  0.00107800  1
  O  O12  1  0.01186800  0.67608500  0.04483800  1
  O  O13  1  0.98813200  0.32391500  0.95516200  1
  O  O14  1  0.53104500  0.67298500  0.04614300  1
  O  O15  1  0.46895500  0.32701500  0.95385700  1
  O  O16  1  0.87052100  0.48656700  0.22390900  1
  O  O17  1  0.12947900  0.51343300  0.77609100  1
  O  O18  1  0.61019600  0.32376200  0.38615400  1
  O  O19  1  0.38980400  0.67623800  0.61384600  1
  O  O20  1  0.87993900  0.98882600  0.30086500  1
  O  O21  1  0.12006100  0.01117400  0.69913500  1
  O  O22  1  0.34977800  0.53414200  0.23287100  1
  O  O23  1  0.65022200  0.46585800  0.76712900  1
  O  O24  1  0.57818900  0.02739900  0.69478900  1
  O  O25  1  0.42181100  0.97260100  0.30521100  1
  O  O26  1  0.81210400  0.72205900  0.49570200  1
  O  O27  1  0.18789600  0.27794100  0.50429800  1
