# generated using pymatgen
data_Ba4OF6
_symmetry_space_group_name_H-M   'P 1'
_cell_length_a   8.97444802
_cell_length_b   8.97444802
_cell_length_c   6.73645200
_cell_angle_alpha   90.00000000
_cell_angle_beta   90.00000000
_cell_angle_gamma   120.00000000
_symmetry_Int_Tables_number   1
_chemical_formula_structural   Ba4OF6
_chemical_formula_sum   'Ba8 O2 F12'
_cell_volume   469.86959641
_cell_formula_units_Z   2
loop_
 _symmetry_equiv_pos_site_id
 _symmetry_equiv_pos_as_xyz
  1  'x, y, z'
loop_
 _atom_site_type_symbol
 _atom_site_label
 _atom_site_symmetry_multiplicity
 _atom_site_fract_x
 _atom_site_fract_y
 _atom_site_fract_z
 _atom_site_occupancy
  Ba  Ba0  1  0.81615200  0.63230400  0.48049900  1
  Ba  Ba1  1  0.66666667  0.33333333  0.96649500  1
  Ba  Ba2  1  0.36769600  0.18384800  0.48049900  1
  Ba  Ba3  1  0.81615200  0.18384800  0.48049900  1
  Ba  Ba4  1  0.18384800  0.81615200  0.98049900  1
  Ba  Ba5  1  0.33333333  0.66666667  0.46649500  1
  Ba  Ba6  1  0.63230400  0.81615200  0.98049900  1
  Ba  Ba7  1  0.18384800  0.36769600  0.98049900  1
  O  O8  1  0.66666667  0.33333333  0.59806900  1
  O  O9  1  0.33333333  0.66666667  0.09806900  1
  F  F10  1  0.85188400  0.70376800  0.88255800  1
  F  F11  1  0.53539200  0.46460800  0.22379600  1
  F  F12  1  0.29623200  0.14811600  0.88255800  1
  F  F13  1  0.92921600  0.46460800  0.22379600  1
  F  F14  1  0.53539200  0.07078400  0.22379600  1
  F  F15  1  0.14811600  0.85188400  0.38255800  1
  F  F16  1  0.85188400  0.14811600  0.88255800  1
  F  F17  1  0.46460800  0.92921600  0.72379600  1
  F  F18  1  0.07078400  0.53539200  0.72379600  1
  F  F19  1  0.70376800  0.85188400  0.38255800  1
  F  F20  1  0.46460800  0.53539200  0.72379600  1
  F  F21  1  0.14811600  0.29623200  0.38255800  1
