# generated using pymatgen
data_La2Bi2O7
_symmetry_space_group_name_H-M   'P 1'
_cell_length_a   8.44202600
_cell_length_b   5.96037400
_cell_length_c   14.31471845
_cell_angle_alpha   90.00000000
_cell_angle_beta   98.58261651
_cell_angle_gamma   90.00000000
_symmetry_Int_Tables_number   1
_chemical_formula_structural   La2Bi2O7
_chemical_formula_sum   'La8 Bi8 O28'
_cell_volume   712.21680003
_cell_formula_units_Z   4
loop_
 _symmetry_equiv_pos_site_id
 _symmetry_equiv_pos_as_xyz
  1  'x, y, z'
loop_
 _atom_site_type_symbol
 _atom_site_label
 _atom_site_symmetry_multiplicity
 _atom_site_fract_x
 _atom_site_fract_y
 _atom_site_fract_z
 _atom_site_occupancy
  La  La0  1  0.76318600  0.72638200  0.07868300  1
  La  La1  1  0.85713100  0.16691300  0.43513000  1
  La  La2  1  0.71546300  0.24859000  0.87532400  1
  La  La3  1  0.64546400  0.71748100  0.61098100  1
  La  La4  1  0.35453600  0.21748100  0.38901900  1
  La  La5  1  0.28453700  0.74859000  0.12467600  1
  La  La6  1  0.14286900  0.66691300  0.56487000  1
  La  La7  1  0.23681400  0.22638200  0.92131700  1
  Bi  Bi8  1  0.92206900  0.23123000  0.68217700  1
  Bi  Bi9  1  0.97350300  0.73254300  0.88172600  1
  Bi  Bi10  1  0.58645800  0.72000500  0.32478200  1
  Bi  Bi11  1  0.53220700  0.23337200  0.12257500  1
  Bi  Bi12  1  0.46779300  0.73337200  0.87742500  1
  Bi  Bi13  1  0.41354200  0.22000500  0.67521800  1
  Bi  Bi14  1  0.02649700  0.23254300  0.11827400  1
  Bi  Bi15  1  0.07793100  0.73123000  0.31782300  1
  O  O16  1  0.99168400  0.10207400  0.81961800  1
  O  O17  1  0.92827000  0.94852300  0.58996100  1
  O  O18  1  0.83157600  0.84341400  0.32140700  1
  O  O19  1  0.77526900  0.10327900  0.11527300  1
  O  O20  1  0.86562000  0.44356100  0.56186900  1
  O  O21  1  0.91975900  0.44703800  0.98182100  1
  O  O22  1  0.84019000  0.51473400  0.75267300  1
  O  O23  1  0.62789500  0.39892200  0.38407300  1
  O  O24  1  0.57782400  0.59913000  0.18069600  1
  O  O25  1  0.67700600  0.08448100  0.69194900  1
  O  O26  1  0.73206800  0.87181200  0.92123300  1
  O  O27  1  0.59810300  0.91846200  0.45296200  1
  O  O28  1  0.43762100  0.94081800  0.01802000  1
  O  O29  1  0.48350100  0.00889100  0.25191300  1
  O  O30  1  0.51649900  0.50889100  0.74808700  1
  O  O31  1  0.56237900  0.44081800  0.98198000  1
  O  O32  1  0.40189700  0.41846200  0.54703800  1
  O  O33  1  0.26793200  0.37181200  0.07876700  1
  O  O34  1  0.32299400  0.58448100  0.30805100  1
  O  O35  1  0.42217600  0.09913000  0.81930400  1
  O  O36  1  0.37210500  0.89892200  0.61592700  1
  O  O37  1  0.15981000  0.01473400  0.24732700  1
  O  O38  1  0.08024100  0.94703800  0.01817900  1
  O  O39  1  0.13438000  0.94356100  0.43813100  1
  O  O40  1  0.22473100  0.60327900  0.88472700  1
  O  O41  1  0.16842400  0.34341400  0.67859300  1
  O  O42  1  0.07173000  0.44852300  0.41003900  1
  O  O43  1  0.00831600  0.60207400  0.18038200  1
