# generated using pymatgen
data_Na2MnPCO7
_symmetry_space_group_name_H-M   'P 1'
_cell_length_a   8.46916800
_cell_length_b   8.55478452
_cell_length_c   8.89358064
_cell_angle_alpha   90.51162647
_cell_angle_beta   91.34538168
_cell_angle_gamma   105.15369984
_symmetry_Int_Tables_number   1
_chemical_formula_structural   Na2MnPCO7
_chemical_formula_sum   'Na8 Mn4 P4 C4 O28'
_cell_volume   621.70407984
_cell_formula_units_Z   4
loop_
 _symmetry_equiv_pos_site_id
 _symmetry_equiv_pos_as_xyz
  1  'x, y, z'
loop_
 _atom_site_type_symbol
 _atom_site_label
 _atom_site_symmetry_multiplicity
 _atom_site_fract_x
 _atom_site_fract_y
 _atom_site_fract_z
 _atom_site_occupancy
  Na  Na0  1  0.61789000  0.62393700  0.75915800  1
  Na  Na1  1  0.87688100  0.36921100  0.76141200  1
  Na  Na2  1  0.38354400  0.86604200  0.74326400  1
  Na  Na3  1  0.11493800  0.13223900  0.74277400  1
  Na  Na4  1  0.87057900  0.87133600  0.24458100  1
  Na  Na5  1  0.39731700  0.37762400  0.25217900  1
  Na  Na6  1  0.10948000  0.61558000  0.24889000  1
  Na  Na7  1  0.25459100  0.99258400  0.08519400  1
  Mn  Mn8  1  0.51584500  0.26369400  0.64674000  1
  Mn  Mn9  1  0.01406300  0.76564100  0.64741800  1
  Mn  Mn10  1  0.48297000  0.73875700  0.34978900  1
  Mn  Mn11  1  0.97161500  0.23211700  0.34674300  1
  P  P12  1  0.73203400  0.97989300  0.57939700  1
  P  P13  1  0.22747200  0.47884100  0.57736600  1
  P  P14  1  0.77232500  0.52466900  0.42075900  1
  P  P15  1  0.27010600  0.02200000  0.41933200  1
  C  C16  1  0.99322000  0.74223800  0.93017600  1
  C  C17  1  0.48435000  0.23649800  0.92697000  1
  C  C18  1  0.50865400  0.75875300  0.07194800  1
  C  C19  1  0.01168000  0.25658300  0.07237500  1
  O  O20  1  0.50822100  0.76112300  0.93107700  1
  O  O21  1  0.02382900  0.26307300  0.93237100  1
  O  O22  1  0.59633500  0.34407100  0.85340700  1
  O  O23  1  0.10317100  0.84902800  0.85181500  1
  O  O24  1  0.88812400  0.63765600  0.84854600  1
  O  O25  1  0.38463100  0.13084700  0.83628500  1
  O  O26  1  0.85779300  0.91878600  0.67616800  1
  O  O27  1  0.35798900  0.42255900  0.67097100  1
  O  O28  1  0.67546600  0.10932400  0.66955300  1
  O  O29  1  0.16871700  0.60768800  0.66824200  1
  O  O30  1  0.57847100  0.83066500  0.54664900  1
  O  O31  1  0.70862900  0.45485800  0.57577900  1
  O  O32  1  0.20161000  0.95530800  0.57282600  1
  O  O33  1  0.07700800  0.32713300  0.54470500  1
  O  O34  1  0.92009400  0.68222200  0.45456500  1
  O  O35  1  0.80461900  0.04326300  0.42703100  1
  O  O36  1  0.29587400  0.54792500  0.42419700  1
  O  O37  1  0.41810000  0.17391300  0.45540100  1
  O  O38  1  0.84333200  0.41019100  0.32753900  1
  O  O39  1  0.64036100  0.58012700  0.33070300  1
  O  O40  1  0.32386900  0.89229900  0.32630600  1
  O  O41  1  0.14443200  0.07738600  0.31898500  1
  O  O42  1  0.61252000  0.85614500  0.16123900  1
  O  O43  1  0.10899900  0.35708800  0.16796400  1
  O  O44  1  0.89999500  0.14549700  0.14001000  1
  O  O45  1  0.39366500  0.65342400  0.14650200  1
  O  O46  1  0.00122500  0.75243500  0.07186600  1
  O  O47  1  0.47299300  0.23525200  0.06611400  1
