# generated using pymatgen
data_Mn3CoO8
_symmetry_space_group_name_H-M   'P 1'
_cell_length_a   5.76866781
_cell_length_b   5.76866781
_cell_length_c   8.64031600
_cell_angle_alpha   90.00000000
_cell_angle_beta   90.00000000
_cell_angle_gamma   120.00000000
_symmetry_Int_Tables_number   1
_chemical_formula_structural   Mn3CoO8
_chemical_formula_sum   'Mn6 Co2 O16'
_cell_volume   249.00686401
_cell_formula_units_Z   2
loop_
 _symmetry_equiv_pos_site_id
 _symmetry_equiv_pos_as_xyz
  1  'x, y, z'
loop_
 _atom_site_type_symbol
 _atom_site_label
 _atom_site_symmetry_multiplicity
 _atom_site_fract_x
 _atom_site_fract_y
 _atom_site_fract_z
 _atom_site_occupancy
  Mn  Mn0  1  0.16784100  0.83215900  0.20936900  1
  Mn  Mn1  1  0.16784100  0.33568200  0.20936900  1
  Mn  Mn2  1  0.66431800  0.83215900  0.20936900  1
  Mn  Mn3  1  0.33568200  0.16784100  0.70936900  1
  Mn  Mn4  1  0.83215900  0.66431800  0.70936900  1
  Mn  Mn5  1  0.83215900  0.16784100  0.70936900  1
  Co  Co6  1  0.33333333  0.66666667  0.48686600  1
  Co  Co7  1  0.66666667  0.33333333  0.98686600  1
  O  O8  1  0.17015800  0.82984200  0.59932100  1
  O  O9  1  0.04614800  0.52307400  0.34345500  1
  O  O10  1  0.33333333  0.66666667  0.09838600  1
  O  O11  1  0.00000000  0.00000000  0.31616200  1
  O  O12  1  0.00000000  0.00000000  0.81616200  1
  O  O13  1  0.17015800  0.34031600  0.59932100  1
  O  O14  1  0.47692600  0.95385200  0.34345500  1
  O  O15  1  0.47692600  0.52307400  0.34345500  1
  O  O16  1  0.34031600  0.17015800  0.09932100  1
  O  O17  1  0.65968400  0.82984200  0.59932100  1
  O  O18  1  0.52307400  0.47692600  0.84345500  1
  O  O19  1  0.52307400  0.04614800  0.84345500  1
  O  O20  1  0.66666667  0.33333333  0.59838600  1
  O  O21  1  0.82984200  0.65968400  0.09932100  1
  O  O22  1  0.95385200  0.47692600  0.84345500  1
  O  O23  1  0.82984200  0.17015800  0.09932100  1
