# generated using pymatgen
data_Lu2GeO5
_symmetry_space_group_name_H-M   'P 1'
_cell_length_a   3.62709500
_cell_length_b   10.16068800
_cell_length_c   10.95593200
_cell_angle_alpha   90.00000000
_cell_angle_beta   90.00000000
_cell_angle_gamma   90.00000000
_symmetry_Int_Tables_number   1
_chemical_formula_structural   Lu2GeO5
_chemical_formula_sum   'Lu8 Ge4 O20'
_cell_volume   403.76751465
_cell_formula_units_Z   4
loop_
 _symmetry_equiv_pos_site_id
 _symmetry_equiv_pos_as_xyz
  1  'x, y, z'
loop_
 _atom_site_type_symbol
 _atom_site_label
 _atom_site_symmetry_multiplicity
 _atom_site_fract_x
 _atom_site_fract_y
 _atom_site_fract_z
 _atom_site_occupancy
  Lu  Lu0  1  0.25000000  0.61108200  0.27547800  1
  Lu  Lu1  1  0.25000000  0.63410400  0.93918400  1
  Lu  Lu2  1  0.75000000  0.86589600  0.43918400  1
  Lu  Lu3  1  0.75000000  0.88891800  0.77547800  1
  Lu  Lu4  1  0.25000000  0.11108200  0.22452200  1
  Lu  Lu5  1  0.25000000  0.13410400  0.56081600  1
  Lu  Lu6  1  0.75000000  0.36589600  0.06081600  1
  Lu  Lu7  1  0.75000000  0.38891800  0.72452200  1
  Ge  Ge8  1  0.25000000  0.67563700  0.61537400  1
  Ge  Ge9  1  0.75000000  0.82436300  0.11537400  1
  Ge  Ge10  1  0.25000000  0.17563700  0.88462600  1
  Ge  Ge11  1  0.75000000  0.32436300  0.38462600  1
  O  O12  1  0.25000000  0.49194000  0.10431700  1
  O  O13  1  0.25000000  0.50816300  0.65622300  1
  O  O14  1  0.75000000  0.73888100  0.61168500  1
  O  O15  1  0.75000000  0.74084300  0.26589000  1
  O  O16  1  0.25000000  0.72398800  0.45458300  1
  O  O17  1  0.75000000  0.77601200  0.95458300  1
  O  O18  1  0.25000000  0.75915700  0.76589000  1
  O  O19  1  0.25000000  0.76111900  0.11168500  1
  O  O20  1  0.75000000  0.99183700  0.15622300  1
  O  O21  1  0.75000000  0.00806000  0.60431700  1
  O  O22  1  0.25000000  0.99194000  0.39568300  1
  O  O23  1  0.25000000  0.00816300  0.84377700  1
  O  O24  1  0.75000000  0.23888100  0.88831500  1
  O  O25  1  0.75000000  0.24084300  0.23411000  1
  O  O26  1  0.25000000  0.22398800  0.04541700  1
  O  O27  1  0.75000000  0.27601200  0.54541700  1
  O  O28  1  0.25000000  0.25915700  0.73411000  1
  O  O29  1  0.25000000  0.26111900  0.38831500  1
  O  O30  1  0.75000000  0.49183700  0.34377700  1
  O  O31  1  0.75000000  0.50806000  0.89568300  1
