# generated using pymatgen
data_Rb3PbO3
_symmetry_space_group_name_H-M   'P 1'
_cell_length_a   7.86896200
_cell_length_b   12.42015800
_cell_length_c   7.31064099
_cell_angle_alpha   90.00000000
_cell_angle_beta   98.12491078
_cell_angle_gamma   90.00000000
_symmetry_Int_Tables_number   1
_chemical_formula_structural   Rb3PbO3
_chemical_formula_sum   'Rb12 Pb4 O12'
_cell_volume   707.32447146
_cell_formula_units_Z   4
loop_
 _symmetry_equiv_pos_site_id
 _symmetry_equiv_pos_as_xyz
  1  'x, y, z'
loop_
 _atom_site_type_symbol
 _atom_site_label
 _atom_site_symmetry_multiplicity
 _atom_site_fract_x
 _atom_site_fract_y
 _atom_site_fract_z
 _atom_site_occupancy
  Rb  Rb0  1  0.36092300  0.00000000  0.64276000  1
  Rb  Rb1  1  0.50000000  0.30410500  0.50000000  1
  Rb  Rb2  1  0.50000000  0.69589500  0.50000000  1
  Rb  Rb3  1  0.50000000  0.75627200  0.00000000  1
  Rb  Rb4  1  0.50000000  0.24372800  0.00000000  1
  Rb  Rb5  1  0.63907700  0.00000000  0.35724000  1
  Rb  Rb6  1  0.86092300  0.50000000  0.64276000  1
  Rb  Rb7  1  0.00000000  0.80410500  0.50000000  1
  Rb  Rb8  1  0.00000000  0.19589500  0.50000000  1
  Rb  Rb9  1  0.00000000  0.25627200  0.00000000  1
  Rb  Rb10  1  0.00000000  0.74372800  0.00000000  1
  Rb  Rb11  1  0.13907700  0.50000000  0.35724000  1
  Pb  Pb12  1  0.19412600  0.00000000  0.14137400  1
  Pb  Pb13  1  0.80587400  0.00000000  0.85862600  1
  Pb  Pb14  1  0.69412600  0.50000000  0.14137400  1
  Pb  Pb15  1  0.30587400  0.50000000  0.85862600  1
  O  O16  1  0.08307900  0.00000000  0.82715400  1
  O  O17  1  0.30707400  0.85443700  0.27841500  1
  O  O18  1  0.30707400  0.14556300  0.27841500  1
  O  O19  1  0.69292600  0.85443700  0.72158500  1
  O  O20  1  0.69292600  0.14556300  0.72158500  1
  O  O21  1  0.91692100  0.00000000  0.17284600  1
  O  O22  1  0.58307900  0.50000000  0.82715400  1
  O  O23  1  0.80707400  0.35443700  0.27841500  1
  O  O24  1  0.80707400  0.64556300  0.27841500  1
  O  O25  1  0.19292600  0.35443700  0.72158500  1
  O  O26  1  0.19292600  0.64556300  0.72158500  1
  O  O27  1  0.41692100  0.50000000  0.17284600  1
