# generated using pymatgen
data_Gd2P4O13
_symmetry_space_group_name_H-M   'P 1'
_cell_length_a   7.14325600
_cell_length_b   17.78076600
_cell_length_c   8.70883200
_cell_angle_alpha   90.00000000
_cell_angle_beta   90.00000000
_cell_angle_gamma   90.00000000
_symmetry_Int_Tables_number   1
_chemical_formula_structural   Gd2P4O13
_chemical_formula_sum   'Gd8 P16 O52'
_cell_volume   1106.13107666
_cell_formula_units_Z   4
loop_
 _symmetry_equiv_pos_site_id
 _symmetry_equiv_pos_as_xyz
  1  'x, y, z'
loop_
 _atom_site_type_symbol
 _atom_site_label
 _atom_site_symmetry_multiplicity
 _atom_site_fract_x
 _atom_site_fract_y
 _atom_site_fract_z
 _atom_site_occupancy
  Gd  Gd0  1  0.74712200  0.85313900  0.35408600  1
  Gd  Gd1  1  0.25287800  0.85313900  0.14591400  1
  Gd  Gd2  1  0.24712200  0.64686100  0.64591400  1
  Gd  Gd3  1  0.75287800  0.64686100  0.85408600  1
  Gd  Gd4  1  0.24712200  0.35313900  0.35408600  1
  Gd  Gd5  1  0.75287800  0.35313900  0.14591400  1
  Gd  Gd6  1  0.74712200  0.14686100  0.64591400  1
  Gd  Gd7  1  0.25287800  0.14686100  0.85408600  1
  P  P8  1  0.78028400  0.94157800  0.72796100  1
  P  P9  1  0.21971600  0.94157800  0.77203900  1
  P  P10  1  0.25559300  0.84074800  0.50366900  1
  P  P11  1  0.74440700  0.84074800  0.99633100  1
  P  P12  1  0.75559300  0.65925200  0.49633100  1
  P  P13  1  0.24440700  0.65925200  0.00366900  1
  P  P14  1  0.71971600  0.55842200  0.22796100  1
  P  P15  1  0.28028400  0.55842200  0.27203900  1
  P  P16  1  0.28028400  0.44157800  0.72796100  1
  P  P17  1  0.71971600  0.44157800  0.77203900  1
  P  P18  1  0.75559300  0.34074800  0.50366900  1
  P  P19  1  0.24440700  0.34074800  0.99633100  1
  P  P20  1  0.25559300  0.15925200  0.49633100  1
  P  P21  1  0.74440700  0.15925200  0.00366900  1
  P  P22  1  0.21971600  0.05842200  0.22796100  1
  P  P23  1  0.78028400  0.05842200  0.27203900  1
  O  O24  1  0.27795700  0.97811500  0.20649900  1
  O  O25  1  0.72204300  0.97811500  0.29350100  1
  O  O26  1  0.00000000  0.93797000  0.75000000  1
  O  O27  1  0.29525050  0.91505650  0.60787200  1
  O  O28  1  0.70474950  0.91505650  0.89212800  1
  O  O29  1  0.27148200  0.88620800  0.89482100  1
  O  O30  1  0.72851800  0.88620800  0.60517900  1
  O  O31  1  0.07962400  0.85476600  0.40365800  1
  O  O32  1  0.92037600  0.85476600  0.09634200  1
  O  O33  1  0.57985200  0.83963300  0.11046700  1
  O  O34  1  0.42014800  0.83963300  0.38953300  1
  O  O35  1  0.75581950  0.77360250  0.89086800  1
  O  O36  1  0.24418050  0.77360250  0.60913200  1
  O  O37  1  0.74418050  0.72639750  0.39086800  1
  O  O38  1  0.25581950  0.72639750  0.10913200  1
  O  O39  1  0.92014800  0.66036700  0.61046700  1
  O  O40  1  0.07985200  0.66036700  0.88953300  1
  O  O41  1  0.42037600  0.64523400  0.90365800  1
  O  O42  1  0.57962400  0.64523400  0.59634200  1
  O  O43  1  0.22851800  0.61379200  0.39482100  1
  O  O44  1  0.77148200  0.61379200  0.10517900  1
  O  O45  1  0.79525050  0.58494350  0.39212800  1
  O  O46  1  0.20474950  0.58494350  0.10787200  1
  O  O47  1  0.50000000  0.56203000  0.25000000  1
  O  O48  1  0.77795700  0.52188500  0.79350100  1
  O  O49  1  0.22204300  0.52188500  0.70649900  1
  O  O50  1  0.77795700  0.47811500  0.20649900  1
  O  O51  1  0.22204300  0.47811500  0.29350100  1
  O  O52  1  0.50000000  0.43797000  0.75000000  1
  O  O53  1  0.79525050  0.41505650  0.60787200  1
  O  O54  1  0.20474950  0.41505650  0.89212800  1
  O  O55  1  0.77148200  0.38620800  0.89482100  1
  O  O56  1  0.22851800  0.38620800  0.60517900  1
  O  O57  1  0.57962400  0.35476600  0.40365800  1
  O  O58  1  0.42037600  0.35476600  0.09634200  1
  O  O59  1  0.07985200  0.33963300  0.11046700  1
  O  O60  1  0.92014800  0.33963300  0.38953300  1
  O  O61  1  0.25581950  0.27360250  0.89086800  1
  O  O62  1  0.74418050  0.27360250  0.60913200  1
  O  O63  1  0.24418050  0.22639750  0.39086800  1
  O  O64  1  0.75581950  0.22639750  0.10913200  1
  O  O65  1  0.42014800  0.16036700  0.61046700  1
  O  O66  1  0.57985200  0.16036700  0.88953300  1
  O  O67  1  0.92037600  0.14523400  0.90365800  1
  O  O68  1  0.07962400  0.14523400  0.59634200  1
  O  O69  1  0.72851800  0.11379200  0.39482100  1
  O  O70  1  0.27148200  0.11379200  0.10517900  1
  O  O71  1  0.29525050  0.08494350  0.39212800  1
  O  O72  1  0.70474950  0.08494350  0.10787200  1
  O  O73  1  0.00000000  0.06203000  0.25000000  1
  O  O74  1  0.27795700  0.02188500  0.79350100  1
  O  O75  1  0.72204300  0.02188500  0.70649900  1
