# generated using pymatgen
data_ThH10N4O17
_symmetry_space_group_name_H-M   'P 1'
_cell_length_a   10.61737200
_cell_length_b   11.19797600
_cell_length_c   22.89549400
_cell_angle_alpha   90.00000000
_cell_angle_beta   90.00000000
_cell_angle_gamma   90.00000000
_symmetry_Int_Tables_number   1
_chemical_formula_structural   ThH10N4O17
_chemical_formula_sum   'Th8 H80 N32 O136'
_cell_volume   2722.11572741
_cell_formula_units_Z   8
loop_
 _symmetry_equiv_pos_site_id
 _symmetry_equiv_pos_as_xyz
  1  'x, y, z'
loop_
 _atom_site_type_symbol
 _atom_site_label
 _atom_site_symmetry_multiplicity
 _atom_site_fract_x
 _atom_site_fract_y
 _atom_site_fract_z
 _atom_site_occupancy
  Th  Th0  1  0.24640900  0.75000000  0.75000000  1
  Th  Th1  1  0.49640900  0.00000000  0.50000000  1
  Th  Th2  1  0.74640900  0.75000000  0.25000000  1
  Th  Th3  1  0.99640900  0.00000000  0.00000000  1
  Th  Th4  1  0.74640900  0.25000000  0.75000000  1
  Th  Th5  1  0.99640900  0.50000000  0.50000000  1
  Th  Th6  1  0.24640900  0.25000000  0.25000000  1
  Th  Th7  1  0.49640900  0.50000000  0.00000000  1
  H  H8  1  0.19148000  0.69009700  0.61849000  1
  H  H9  1  0.19148000  0.80990300  0.88151000  1
  H  H10  1  0.15758800  0.83087600  0.62383800  1
  H  H11  1  0.03083550  0.93660150  0.56611400  1
  H  H12  1  0.44148000  0.94009700  0.63151000  1
  H  H13  1  0.59148050  0.97409650  0.88839200  1
  H  H14  1  0.21288350  0.98156500  0.53448450  1
  H  H15  1  0.71288350  0.01843500  0.96551550  1
  H  H16  1  0.09148050  0.02590350  0.61160800  1
  H  H17  1  0.94148000  0.05990300  0.86849000  1
  H  H18  1  0.53083550  0.06339850  0.93388600  1
  H  H19  1  0.40758800  0.08087600  0.62616200  1
  H  H20  1  0.65758800  0.16912400  0.87616200  1
  H  H21  1  0.28083550  0.18660150  0.68388600  1
  H  H22  1  0.34148050  0.22409650  0.86160800  1
  H  H23  1  0.46288350  0.23156500  0.71551550  1
  H  H24  1  0.46288350  0.26843500  0.78448450  1
  H  H25  1  0.34148050  0.27590350  0.63839200  1
  H  H26  1  0.28083550  0.31339850  0.81611400  1
  H  H27  1  0.40758800  0.41912400  0.87383800  1
  H  H28  1  0.69148000  0.69009700  0.11849000  1
  H  H29  1  0.69148000  0.80990300  0.38151000  1
  H  H30  1  0.65758800  0.83087600  0.12383800  1
  H  H31  1  0.53083550  0.93660150  0.06611400  1
  H  H32  1  0.94148000  0.94009700  0.13151000  1
  H  H33  1  0.09148050  0.97409650  0.38839200  1
  H  H34  1  0.71288350  0.98156500  0.03448450  1
  H  H35  1  0.21288350  0.01843500  0.46551550  1
  H  H36  1  0.59148050  0.02590350  0.11160800  1
  H  H37  1  0.44148000  0.05990300  0.36849000  1
  H  H38  1  0.03083550  0.06339850  0.43388600  1
  H  H39  1  0.90758800  0.08087600  0.12616200  1
  H  H40  1  0.15758800  0.16912400  0.37616200  1
  H  H41  1  0.78083550  0.18660150  0.18388600  1
  H  H42  1  0.84148050  0.22409650  0.36160800  1
  H  H43  1  0.96288350  0.23156500  0.21551550  1
  H  H44  1  0.96288350  0.26843500  0.28448450  1
  H  H45  1  0.84148050  0.27590350  0.13839200  1
  H  H46  1  0.78083550  0.31339850  0.31611400  1
  H  H47  1  0.90758800  0.41912400  0.37383800  1
  H  H48  1  0.69148000  0.19009700  0.61849000  1
  H  H49  1  0.69148000  0.30990300  0.88151000  1
  H  H50  1  0.65758800  0.33087600  0.62383800  1
  H  H51  1  0.53083550  0.43660150  0.56611400  1
  H  H52  1  0.94148000  0.44009700  0.63151000  1
  H  H53  1  0.09148050  0.47409650  0.88839200  1
  H  H54  1  0.71288350  0.48156500  0.53448450  1
  H  H55  1  0.21288350  0.51843500  0.96551550  1
  H  H56  1  0.59148050  0.52590350  0.61160800  1
  H  H57  1  0.44148000  0.55990300  0.86849000  1
  H  H58  1  0.03083550  0.56339850  0.93388600  1
  H  H59  1  0.90758800  0.58087600  0.62616200  1
  H  H60  1  0.15758800  0.66912400  0.87616200  1
  H  H61  1  0.78083550  0.68660150  0.68388600  1
  H  H62  1  0.84148050  0.72409650  0.86160800  1
  H  H63  1  0.96288350  0.73156500  0.71551550  1
  H  H64  1  0.96288350  0.76843500  0.78448450  1
  H  H65  1  0.84148050  0.77590350  0.63839200  1
  H  H66  1  0.78083550  0.81339850  0.81611400  1
  H  H67  1  0.90758800  0.91912400  0.87383800  1
  H  H68  1  0.19148000  0.19009700  0.11849000  1
  H  H69  1  0.19148000  0.30990300  0.38151000  1
  H  H70  1  0.15758800  0.33087600  0.12383800  1
  H  H71  1  0.03083550  0.43660150  0.06611400  1
  H  H72  1  0.44148000  0.44009700  0.13151000  1
  H  H73  1  0.59148050  0.47409650  0.38839200  1
  H  H74  1  0.21288350  0.48156500  0.03448450  1
  H  H75  1  0.71288350  0.51843500  0.46551550  1
  H  H76  1  0.09148050  0.52590350  0.11160800  1
  H  H77  1  0.94148000  0.55990300  0.36849000  1
  H  H78  1  0.53083550  0.56339850  0.43388600  1
  H  H79  1  0.40758800  0.58087600  0.12616200  1
  H  H80  1  0.65758800  0.66912400  0.37616200  1
  H  H81  1  0.28083550  0.68660150  0.18388600  1
  H  H82  1  0.34148050  0.72409650  0.36160800  1
  H  H83  1  0.46288350  0.73156500  0.21551550  1
  H  H84  1  0.46288350  0.76843500  0.28448450  1
  H  H85  1  0.34148050  0.77590350  0.13839200  1
  H  H86  1  0.28083550  0.81339850  0.31611400  1
  H  H87  1  0.40758800  0.91912400  0.37383800  1
  N  N88  1  0.44875250  0.76643900  0.99466750  1
  N  N89  1  0.47899850  0.79886150  0.82683300  1
  N  N90  1  0.72899850  0.95113850  0.57683300  1
  N  N91  1  0.69875250  0.98356100  0.74466750  1
  N  N92  1  0.19875250  0.01643900  0.75533250  1
  N  N93  1  0.22899850  0.04886150  0.92316700  1
  N  N94  1  0.97899850  0.20113850  0.67316700  1
  N  N95  1  0.94875250  0.23356100  0.50533250  1
  N  N96  1  0.94875250  0.76643900  0.49466750  1
  N  N97  1  0.97899850  0.79886150  0.32683300  1
  N  N98  1  0.22899850  0.95113850  0.07683300  1
  N  N99  1  0.19875250  0.98356100  0.24466750  1
  N  N100  1  0.69875250  0.01643900  0.25533250  1
  N  N101  1  0.72899850  0.04886150  0.42316700  1
  N  N102  1  0.47899850  0.20113850  0.17316700  1
  N  N103  1  0.44875250  0.23356100  0.00533250  1
  N  N104  1  0.94875250  0.26643900  0.99466750  1
  N  N105  1  0.97899850  0.29886150  0.82683300  1
  N  N106  1  0.22899850  0.45113850  0.57683300  1
  N  N107  1  0.19875250  0.48356100  0.74466750  1
  N  N108  1  0.69875250  0.51643900  0.75533250  1
  N  N109  1  0.72899850  0.54886150  0.92316700  1
  N  N110  1  0.47899850  0.70113850  0.67316700  1
  N  N111  1  0.44875250  0.73356100  0.50533250  1
  N  N112  1  0.44875250  0.26643900  0.49466750  1
  N  N113  1  0.47899850  0.29886150  0.32683300  1
  N  N114  1  0.72899850  0.45113850  0.07683300  1
  N  N115  1  0.69875250  0.48356100  0.24466750  1
  N  N116  1  0.19875250  0.51643900  0.25533250  1
  N  N117  1  0.22899850  0.54886150  0.42316700  1
  N  N118  1  0.97899850  0.70113850  0.17316700  1
  N  N119  1  0.94875250  0.73356100  0.00533250  1
  O  O120  1  0.15760700  0.55085050  0.70412950  1
  O  O121  1  0.44401700  0.69181500  0.81362800  1
  O  O122  1  0.40760700  0.69914950  0.95412950  1
  O  O123  1  0.99395850  0.71206300  0.54009350  1
  O  O124  1  0.18402450  0.74252700  0.85400850  1
  O  O125  1  0.01837450  0.75000000  0.75000000  1
  O  O126  1  0.18402450  0.75747300  0.64599150  1
  O  O127  1  0.44401700  0.80818500  0.68637200  1
  O  O128  1  0.57168700  0.81841500  0.85801300  1
  O  O129  1  0.44761300  0.87659050  0.99175350  1
  O  O130  1  0.41184150  0.88288600  0.80538350  1
  O  O131  1  0.82168700  0.93158500  0.60801300  1
  O  O132  1  0.19401700  0.94181500  0.93637200  1
  O  O133  1  0.15760700  0.94914950  0.79587050  1
  O  O134  1  0.10858950  0.95352300  0.58805250  1
  O  O135  1  0.24395850  0.96206300  0.70990650  1
  O  O136  1  0.93402450  0.99252700  0.89599150  1
  O  O137  1  0.76837450  0.00000000  0.00000000  1
  O  O138  1  0.43402450  0.00747300  0.60400850  1
  O  O139  1  0.74395850  0.03793700  0.79009350  1
  O  O140  1  0.60858950  0.04647700  0.91194750  1
  O  O141  1  0.69401700  0.05818500  0.56362800  1
  O  O142  1  0.32168700  0.06841500  0.89198700  1
  O  O143  1  0.91184150  0.11711400  0.69461650  1
  O  O144  1  0.19761300  0.12659050  0.75824650  1
  O  O145  1  0.94761300  0.12340950  0.50824650  1
  O  O146  1  0.16184150  0.13288600  0.94461650  1
  O  O147  1  0.07168700  0.18158500  0.64198700  1
  O  O148  1  0.35858950  0.20352300  0.66194750  1
  O  O149  1  0.49395850  0.28793700  0.95990650  1
  O  O150  1  0.35858950  0.29647700  0.83805250  1
  O  O151  1  0.90760700  0.30085050  0.54587050  1
  O  O152  1  0.16184150  0.36711400  0.55538350  1
  O  O153  1  0.19761300  0.37340950  0.74175350  1
  O  O154  1  0.65760700  0.55085050  0.20412950  1
  O  O155  1  0.94401700  0.69181500  0.31362800  1
  O  O156  1  0.90760700  0.69914950  0.45412950  1
  O  O157  1  0.49395850  0.71206300  0.04009350  1
  O  O158  1  0.68402450  0.74252700  0.35400850  1
  O  O159  1  0.51837450  0.75000000  0.25000000  1
  O  O160  1  0.68402450  0.75747300  0.14599150  1
  O  O161  1  0.94401700  0.80818500  0.18637200  1
  O  O162  1  0.07168700  0.81841500  0.35801300  1
  O  O163  1  0.94761300  0.87659050  0.49175350  1
  O  O164  1  0.91184150  0.88288600  0.30538350  1
  O  O165  1  0.32168700  0.93158500  0.10801300  1
  O  O166  1  0.69401700  0.94181500  0.43637200  1
  O  O167  1  0.65760700  0.94914950  0.29587050  1
  O  O168  1  0.60858950  0.95352300  0.08805250  1
  O  O169  1  0.74395850  0.96206300  0.20990650  1
  O  O170  1  0.43402450  0.99252700  0.39599150  1
  O  O171  1  0.26837450  0.00000000  0.50000000  1
  O  O172  1  0.93402450  0.00747300  0.10400850  1
  O  O173  1  0.24395850  0.03793700  0.29009350  1
  O  O174  1  0.10858950  0.04647700  0.41194750  1
  O  O175  1  0.19401700  0.05818500  0.06362800  1
  O  O176  1  0.82168700  0.06841500  0.39198700  1
  O  O177  1  0.41184150  0.11711400  0.19461650  1
  O  O178  1  0.69761300  0.12659050  0.25824650  1
  O  O179  1  0.44761300  0.12340950  0.00824650  1
  O  O180  1  0.66184150  0.13288600  0.44461650  1
  O  O181  1  0.57168700  0.18158500  0.14198700  1
  O  O182  1  0.85858950  0.20352300  0.16194750  1
  O  O183  1  0.99395850  0.28793700  0.45990650  1
  O  O184  1  0.85858950  0.29647700  0.33805250  1
  O  O185  1  0.40760700  0.30085050  0.04587050  1
  O  O186  1  0.66184150  0.36711400  0.05538350  1
  O  O187  1  0.69761300  0.37340950  0.24175350  1
  O  O188  1  0.65760700  0.05085050  0.70412950  1
  O  O189  1  0.94401700  0.19181500  0.81362800  1
  O  O190  1  0.90760700  0.19914950  0.95412950  1
  O  O191  1  0.49395850  0.21206300  0.54009350  1
  O  O192  1  0.68402450  0.24252700  0.85400850  1
  O  O193  1  0.51837450  0.25000000  0.75000000  1
  O  O194  1  0.68402450  0.25747300  0.64599150  1
  O  O195  1  0.94401700  0.30818500  0.68637200  1
  O  O196  1  0.07168700  0.31841500  0.85801300  1
  O  O197  1  0.94761300  0.37659050  0.99175350  1
  O  O198  1  0.91184150  0.38288600  0.80538350  1
  O  O199  1  0.32168700  0.43158500  0.60801300  1
  O  O200  1  0.69401700  0.44181500  0.93637200  1
  O  O201  1  0.65760700  0.44914950  0.79587050  1
  O  O202  1  0.60858950  0.45352300  0.58805250  1
  O  O203  1  0.74395850  0.46206300  0.70990650  1
  O  O204  1  0.43402450  0.49252700  0.89599150  1
  O  O205  1  0.26837450  0.50000000  0.00000000  1
  O  O206  1  0.93402450  0.50747300  0.60400850  1
  O  O207  1  0.24395850  0.53793700  0.79009350  1
  O  O208  1  0.10858950  0.54647700  0.91194750  1
  O  O209  1  0.19401700  0.55818500  0.56362800  1
  O  O210  1  0.82168700  0.56841500  0.89198700  1
  O  O211  1  0.41184150  0.61711400  0.69461650  1
  O  O212  1  0.69761300  0.62659050  0.75824650  1
  O  O213  1  0.44761300  0.62340950  0.50824650  1
  O  O214  1  0.66184150  0.63288600  0.94461650  1
  O  O215  1  0.57168700  0.68158500  0.64198700  1
  O  O216  1  0.85858950  0.70352300  0.66194750  1
  O  O217  1  0.99395850  0.78793700  0.95990650  1
  O  O218  1  0.85858950  0.79647700  0.83805250  1
  O  O219  1  0.40760700  0.80085050  0.54587050  1
  O  O220  1  0.66184150  0.86711400  0.55538350  1
  O  O221  1  0.69761300  0.87340950  0.74175350  1
  O  O222  1  0.15760700  0.05085050  0.20412950  1
  O  O223  1  0.44401700  0.19181500  0.31362800  1
  O  O224  1  0.40760700  0.19914950  0.45412950  1
  O  O225  1  0.99395850  0.21206300  0.04009350  1
  O  O226  1  0.18402450  0.24252700  0.35400850  1
  O  O227  1  0.01837450  0.25000000  0.25000000  1
  O  O228  1  0.18402450  0.25747300  0.14599150  1
  O  O229  1  0.44401700  0.30818500  0.18637200  1
  O  O230  1  0.57168700  0.31841500  0.35801300  1
  O  O231  1  0.44761300  0.37659050  0.49175350  1
  O  O232  1  0.41184150  0.38288600  0.30538350  1
  O  O233  1  0.82168700  0.43158500  0.10801300  1
  O  O234  1  0.19401700  0.44181500  0.43637200  1
  O  O235  1  0.15760700  0.44914950  0.29587050  1
  O  O236  1  0.10858950  0.45352300  0.08805250  1
  O  O237  1  0.24395850  0.46206300  0.20990650  1
  O  O238  1  0.93402450  0.49252700  0.39599150  1
  O  O239  1  0.76837450  0.50000000  0.50000000  1
  O  O240  1  0.43402450  0.50747300  0.10400850  1
  O  O241  1  0.74395850  0.53793700  0.29009350  1
  O  O242  1  0.60858950  0.54647700  0.41194750  1
  O  O243  1  0.69401700  0.55818500  0.06362800  1
  O  O244  1  0.32168700  0.56841500  0.39198700  1
  O  O245  1  0.91184150  0.61711400  0.19461650  1
  O  O246  1  0.19761300  0.62659050  0.25824650  1
  O  O247  1  0.94761300  0.62340950  0.00824650  1
  O  O248  1  0.16184150  0.63288600  0.44461650  1
  O  O249  1  0.07168700  0.68158500  0.14198700  1
  O  O250  1  0.35858950  0.70352300  0.16194750  1
  O  O251  1  0.49395850  0.78793700  0.45990650  1
  O  O252  1  0.35858950  0.79647700  0.33805250  1
  O  O253  1  0.90760700  0.80085050  0.04587050  1
  O  O254  1  0.16184150  0.86711400  0.05538350  1
  O  O255  1  0.19761300  0.87340950  0.24175350  1
