# generated using pymatgen
data_LaBiO3
_symmetry_space_group_name_H-M   'P 1'
_cell_length_a   6.30052378
_cell_length_b   6.30052378
_cell_length_c   15.42400990
_cell_angle_alpha   90.00000000
_cell_angle_beta   90.00000000
_cell_angle_gamma   120.00000000
_symmetry_Int_Tables_number   1
_chemical_formula_structural   LaBiO3
_chemical_formula_sum   'La6 Bi6 O18'
_cell_volume   530.25068314
_cell_formula_units_Z   6
loop_
 _symmetry_equiv_pos_site_id
 _symmetry_equiv_pos_as_xyz
  1  'x, y, z'
loop_
 _atom_site_type_symbol
 _atom_site_label
 _atom_site_symmetry_multiplicity
 _atom_site_fract_x
 _atom_site_fract_y
 _atom_site_fract_z
 _atom_site_occupancy
  La  La0  1  0.33333333  0.66666667  0.53324467  1
  La  La1  1  0.33333333  0.66666667  0.80008867  1
  La  La2  1  0.00000000  0.00000000  0.86657800  1
  La  La3  1  0.00000000  0.00000000  0.13342200  1
  La  La4  1  0.66666667  0.33333333  0.19991133  1
  La  La5  1  0.66666667  0.33333333  0.46675533  1
  Bi  Bi6  1  0.33333333  0.66666667  0.31526567  1
  Bi  Bi7  1  0.33333333  0.66666667  0.01806767  1
  Bi  Bi8  1  0.00000000  0.00000000  0.64859900  1
  Bi  Bi9  1  0.00000000  0.00000000  0.35140100  1
  Bi  Bi10  1  0.66666667  0.33333333  0.98193233  1
  Bi  Bi11  1  0.66666667  0.33333333  0.68473433  1
  O  O12  1  0.74086067  0.71908533  0.25404733  1
  O  O13  1  0.38575200  0.31155800  0.07928600  1
  O  O14  1  0.68844200  0.07419400  0.07928600  1
  O  O15  1  0.97822467  0.25913933  0.25404733  1
  O  O16  1  0.28091467  0.02177533  0.25404733  1
  O  O17  1  0.92580600  0.61424800  0.07928600  1
  O  O18  1  0.40752733  0.05241867  0.58738067  1
  O  O19  1  0.05241867  0.64489133  0.41261933  1
  O  O20  1  0.35510867  0.40752733  0.41261933  1
  O  O21  1  0.64489133  0.59247267  0.58738067  1
  O  O22  1  0.94758133  0.35510867  0.58738067  1
  O  O23  1  0.59247267  0.94758133  0.41261933  1
  O  O24  1  0.07419400  0.38575200  0.92071400  1
  O  O25  1  0.71908533  0.97822467  0.74595267  1
  O  O26  1  0.02177533  0.74086067  0.74595267  1
  O  O27  1  0.31155800  0.92580600  0.92071400  1
  O  O28  1  0.61424800  0.68844200  0.92071400  1
  O  O29  1  0.25913933  0.28091467  0.74595267  1
