# generated using pymatgen
data_Li3V3CoO8
_symmetry_space_group_name_H-M   'P 1'
_cell_length_a   5.85479884
_cell_length_b   5.85479884
_cell_length_c   14.64816143
_cell_angle_alpha   90.00000000
_cell_angle_beta   90.00000000
_cell_angle_gamma   120.00000000
_symmetry_Int_Tables_number   1
_chemical_formula_structural   Li3V3CoO8
_chemical_formula_sum   'Li9 V9 Co3 O24'
_cell_volume   434.84822913
_cell_formula_units_Z   3
loop_
 _symmetry_equiv_pos_site_id
 _symmetry_equiv_pos_as_xyz
  1  'x, y, z'
loop_
 _atom_site_type_symbol
 _atom_site_label
 _atom_site_symmetry_multiplicity
 _atom_site_fract_x
 _atom_site_fract_y
 _atom_site_fract_z
 _atom_site_occupancy
  Li  Li0  1  0.83333333  0.66666667  0.16666667  1
  Li  Li1  1  0.33333333  0.16666667  0.16666667  1
  Li  Li2  1  0.83333333  0.16666667  0.16666667  1
  Li  Li3  1  0.50000000  0.00000000  0.50000000  1
  Li  Li4  1  0.00000000  0.50000000  0.50000000  1
  Li  Li5  1  0.50000000  0.50000000  0.50000000  1
  Li  Li6  1  0.16666667  0.33333333  0.83333333  1
  Li  Li7  1  0.66666667  0.83333333  0.83333333  1
  Li  Li8  1  0.16666667  0.83333333  0.83333333  1
  V  V9  1  0.50000000  0.00000000  0.00000000  1
  V  V10  1  0.00000000  0.50000000  0.00000000  1
  V  V11  1  0.50000000  0.50000000  0.00000000  1
  V  V12  1  0.16666667  0.33333333  0.33333333  1
  V  V13  1  0.66666667  0.83333333  0.33333333  1
  V  V14  1  0.16666667  0.83333333  0.33333333  1
  V  V15  1  0.83333333  0.66666667  0.66666667  1
  V  V16  1  0.33333333  0.16666667  0.66666667  1
  V  V17  1  0.83333333  0.16666667  0.66666667  1
  Co  Co18  1  0.00000000  0.00000000  0.00000000  1
  Co  Co19  1  0.66666667  0.33333333  0.33333333  1
  Co  Co20  1  0.33333333  0.66666667  0.66666667  1
  O  O21  1  0.66666667  0.33333333  0.07680467  1
  O  O22  1  0.16332233  0.32630267  0.07224667  1
  O  O23  1  0.67369733  0.83701967  0.07224667  1
  O  O24  1  0.00000000  0.00000000  0.25652867  1
  O  O25  1  0.16298033  0.83667767  0.07224667  1
  O  O26  1  0.50334433  0.00703067  0.26108667  1
  O  O27  1  0.99296933  0.49631367  0.26108667  1
  O  O28  1  0.50368633  0.49665567  0.26108667  1
  O  O29  1  0.33333333  0.66666667  0.41013800  1
  O  O30  1  0.82998900  0.65963600  0.40558000  1
  O  O31  1  0.34036400  0.17035300  0.40558000  1
  O  O32  1  0.66666667  0.33333333  0.58986200  1
  O  O33  1  0.82964700  0.17001100  0.40558000  1
  O  O34  1  0.17001100  0.34036400  0.59442000  1
  O  O35  1  0.65963600  0.82964700  0.59442000  1
  O  O36  1  0.17035300  0.82998900  0.59442000  1
  O  O37  1  0.00000000  0.00000000  0.74347133  1
  O  O38  1  0.49665567  0.99296933  0.73891333  1
  O  O39  1  0.00703067  0.50368633  0.73891333  1
  O  O40  1  0.33333333  0.66666667  0.92319533  1
  O  O41  1  0.49631367  0.50334433  0.73891333  1
  O  O42  1  0.83667767  0.67369733  0.92775333  1
  O  O43  1  0.32630267  0.16298033  0.92775333  1
  O  O44  1  0.83701967  0.16332233  0.92775333  1
