# generated using pymatgen
data_LiCr(PO3)5
_symmetry_space_group_name_H-M   'P 1'
_cell_length_a   5.26269000
_cell_length_b   9.69934100
_cell_length_c   13.12706683
_cell_angle_alpha   90.00000000
_cell_angle_beta   109.28849661
_cell_angle_gamma   90.00000000
_symmetry_Int_Tables_number   1
_chemical_formula_structural   LiCr(PO3)5
_chemical_formula_sum   'Li2 Cr2 P10 O30'
_cell_volume   632.45357068
_cell_formula_units_Z   2
loop_
 _symmetry_equiv_pos_site_id
 _symmetry_equiv_pos_as_xyz
  1  'x, y, z'
loop_
 _atom_site_type_symbol
 _atom_site_label
 _atom_site_symmetry_multiplicity
 _atom_site_fract_x
 _atom_site_fract_y
 _atom_site_fract_z
 _atom_site_occupancy
  Li  Li0  1  0.94929200  0.39245400  0.56732200  1
  Li  Li1  1  0.94929200  0.60754600  0.06732200  1
  Cr  Cr2  1  0.98872900  0.99653700  0.49561300  1
  Cr  Cr3  1  0.98872900  0.00346300  0.99561300  1
  P  P4  1  0.40448400  0.17592900  0.41157400  1
  P  P5  1  0.57160900  0.82202300  0.58074300  1
  P  P6  1  0.53324800  0.47217200  0.14348000  1
  P  P7  1  0.57160900  0.17797700  0.08074300  1
  P  P8  1  0.53324800  0.52782800  0.64348000  1
  P  P9  1  0.98843400  0.01679600  0.24576700  1
  P  P10  1  0.47488600  0.46961100  0.35990100  1
  P  P11  1  0.47488600  0.53038900  0.85990100  1
  P  P12  1  0.40448400  0.82407100  0.91157400  1
  P  P13  1  0.98843400  0.98320400  0.74576700  1
  O  O14  1  0.51093900  0.40657800  0.25274800  1
  O  O15  1  0.02736000  0.05920700  0.65149900  1
  O  O16  1  0.24482900  0.11887100  0.29220500  1
  O  O17  1  0.70043300  0.13069800  0.99974200  1
  O  O18  1  0.27516000  0.15226700  0.05674300  1
  O  O19  1  0.95199700  0.06026100  0.83970600  1
  O  O20  1  0.95199700  0.93973900  0.33970600  1
  O  O21  1  0.70371800  0.15185200  0.43812500  1
  O  O22  1  0.28430100  0.58915200  0.33979000  1
  O  O23  1  0.73379300  0.88157900  0.70008000  1
  O  O24  1  0.74405700  0.41752800  0.66251500  1
  O  O25  1  0.64143500  0.66298100  0.59946300  1
  O  O26  1  0.02736000  0.94079300  0.15149900  1
  O  O27  1  0.25695400  0.48967400  0.57278100  1
  O  O28  1  0.33994800  0.33610300  0.39605600  1
  O  O29  1  0.33994800  0.66389700  0.89605600  1
  O  O30  1  0.70371800  0.84814800  0.93812500  1
  O  O31  1  0.73379300  0.11842100  0.20008000  1
  O  O32  1  0.27516000  0.84773300  0.55674300  1
  O  O33  1  0.24482900  0.88112900  0.79220500  1
  O  O34  1  0.74964600  0.50512700  0.93894800  1
  O  O35  1  0.64143500  0.33701900  0.09946300  1
  O  O36  1  0.27501400  0.12831400  0.49249100  1
  O  O37  1  0.70043300  0.86930200  0.49974200  1
  O  O38  1  0.25695400  0.51032600  0.07278100  1
  O  O39  1  0.51093900  0.59342200  0.75274800  1
  O  O40  1  0.74405700  0.58247200  0.16251500  1
  O  O41  1  0.74964600  0.49487300  0.43894800  1
  O  O42  1  0.28430100  0.41084800  0.83979000  1
  O  O43  1  0.27501400  0.87168600  0.99249100  1
