# generated using pymatgen
data_Sr3Nb4O13
_symmetry_space_group_name_H-M   'P 1'
_cell_length_a   3.98916400
_cell_length_b   3.98916400
_cell_length_c   36.71884400
_cell_angle_alpha   90.00000000
_cell_angle_beta   90.00000000
_cell_angle_gamma   90.00000000
_symmetry_Int_Tables_number   1
_chemical_formula_structural   Sr3Nb4O13
_chemical_formula_sum   'Sr6 Nb8 O26'
_cell_volume   584.32273234
_cell_formula_units_Z   2
loop_
 _symmetry_equiv_pos_site_id
 _symmetry_equiv_pos_as_xyz
  1  'x, y, z'
loop_
 _atom_site_type_symbol
 _atom_site_label
 _atom_site_symmetry_multiplicity
 _atom_site_fract_x
 _atom_site_fract_y
 _atom_site_fract_z
 _atom_site_occupancy
  Sr  Sr0  1  0.00000000  0.00000000  0.36981400  1
  Sr  Sr1  1  0.50000000  0.50000000  0.00000000  1
  Sr  Sr2  1  0.50000000  0.50000000  0.13018600  1
  Sr  Sr3  1  0.50000000  0.50000000  0.86981400  1
  Sr  Sr4  1  0.00000000  0.00000000  0.50000000  1
  Sr  Sr5  1  0.00000000  0.00000000  0.63018600  1
  Nb  Nb6  1  0.00000000  0.00000000  0.05852800  1
  Nb  Nb7  1  0.00000000  0.00000000  0.18820900  1
  Nb  Nb8  1  0.50000000  0.50000000  0.31179100  1
  Nb  Nb9  1  0.50000000  0.50000000  0.44147200  1
  Nb  Nb10  1  0.50000000  0.50000000  0.55852800  1
  Nb  Nb11  1  0.50000000  0.50000000  0.68820900  1
  Nb  Nb12  1  0.00000000  0.00000000  0.81179100  1
  Nb  Nb13  1  0.00000000  0.00000000  0.94147200  1
  O  O14  1  0.00000000  0.00000000  0.00000000  1
  O  O15  1  0.00000000  0.00000000  0.10976300  1
  O  O16  1  0.00000000  0.50000000  0.05292300  1
  O  O17  1  0.00000000  0.00000000  0.23524300  1
  O  O18  1  0.00000000  0.50000000  0.17170000  1
  O  O19  1  0.00000000  0.50000000  0.44707700  1
  O  O20  1  0.00000000  0.50000000  0.32830000  1
  O  O21  1  0.50000000  0.50000000  0.26475700  1
  O  O22  1  0.50000000  0.50000000  0.39023700  1
  O  O23  1  0.50000000  0.00000000  0.17170000  1
  O  O24  1  0.50000000  0.00000000  0.32830000  1
  O  O25  1  0.50000000  0.00000000  0.44707700  1
  O  O26  1  0.50000000  0.00000000  0.05292300  1
  O  O27  1  0.50000000  0.50000000  0.50000000  1
  O  O28  1  0.50000000  0.50000000  0.60976300  1
  O  O29  1  0.50000000  0.00000000  0.55292300  1
  O  O30  1  0.50000000  0.50000000  0.73524300  1
  O  O31  1  0.50000000  0.00000000  0.67170000  1
  O  O32  1  0.50000000  0.00000000  0.94707700  1
  O  O33  1  0.50000000  0.00000000  0.82830000  1
  O  O34  1  0.00000000  0.00000000  0.76475700  1
  O  O35  1  0.00000000  0.00000000  0.89023700  1
  O  O36  1  0.00000000  0.50000000  0.67170000  1
  O  O37  1  0.00000000  0.50000000  0.82830000  1
  O  O38  1  0.00000000  0.50000000  0.94707700  1
  O  O39  1  0.00000000  0.50000000  0.55292300  1
