# generated using pymatgen
data_BaLaI5
_symmetry_space_group_name_H-M   'P 1'
_cell_length_a   14.85235600
_cell_length_b   11.65923200
_cell_length_c   21.48828644
_cell_angle_alpha   90.00000000
_cell_angle_beta   133.36177201
_cell_angle_gamma   90.00000000
_symmetry_Int_Tables_number   1
_chemical_formula_structural   BaLaI5
_chemical_formula_sum   'Ba8 La8 I40'
_cell_volume   2705.33571089
_cell_formula_units_Z   8
loop_
 _symmetry_equiv_pos_site_id
 _symmetry_equiv_pos_as_xyz
  1  'x, y, z'
loop_
 _atom_site_type_symbol
 _atom_site_label
 _atom_site_symmetry_multiplicity
 _atom_site_fract_x
 _atom_site_fract_y
 _atom_site_fract_z
 _atom_site_occupancy
  Ba  Ba0  1  0.34917900  0.28935500  0.14236800  1
  Ba  Ba1  1  0.80822500  0.26850300  0.53261900  1
  Ba  Ba2  1  0.65082100  0.78935500  0.35763200  1
  Ba  Ba3  1  0.19177500  0.76850300  0.96738100  1
  Ba  Ba4  1  0.80822500  0.23149700  0.03261900  1
  Ba  Ba5  1  0.34917900  0.21064500  0.64236800  1
  Ba  Ba6  1  0.19177500  0.73149700  0.46738100  1
  Ba  Ba7  1  0.65082100  0.71064500  0.85763200  1
  La  La8  1  0.20208200  0.80041100  0.19357400  1
  La  La9  1  0.77580000  0.76529500  0.65690300  1
  La  La10  1  0.22420000  0.26529500  0.84309700  1
  La  La11  1  0.79791800  0.30041100  0.30642600  1
  La  La12  1  0.20208200  0.69958900  0.69357400  1
  La  La13  1  0.77580000  0.73470500  0.15690300  1
  La  La14  1  0.22420000  0.23470500  0.34309700  1
  La  La15  1  0.79791800  0.19958900  0.80642600  1
  I  I16  1  0.43899600  0.75769000  0.38103600  1
  I  I17  1  0.03513800  0.19216600  0.00270600  1
  I  I18  1  0.45385800  0.23126800  0.36011300  1
  I  I19  1  0.27966900  0.59507800  0.14067700  1
  I  I20  1  0.90851200  0.61672200  0.81919600  1
  I  I21  1  0.88993600  0.96344200  0.79703800  1
  I  I22  1  0.36175700  0.94687300  0.17232800  1
  I  I23  1  0.73935600  0.56511900  0.54518800  1
  I  I24  1  0.73657100  0.96038000  0.53597300  1
  I  I25  1  0.92976700  0.29770500  0.74746900  1
  I  I26  1  0.63824300  0.44687300  0.32767200  1
  I  I27  1  0.07023300  0.79770500  0.75253100  1
  I  I28  1  0.26342900  0.46038000  0.96402700  1
  I  I29  1  0.26064400  0.06511900  0.95481200  1
  I  I30  1  0.72033100  0.09507800  0.35932300  1
  I  I31  1  0.54614200  0.73126800  0.13988700  1
  I  I32  1  0.11006400  0.46344200  0.70296200  1
  I  I33  1  0.09148800  0.11672200  0.68080400  1
  I  I34  1  0.56100400  0.25769000  0.11896400  1
  I  I35  1  0.96486200  0.69216600  0.49729400  1
  I  I36  1  0.03513800  0.30783400  0.50270600  1
  I  I37  1  0.43899600  0.74231000  0.88103600  1
  I  I38  1  0.90851200  0.88327800  0.31919600  1
  I  I39  1  0.88993600  0.53655800  0.29703800  1
  I  I40  1  0.45385800  0.26873200  0.86011300  1
  I  I41  1  0.27966900  0.90492200  0.64067700  1
  I  I42  1  0.73935600  0.93488100  0.04518800  1
  I  I43  1  0.73657100  0.53962000  0.03597300  1
  I  I44  1  0.92976700  0.20229500  0.24746900  1
  I  I45  1  0.36175700  0.55312700  0.67232800  1
  I  I46  1  0.07023300  0.70229500  0.25253100  1
  I  I47  1  0.26342900  0.03962000  0.46402700  1
  I  I48  1  0.26064400  0.43488100  0.45481200  1
  I  I49  1  0.63824300  0.05312700  0.82767200  1
  I  I50  1  0.11006400  0.03655800  0.20296200  1
  I  I51  1  0.09148800  0.38327800  0.18080400  1
  I  I52  1  0.72033100  0.40492200  0.85932300  1
  I  I53  1  0.54614200  0.76873200  0.63988700  1
  I  I54  1  0.96486200  0.80783400  0.99729400  1
  I  I55  1  0.56100400  0.24231000  0.61896400  1
