# generated using pymatgen
data_HoInO3
_symmetry_space_group_name_H-M   'P 1'
_cell_length_a   6.33976414
_cell_length_b   6.33976414
_cell_length_c   12.33347300
_cell_angle_alpha   90.00000000
_cell_angle_beta   90.00000000
_cell_angle_gamma   120.00000000
_symmetry_Int_Tables_number   1
_chemical_formula_structural   HoInO3
_chemical_formula_sum   'Ho6 In6 O18'
_cell_volume   429.30131724
_cell_formula_units_Z   6
loop_
 _symmetry_equiv_pos_site_id
 _symmetry_equiv_pos_as_xyz
  1  'x, y, z'
loop_
 _atom_site_type_symbol
 _atom_site_label
 _atom_site_symmetry_multiplicity
 _atom_site_fract_x
 _atom_site_fract_y
 _atom_site_fract_z
 _atom_site_occupancy
  Ho  Ho0  1  0.66666667  0.33333333  0.73022300  1
  Ho  Ho1  1  0.00000000  0.00000000  0.76559600  1
  Ho  Ho2  1  0.00000000  0.00000000  0.26559600  1
  Ho  Ho3  1  0.66666667  0.33333333  0.23022300  1
  Ho  Ho4  1  0.33333333  0.66666667  0.23022300  1
  Ho  Ho5  1  0.33333333  0.66666667  0.73022300  1
  In  In6  1  0.66674150  0.66674150  0.99592500  1
  In  In7  1  0.33325850  0.33325850  0.49592500  1
  In  In8  1  0.33325850  0.00000000  0.99592500  1
  In  In9  1  0.66674150  0.00000000  0.49592500  1
  In  In10  1  0.00000000  0.66674150  0.49592500  1
  In  In11  1  0.00000000  0.33325850  0.99592500  1
  O  O12  1  0.69478550  0.69478550  0.16875500  1
  O  O13  1  0.63632650  0.63632650  0.82534600  1
  O  O14  1  0.36367350  0.36367350  0.32534600  1
  O  O15  1  0.30521450  0.30521450  0.66875500  1
  O  O16  1  0.66666667  0.33333333  0.52768700  1
  O  O17  1  0.00000000  0.00000000  0.95987800  1
  O  O18  1  0.00000000  0.00000000  0.45987800  1
  O  O19  1  0.66666667  0.33333333  0.02768700  1
  O  O20  1  0.30521450  0.00000000  0.16875500  1
  O  O21  1  0.36367350  0.00000000  0.82534600  1
  O  O22  1  0.00000000  0.69478550  0.66875500  1
  O  O23  1  0.63632650  0.00000000  0.32534600  1
  O  O24  1  0.69478550  0.00000000  0.66875500  1
  O  O25  1  0.00000000  0.63632650  0.32534600  1
  O  O26  1  0.33333333  0.66666667  0.02768700  1
  O  O27  1  0.33333333  0.66666667  0.52768700  1
  O  O28  1  0.00000000  0.36367350  0.82534600  1
  O  O29  1  0.00000000  0.30521450  0.16875500  1
