# generated using pymatgen
data_Bi2SeO6
_symmetry_space_group_name_H-M   'P 1'
_cell_length_a   5.36883200
_cell_length_b   16.12858400
_cell_length_c   5.37973500
_cell_angle_alpha   90.00000000
_cell_angle_beta   90.00000000
_cell_angle_gamma   90.00000000
_symmetry_Int_Tables_number   1
_chemical_formula_structural   Bi2SeO6
_chemical_formula_sum   'Bi8 Se4 O24'
_cell_volume   465.84017268
_cell_formula_units_Z   4
loop_
 _symmetry_equiv_pos_site_id
 _symmetry_equiv_pos_as_xyz
  1  'x, y, z'
loop_
 _atom_site_type_symbol
 _atom_site_label
 _atom_site_symmetry_multiplicity
 _atom_site_fract_x
 _atom_site_fract_y
 _atom_site_fract_z
 _atom_site_occupancy
  Bi  Bi0  1  0.00000000  0.83162900  0.50197100  1
  Bi  Bi1  1  0.50000000  0.83162900  0.99802900  1
  Bi  Bi2  1  0.00000000  0.66837100  0.00197100  1
  Bi  Bi3  1  0.50000000  0.66837100  0.49802900  1
  Bi  Bi4  1  0.50000000  0.33162900  0.50197100  1
  Bi  Bi5  1  0.00000000  0.33162900  0.99802900  1
  Bi  Bi6  1  0.50000000  0.16837100  0.00197100  1
  Bi  Bi7  1  0.00000000  0.16837100  0.49802900  1
  Se  Se8  1  0.00000000  0.00000000  0.00000000  1
  Se  Se9  1  0.50000000  0.00000000  0.50000000  1
  Se  Se10  1  0.50000000  0.50000000  0.00000000  1
  Se  Se11  1  0.00000000  0.50000000  0.50000000  1
  O  O12  1  0.75000000  0.96740800  0.75000000  1
  O  O13  1  0.00000000  0.89422900  0.07015200  1
  O  O14  1  0.25000000  0.96740800  0.75000000  1
  O  O15  1  0.50000000  0.89422900  0.42984800  1
  O  O16  1  0.25000000  0.74999600  0.75000000  1
  O  O17  1  0.25000000  0.75000400  0.25000000  1
  O  O18  1  0.75000000  0.74999600  0.75000000  1
  O  O19  1  0.75000000  0.75000400  0.25000000  1
  O  O20  1  0.00000000  0.60577100  0.57015200  1
  O  O21  1  0.25000000  0.53259200  0.25000000  1
  O  O22  1  0.50000000  0.60577100  0.92984800  1
  O  O23  1  0.75000000  0.53259200  0.25000000  1
  O  O24  1  0.25000000  0.46740800  0.75000000  1
  O  O25  1  0.50000000  0.39422900  0.07015200  1
  O  O26  1  0.75000000  0.46740800  0.75000000  1
  O  O27  1  0.00000000  0.39422900  0.42984800  1
  O  O28  1  0.75000000  0.24999600  0.75000000  1
  O  O29  1  0.75000000  0.25000400  0.25000000  1
  O  O30  1  0.25000000  0.24999600  0.75000000  1
  O  O31  1  0.25000000  0.25000400  0.25000000  1
  O  O32  1  0.50000000  0.10577100  0.57015200  1
  O  O33  1  0.75000000  0.03259200  0.25000000  1
  O  O34  1  0.00000000  0.10577100  0.92984800  1
  O  O35  1  0.25000000  0.03259200  0.25000000  1
