# generated using pymatgen
data_CrBiO4
_symmetry_space_group_name_H-M   'P 1'
_cell_length_a   7.39103200
_cell_length_b   7.39103200
_cell_length_c   6.45776600
_cell_angle_alpha   90.00000000
_cell_angle_beta   90.00000000
_cell_angle_gamma   90.00000000
_symmetry_Int_Tables_number   1
_chemical_formula_structural   CrBiO4
_chemical_formula_sum   'Cr4 Bi4 O16'
_cell_volume   352.77066949
_cell_formula_units_Z   4
loop_
 _symmetry_equiv_pos_site_id
 _symmetry_equiv_pos_as_xyz
  1  'x, y, z'
loop_
 _atom_site_type_symbol
 _atom_site_label
 _atom_site_symmetry_multiplicity
 _atom_site_fract_x
 _atom_site_fract_y
 _atom_site_fract_z
 _atom_site_occupancy
  Cr  Cr0  1  0.00000000  0.00000000  0.50000000  1
  Cr  Cr1  1  0.50000000  0.00000000  0.75000000  1
  Cr  Cr2  1  0.50000000  0.50000000  0.00000000  1
  Cr  Cr3  1  0.00000000  0.50000000  0.25000000  1
  Bi  Bi4  1  0.50000000  0.00000000  0.25000000  1
  Bi  Bi5  1  0.50000000  0.50000000  0.50000000  1
  Bi  Bi6  1  0.00000000  0.50000000  0.75000000  1
  Bi  Bi7  1  0.00000000  0.00000000  0.00000000  1
  O  O8  1  0.00000000  0.17922550  0.67239750  1
  O  O9  1  0.82077450  0.00000000  0.32760250  1
  O  O10  1  0.00000000  0.82077450  0.67239750  1
  O  O11  1  0.17922550  0.00000000  0.32760250  1
  O  O12  1  0.82077450  0.50000000  0.42239750  1
  O  O13  1  0.50000000  0.17922550  0.57760250  1
  O  O14  1  0.67922550  0.00000000  0.92239750  1
  O  O15  1  0.00000000  0.32077450  0.07760250  1
  O  O16  1  0.50000000  0.67922550  0.17239750  1
  O  O17  1  0.32077450  0.50000000  0.82760250  1
  O  O18  1  0.50000000  0.32077450  0.17239750  1
  O  O19  1  0.67922550  0.50000000  0.82760250  1
  O  O20  1  0.32077450  0.00000000  0.92239750  1
  O  O21  1  0.00000000  0.67922550  0.07760250  1
  O  O22  1  0.17922550  0.50000000  0.42239750  1
  O  O23  1  0.50000000  0.82077450  0.57760250  1
