# generated using pymatgen
data_Y5Tm11O24
_symmetry_space_group_name_H-M   'P 1'
_cell_length_a   14.92240600
_cell_length_b   10.54711800
_cell_length_c   10.54682805
_cell_angle_alpha   90.00000000
_cell_angle_beta   135.02360136
_cell_angle_gamma   90.00000000
_symmetry_Int_Tables_number   1
_chemical_formula_structural   Y5Tm11O24
_chemical_formula_sum   'Y10 Tm22 O48'
_cell_volume   1173.27699532
_cell_formula_units_Z   2
loop_
 _symmetry_equiv_pos_site_id
 _symmetry_equiv_pos_as_xyz
  1  'x, y, z'
loop_
 _atom_site_type_symbol
 _atom_site_label
 _atom_site_symmetry_multiplicity
 _atom_site_fract_x
 _atom_site_fract_y
 _atom_site_fract_z
 _atom_site_occupancy
  Y  Y0  1  0.24948150  0.24953150  0.74950200  1
  Y  Y1  1  0.00000000  0.96794500  0.00000000  1
  Y  Y2  1  0.75065900  0.75071900  0.25022800  1
  Y  Y3  1  0.74934100  0.25071900  0.74977200  1
  Y  Y4  1  0.75051850  0.24953150  0.25049800  1
  Y  Y5  1  0.74948150  0.74953150  0.74950200  1
  Y  Y6  1  0.50000000  0.46794500  0.00000000  1
  Y  Y7  1  0.25065900  0.25071900  0.25022800  1
  Y  Y8  1  0.24934100  0.75071900  0.74977200  1
  Y  Y9  1  0.25051850  0.74953150  0.25049800  1
  Tm  Tm10  1  0.46698050  0.24952850  0.71655100  1
  Tm  Tm11  1  0.03301950  0.74952850  0.28344900  1
  Tm  Tm12  1  0.74956450  0.99991450  0.46639600  1
  Tm  Tm13  1  0.74935800  0.00033000  0.96726500  1
  Tm  Tm14  1  0.50000000  0.03278600  0.50000000  1
  Tm  Tm15  1  0.00000000  0.46727400  0.00000000  1
  Tm  Tm16  1  0.75064200  0.50033000  0.03273500  1
  Tm  Tm17  1  0.75043550  0.49991450  0.53360400  1
  Tm  Tm18  1  0.53268100  0.75066900  0.78215000  1
  Tm  Tm19  1  0.96731900  0.25066900  0.21785000  1
  Tm  Tm20  1  0.00000000  0.03256800  0.50000000  1
  Tm  Tm21  1  0.96698050  0.74952850  0.71655100  1
  Tm  Tm22  1  0.53301950  0.24952850  0.28344900  1
  Tm  Tm23  1  0.24956450  0.49991450  0.46639600  1
  Tm  Tm24  1  0.24935800  0.50033000  0.96726500  1
  Tm  Tm25  1  0.00000000  0.53278600  0.50000000  1
  Tm  Tm26  1  0.50000000  0.96727400  0.00000000  1
  Tm  Tm27  1  0.25064200  0.00033000  0.03273500  1
  Tm  Tm28  1  0.25043550  0.99991450  0.53360400  1
  Tm  Tm29  1  0.03268100  0.25066900  0.78215000  1
  Tm  Tm30  1  0.46731900  0.75066900  0.21785000  1
  Tm  Tm31  1  0.50000000  0.53256800  0.50000000  1
  O  O32  1  0.15078250  0.60734050  0.51989000  1
  O  O33  1  0.34746750  0.39074150  0.71505600  1
  O  O34  1  0.11893100  0.15019600  0.47620300  1
  O  O35  1  0.62052300  0.34862900  0.97591700  1
  O  O36  1  0.11899600  0.34935800  0.26128400  1
  O  O37  1  0.61847300  0.15018100  0.76070800  1
  O  O38  1  0.15253250  0.89074150  0.28494400  1
  O  O39  1  0.34921750  0.10734050  0.48011000  1
  O  O40  1  0.60727400  0.11910200  0.20671800  1
  O  O41  1  0.39274700  0.38100500  0.49213100  1
  O  O42  1  0.89087200  0.12093500  0.99215800  1
  O  O43  1  0.10733350  0.38094950  0.70676400  1
  O  O44  1  0.60912800  0.62093500  0.00784200  1
  O  O45  1  0.60725300  0.38100500  0.50786900  1
  O  O46  1  0.89266650  0.38094950  0.29323600  1
  O  O47  1  0.89272600  0.61910200  0.79328200  1
  O  O48  1  0.65023950  0.89330150  0.01941200  1
  O  O49  1  0.84975950  0.10729950  0.21918400  1
  O  O50  1  0.38100400  0.84935800  0.73871600  1
  O  O51  1  0.38152700  0.15018100  0.23929200  1
  O  O52  1  0.88106900  0.15019600  0.52379700  1
  O  O53  1  0.87947700  0.84862900  0.02408300  1
  O  O54  1  0.84976050  0.39330150  0.98058800  1
  O  O55  1  0.65024050  0.60729950  0.78081600  1
  O  O56  1  0.65078250  0.10734050  0.51989000  1
  O  O57  1  0.84746750  0.89074150  0.71505600  1
  O  O58  1  0.61893100  0.65019600  0.47620300  1
  O  O59  1  0.12052300  0.84862900  0.97591700  1
  O  O60  1  0.61899600  0.84935800  0.26128400  1
  O  O61  1  0.11847300  0.65018100  0.76070800  1
  O  O62  1  0.65253250  0.39074150  0.28494400  1
  O  O63  1  0.84921750  0.60734050  0.48011000  1
  O  O64  1  0.10727400  0.61910200  0.20671800  1
  O  O65  1  0.89274700  0.88100500  0.49213100  1
  O  O66  1  0.39087200  0.62093500  0.99215800  1
  O  O67  1  0.60733350  0.88094950  0.70676400  1
  O  O68  1  0.10912800  0.12093500  0.00784200  1
  O  O69  1  0.10725300  0.88100500  0.50786900  1
  O  O70  1  0.39266650  0.88094950  0.29323600  1
  O  O71  1  0.39272600  0.11910200  0.79328200  1
  O  O72  1  0.15023950  0.39330150  0.01941200  1
  O  O73  1  0.34975950  0.60729950  0.21918400  1
  O  O74  1  0.88100400  0.34935800  0.73871600  1
  O  O75  1  0.88152700  0.65018100  0.23929200  1
  O  O76  1  0.38106900  0.65019600  0.52379700  1
  O  O77  1  0.37947700  0.34862900  0.02408300  1
  O  O78  1  0.34976050  0.89330150  0.98058800  1
  O  O79  1  0.15024050  0.10729950  0.78081600  1
