# generated using pymatgen
data_Li4Ti3Ni3(WO8)2
_symmetry_space_group_name_H-M   'P 1'
_cell_length_a   5.94888227
_cell_length_b   5.96820192
_cell_length_c   9.74888117
_cell_angle_alpha   91.18680442
_cell_angle_beta   89.71358134
_cell_angle_gamma   119.64182603
_symmetry_Int_Tables_number   1
_chemical_formula_structural   Li4Ti3Ni3(WO8)2
_chemical_formula_sum   'Li4 Ti3 Ni3 W2 O16'
_cell_volume   300.75951242
_cell_formula_units_Z   1
loop_
 _symmetry_equiv_pos_site_id
 _symmetry_equiv_pos_as_xyz
  1  'x, y, z'
loop_
 _atom_site_type_symbol
 _atom_site_label
 _atom_site_symmetry_multiplicity
 _atom_site_fract_x
 _atom_site_fract_y
 _atom_site_fract_z
 _atom_site_occupancy
  Li  Li0  1  0.66327100  0.32431200  0.89966500  1
  Li  Li1  1  0.99398000  0.98815100  0.98424500  1
  Li  Li2  1  0.00286900  0.00423200  0.49600000  1
  Li  Li3  1  0.33079900  0.66591100  0.40904200  1
  Ti  Ti4  1  0.34086300  0.18377500  0.21689500  1
  Ti  Ti5  1  0.83672300  0.17534200  0.21404200  1
  Ti  Ti6  1  0.16316600  0.34337900  0.71903000  1
  Ni  Ni7  1  0.82874200  0.65989500  0.20928500  1
  Ni  Ni8  1  0.17975500  0.83841400  0.71046000  1
  Ni  Ni9  1  0.66046700  0.83605000  0.71046900  1
  W  W10  1  0.67118300  0.34393000  0.49113100  1
  W  W11  1  0.34083500  0.68168500  0.98206000  1
  O  O12  1  0.33925400  0.17301600  0.59323600  1
  O  O13  1  0.52128200  0.04246100  0.34021700  1
  O  O14  1  0.65483000  0.31062200  0.10740400  1
  O  O15  1  0.00630100  0.00770700  0.30552400  1
  O  O16  1  0.00319400  0.01163800  0.79922600  1
  O  O17  1  0.84072100  0.18116600  0.59553500  1
  O  O18  1  0.50021100  0.46711700  0.34158500  1
  O  O19  1  0.96150800  0.46726900  0.33886400  1
  O  O20  1  0.16790900  0.33142000  0.10529000  1
  O  O21  1  0.83365500  0.66323400  0.58299900  1
  O  O22  1  0.03222800  0.50689300  0.84792900  1
  O  O23  1  0.46368500  0.50041900  0.85709200  1
  O  O24  1  0.32728400  0.64108300  0.60787000  1
  O  O25  1  0.18073200  0.83995700  0.09512100  1
  O  O26  1  0.48145900  0.96348400  0.85013500  1
  O  O27  1  0.67279600  0.84744000  0.09749100  1
