# generated using pymatgen
data_Ba(GaSe2)2
_symmetry_space_group_name_H-M   'P 1'
_cell_length_a   6.36498400
_cell_length_b   11.52839600
_cell_length_c   11.60787100
_cell_angle_alpha   90.00000000
_cell_angle_beta   90.00000000
_cell_angle_gamma   90.00000000
_symmetry_Int_Tables_number   1
_chemical_formula_structural   Ba(GaSe2)2
_chemical_formula_sum   'Ba4 Ga8 Se16'
_cell_volume   851.76300927
_cell_formula_units_Z   4
loop_
 _symmetry_equiv_pos_site_id
 _symmetry_equiv_pos_as_xyz
  1  'x, y, z'
loop_
 _atom_site_type_symbol
 _atom_site_label
 _atom_site_symmetry_multiplicity
 _atom_site_fract_x
 _atom_site_fract_y
 _atom_site_fract_z
 _atom_site_occupancy
  Ba  Ba0  1  0.50000000  0.00000000  0.25000000  1
  Ba  Ba1  1  0.50000000  0.00000000  0.75000000  1
  Ba  Ba2  1  0.00000000  0.50000000  0.25000000  1
  Ba  Ba3  1  0.00000000  0.50000000  0.75000000  1
  Ga  Ga4  1  0.50091800  0.25877700  0.50000000  1
  Ga  Ga5  1  0.99908200  0.24122300  0.50000000  1
  Ga  Ga6  1  0.49908200  0.25877700  0.00000000  1
  Ga  Ga7  1  0.00091800  0.24122300  0.00000000  1
  Ga  Ga8  1  0.00091800  0.75877700  0.50000000  1
  Ga  Ga9  1  0.49908200  0.74122300  0.50000000  1
  Ga  Ga10  1  0.99908200  0.75877700  0.00000000  1
  Ga  Ga11  1  0.50091800  0.74122300  0.00000000  1
  Se  Se12  1  0.75000000  0.25000000  0.33880700  1
  Se  Se13  1  0.25000000  0.25000000  0.16119300  1
  Se  Se14  1  0.73591150  0.08858650  0.00000000  1
  Se  Se15  1  0.76408850  0.41141350  0.00000000  1
  Se  Se16  1  0.23591150  0.41141350  0.50000000  1
  Se  Se17  1  0.26408850  0.08858650  0.50000000  1
  Se  Se18  1  0.75000000  0.25000000  0.66119300  1
  Se  Se19  1  0.25000000  0.25000000  0.83880700  1
  Se  Se20  1  0.25000000  0.75000000  0.33880700  1
  Se  Se21  1  0.75000000  0.75000000  0.16119300  1
  Se  Se22  1  0.23591150  0.58858650  0.00000000  1
  Se  Se23  1  0.26408850  0.91141350  0.00000000  1
  Se  Se24  1  0.73591150  0.91141350  0.50000000  1
  Se  Se25  1  0.76408850  0.58858650  0.50000000  1
  Se  Se26  1  0.25000000  0.75000000  0.66119300  1
  Se  Se27  1  0.75000000  0.75000000  0.83880700  1
