# generated using pymatgen
data_Dy2Ge2O7
_symmetry_space_group_name_H-M   'P 1'
_cell_length_a   6.87136900
_cell_length_b   6.87136900
_cell_length_c   12.51820700
_cell_angle_alpha   90.00000000
_cell_angle_beta   90.00000000
_cell_angle_gamma   90.00000000
_symmetry_Int_Tables_number   1
_chemical_formula_structural   Dy2Ge2O7
_chemical_formula_sum   'Dy8 Ge8 O28'
_cell_volume   591.05605564
_cell_formula_units_Z   4
loop_
 _symmetry_equiv_pos_site_id
 _symmetry_equiv_pos_as_xyz
  1  'x, y, z'
loop_
 _atom_site_type_symbol
 _atom_site_label
 _atom_site_symmetry_multiplicity
 _atom_site_fract_x
 _atom_site_fract_y
 _atom_site_fract_z
 _atom_site_occupancy
  Dy  Dy0  1  0.12462000  0.64668200  0.63540500  1
  Dy  Dy1  1  0.14668200  0.37538000  0.38540500  1
  Dy  Dy2  1  0.35331800  0.87538000  0.86459500  1
  Dy  Dy3  1  0.37538000  0.14668200  0.61459500  1
  Dy  Dy4  1  0.62462000  0.85331800  0.11459500  1
  Dy  Dy5  1  0.64668200  0.12462000  0.36459500  1
  Dy  Dy6  1  0.85331800  0.62462000  0.88540500  1
  Dy  Dy7  1  0.87538000  0.35331800  0.13540500  1
  Ge  Ge8  1  0.09930300  0.84835400  0.11901700  1
  Ge  Ge9  1  0.15164600  0.90069700  0.38098300  1
  Ge  Ge10  1  0.34835400  0.40069700  0.86901700  1
  Ge  Ge11  1  0.40069700  0.34835400  0.13098300  1
  Ge  Ge12  1  0.59930300  0.65164600  0.63098300  1
  Ge  Ge13  1  0.65164600  0.59930300  0.36901700  1
  Ge  Ge14  1  0.84835400  0.09930300  0.88098300  1
  Ge  Ge15  1  0.90069700  0.15164600  0.61901700  1
  O  O16  1  0.03155200  0.92143300  0.87716600  1
  O  O17  1  0.06357800  0.33809800  0.57093100  1
  O  O18  1  0.07856700  0.96844800  0.62283400  1
  O  O19  1  0.14360100  0.68355800  0.45536200  1
  O  O20  1  0.16190200  0.56357800  0.82093100  1
  O  O21  1  0.18355800  0.35639900  0.20536200  1
  O  O22  1  0.19667100  0.80332900  0.25000000  1
  O  O23  1  0.30332900  0.30332900  0.00000000  1
  O  O24  1  0.31644200  0.85639900  0.04463800  1
  O  O25  1  0.33809800  0.06357800  0.42906900  1
  O  O26  1  0.35639900  0.18355800  0.79463800  1
  O  O27  1  0.42143300  0.46844800  0.62716600  1
  O  O28  1  0.43642200  0.83809800  0.67906900  1
  O  O29  1  0.46844800  0.42143300  0.37283400  1
  O  O30  1  0.53155200  0.57856700  0.87283400  1
  O  O31  1  0.56357800  0.16190200  0.17906900  1
  O  O32  1  0.57856700  0.53155200  0.12716600  1
  O  O33  1  0.64360100  0.81644200  0.29463800  1
  O  O34  1  0.66190200  0.93642200  0.92906900  1
  O  O35  1  0.68355800  0.14360100  0.54463800  1
  O  O36  1  0.69667100  0.69667100  0.50000000  1
  O  O37  1  0.80332900  0.19667100  0.75000000  1
  O  O38  1  0.81644200  0.64360100  0.70536200  1
  O  O39  1  0.83809800  0.43642200  0.32093100  1
  O  O40  1  0.85639900  0.31644200  0.95536200  1
  O  O41  1  0.92143300  0.03155200  0.12283400  1
  O  O42  1  0.93642200  0.66190200  0.07093100  1
  O  O43  1  0.96844800  0.07856700  0.37716600  1
