# generated using pymatgen
data_Be(GaO2)2
_symmetry_space_group_name_H-M   'P 1'
_cell_length_a   7.82968962
_cell_length_b   7.82968962
_cell_length_c   9.02010900
_cell_angle_alpha   90.00000000
_cell_angle_beta   90.00000000
_cell_angle_gamma   120.00000000
_symmetry_Int_Tables_number   1
_chemical_formula_structural   Be(GaO2)2
_chemical_formula_sum   'Be6 Ga12 O24'
_cell_volume   478.88530390
_cell_formula_units_Z   6
loop_
 _symmetry_equiv_pos_site_id
 _symmetry_equiv_pos_as_xyz
  1  'x, y, z'
loop_
 _atom_site_type_symbol
 _atom_site_label
 _atom_site_symmetry_multiplicity
 _atom_site_fract_x
 _atom_site_fract_y
 _atom_site_fract_z
 _atom_site_occupancy
  Be  Be0  1  0.22338700  0.83057600  0.57818400  1
  Be  Be1  1  0.16942400  0.39281100  0.24485067  1
  Be  Be2  1  0.60718900  0.77661300  0.91151733  1
  Be  Be3  1  0.39513800  0.22711200  0.08700700  1
  Be  Be4  1  0.83197400  0.60486200  0.42034033  1
  Be  Be5  1  0.77288800  0.16802600  0.75367367  1
  Ga  Ga6  1  0.25805200  0.83854900  0.91425500  1
  Ga  Ga7  1  0.22730100  0.82176900  0.25997600  1
  Ga  Ga8  1  0.16145100  0.41950300  0.58092167  1
  Ga  Ga9  1  0.17823100  0.40553200  0.92664267  1
  Ga  Ga10  1  0.59446800  0.77269900  0.59330933  1
  Ga  Ga11  1  0.58049700  0.74194800  0.24758833  1
  Ga  Ga12  1  0.41322900  0.23179000  0.75229700  1
  Ga  Ga13  1  0.40875500  0.24911600  0.40610300  1
  Ga  Ga14  1  0.81856100  0.58677100  0.08563033  1
  Ga  Ga15  1  0.84036100  0.59124500  0.73943633  1
  Ga  Ga16  1  0.76821000  0.18143900  0.41896367  1
  Ga  Ga17  1  0.75088400  0.15963900  0.07276967  1
  O  O18  1  0.30869300  0.97610900  0.42992700  1
  O  O19  1  0.30604800  0.98109200  0.08931300  1
  O  O20  1  0.27961000  0.95895600  0.73371200  1
  O  O21  1  0.02389100  0.33258400  0.09659367  1
  O  O22  1  0.04104400  0.32065400  0.40037867  1
  O  O23  1  0.01890800  0.32495600  0.75597967  1
  O  O24  1  0.31070700  0.63739700  0.24866300  1
  O  O25  1  0.36260300  0.67331000  0.91532967  1
  O  O26  1  0.32669000  0.68929300  0.58199633  1
  O  O27  1  0.32554600  0.27931000  0.92972900  1
  O  O28  1  0.32643800  0.30774000  0.23172700  1
  O  O29  1  0.34282900  0.32512300  0.58553800  1
  O  O30  1  0.67934600  0.72039000  0.06704533  1
  O  O31  1  0.67504400  0.69395200  0.42264633  1
  O  O32  1  0.66741600  0.69130700  0.76326033  1
  O  O33  1  0.63882700  0.32054700  0.08588400  1
  O  O34  1  0.68172000  0.36117300  0.41921733  1
  O  O35  1  0.67945300  0.31828000  0.75255067  1
  O  O36  1  0.98130200  0.67356200  0.56506033  1
  O  O37  1  0.95376400  0.67445400  0.26306233  1
  O  O38  1  0.98229400  0.65717100  0.91887133  1
  O  O39  1  0.72069000  0.04623600  0.59639567  1
  O  O40  1  0.67487700  0.01770600  0.25220467  1
  O  O41  1  0.69226000  0.01869800  0.89839367  1
