# generated using pymatgen
data_Bi3O4F
_symmetry_space_group_name_H-M   'P 1'
_cell_length_a   17.52262000
_cell_length_b   5.80981000
_cell_length_c   5.83210803
_cell_angle_alpha   90.00000000
_cell_angle_beta   98.82812554
_cell_angle_gamma   90.00000000
_symmetry_Int_Tables_number   1
_chemical_formula_structural   Bi3O4F
_chemical_formula_sum   'Bi12 O16 F4'
_cell_volume   586.69285324
_cell_formula_units_Z   4
loop_
 _symmetry_equiv_pos_site_id
 _symmetry_equiv_pos_as_xyz
  1  'x, y, z'
loop_
 _atom_site_type_symbol
 _atom_site_label
 _atom_site_symmetry_multiplicity
 _atom_site_fract_x
 _atom_site_fract_y
 _atom_site_fract_z
 _atom_site_occupancy
  Bi  Bi0  1  0.84405900  0.79565800  0.47340200  1
  Bi  Bi1  1  0.00000000  0.29621100  0.50000000  1
  Bi  Bi2  1  0.84431600  0.21068900  0.97207900  1
  Bi  Bi3  1  0.00000000  0.70844200  0.00000000  1
  Bi  Bi4  1  0.65594100  0.29565800  0.52659800  1
  Bi  Bi5  1  0.65568400  0.71068900  0.02792100  1
  Bi  Bi6  1  0.34405900  0.29565800  0.47340200  1
  Bi  Bi7  1  0.50000000  0.79621100  0.50000000  1
  Bi  Bi8  1  0.34431600  0.71068900  0.97207900  1
  Bi  Bi9  1  0.50000000  0.20844200  0.00000000  1
  Bi  Bi10  1  0.15594100  0.79565800  0.52659800  1
  Bi  Bi11  1  0.15568400  0.21068900  0.02792100  1
  O  O12  1  0.92757700  0.56841800  0.65247700  1
  O  O13  1  0.89925550  0.94757650  0.19127200  1
  O  O14  1  0.60074450  0.44757650  0.80872800  1
  O  O15  1  0.92786300  0.43512900  0.15343800  1
  O  O16  1  0.57242300  0.06841800  0.34752300  1
  O  O17  1  0.90053050  0.05466750  0.69437600  1
  O  O18  1  0.59946950  0.55466750  0.30562400  1
  O  O19  1  0.57213700  0.93512900  0.84656200  1
  O  O20  1  0.42757700  0.06841800  0.65247700  1
  O  O21  1  0.39925550  0.44757650  0.19127200  1
  O  O22  1  0.10074450  0.94757650  0.80872800  1
  O  O23  1  0.42786300  0.93512900  0.15343800  1
  O  O24  1  0.07242300  0.56841800  0.34752300  1
  O  O25  1  0.40053050  0.55466750  0.69437600  1
  O  O26  1  0.09946950  0.05466750  0.30562400  1
  O  O27  1  0.07213700  0.43512900  0.84656200  1
  F  F28  1  0.74948100  0.24401600  0.24905900  1
  F  F29  1  0.75051900  0.74401600  0.75094100  1
  F  F30  1  0.24948100  0.74401600  0.24905900  1
  F  F31  1  0.25051900  0.24401600  0.75094100  1
