# generated using pymatgen
data_NaGa5O8
_symmetry_space_group_name_H-M   'P 1'
_cell_length_a   5.99973211
_cell_length_b   5.99973211
_cell_length_c   33.61503766
_cell_angle_alpha   90.00000000
_cell_angle_beta   90.00000000
_cell_angle_gamma   120.00000000
_symmetry_Int_Tables_number   1
_chemical_formula_structural   NaGa5O8
_chemical_formula_sum   'Na6 Ga30 O48'
_cell_volume   1047.91957476
_cell_formula_units_Z   6
loop_
 _symmetry_equiv_pos_site_id
 _symmetry_equiv_pos_as_xyz
  1  'x, y, z'
loop_
 _atom_site_type_symbol
 _atom_site_label
 _atom_site_symmetry_multiplicity
 _atom_site_fract_x
 _atom_site_fract_y
 _atom_site_fract_z
 _atom_site_occupancy
  Na  Na0  1  0.33333333  0.66666667  0.32145267  1
  Na  Na1  1  0.00000000  0.00000000  0.17470500  1
  Na  Na2  1  0.00000000  0.00000000  0.65478600  1
  Na  Na3  1  0.66666667  0.33333333  0.50803833  1
  Na  Na4  1  0.66666667  0.33333333  0.98811933  1
  Na  Na5  1  0.33333333  0.66666667  0.84137167  1
  Ga  Ga6  1  0.83154300  0.66308600  0.07570100  1
  Ga  Ga7  1  0.66666667  0.33333333  0.32901133  1
  Ga  Ga8  1  0.33691400  0.16845700  0.07570100  1
  Ga  Ga9  1  0.83154300  0.16845700  0.07570100  1
  Ga  Ga10  1  0.33333333  0.66666667  0.01403467  1
  Ga  Ga11  1  0.33333333  0.66666667  0.23554567  1
  Ga  Ga12  1  0.33333333  0.66666667  0.11000367  1
  Ga  Ga13  1  0.82736167  0.17263833  0.25719433  1
  Ga  Ga14  1  0.34527667  0.17263833  0.25719433  1
  Ga  Ga15  1  0.82736167  0.65472333  0.25719433  1
  Ga  Ga16  1  0.49820967  0.99641933  0.40903433  1
  Ga  Ga17  1  0.33333333  0.66666667  0.66234467  1
  Ga  Ga18  1  0.00358067  0.50179033  0.40903433  1
  Ga  Ga19  1  0.49820967  0.50179033  0.40903433  1
  Ga  Ga20  1  0.00000000  0.00000000  0.34736800  1
  Ga  Ga21  1  0.00000000  0.00000000  0.56887900  1
  Ga  Ga22  1  0.00000000  0.00000000  0.44333700  1
  Ga  Ga23  1  0.49402833  0.50597167  0.59052767  1
  Ga  Ga24  1  0.01194333  0.50597167  0.59052767  1
  Ga  Ga25  1  0.49402833  0.98805667  0.59052767  1
  Ga  Ga26  1  0.16487633  0.32975267  0.74236767  1
  Ga  Ga27  1  0.00000000  0.00000000  0.99567800  1
  Ga  Ga28  1  0.67024733  0.83512367  0.74236767  1
  Ga  Ga29  1  0.16487633  0.83512367  0.74236767  1
  Ga  Ga30  1  0.66666667  0.33333333  0.68070133  1
  Ga  Ga31  1  0.66666667  0.33333333  0.90221233  1
  Ga  Ga32  1  0.66666667  0.33333333  0.77667033  1
  Ga  Ga33  1  0.16069500  0.83930500  0.92386100  1
  Ga  Ga34  1  0.67861000  0.83930500  0.92386100  1
  Ga  Ga35  1  0.16069500  0.32139000  0.92386100  1
  O  O36  1  0.66666667  0.33333333  0.04948733  1
  O  O37  1  0.66666667  0.33333333  0.22639433  1
  O  O38  1  0.15847767  0.84152233  0.03585733  1
  O  O39  1  0.51683933  0.03367867  0.29235867  1
  O  O40  1  0.50449833  0.00899667  0.10771367  1
  O  O41  1  0.15962000  0.84038000  0.22673500  1
  O  O42  1  0.68076000  0.84038000  0.22673500  1
  O  O43  1  0.68304467  0.84152233  0.03585733  1
  O  O44  1  0.96632133  0.48316067  0.29235867  1
  O  O45  1  0.99100333  0.49550167  0.10771367  1
  O  O46  1  0.50449833  0.49550167  0.10771367  1
  O  O47  1  0.15962000  0.31924000  0.22673500  1
  O  O48  1  0.51683933  0.48316067  0.29235867  1
  O  O49  1  0.15847767  0.31695533  0.03585733  1
  O  O50  1  0.00000000  0.00000000  0.10141600  1
  O  O51  1  0.00000000  0.00000000  0.29194000  1
  O  O52  1  0.33333333  0.66666667  0.38282067  1
  O  O53  1  0.33333333  0.66666667  0.55972767  1
  O  O54  1  0.82514433  0.17485567  0.36919067  1
  O  O55  1  0.18350600  0.36701200  0.62569200  1
  O  O56  1  0.17116500  0.34233000  0.44104700  1
  O  O57  1  0.82628667  0.17371333  0.56006833  1
  O  O58  1  0.34742667  0.17371333  0.56006833  1
  O  O59  1  0.34971133  0.17485567  0.36919067  1
  O  O60  1  0.63298800  0.81649400  0.62569200  1
  O  O61  1  0.65767000  0.82883500  0.44104700  1
  O  O62  1  0.17116500  0.82883500  0.44104700  1
  O  O63  1  0.82628667  0.65257333  0.56006833  1
  O  O64  1  0.18350600  0.81649400  0.62569200  1
  O  O65  1  0.82514433  0.65028867  0.36919067  1
  O  O66  1  0.66666667  0.33333333  0.43474933  1
  O  O67  1  0.66666667  0.33333333  0.62527333  1
  O  O68  1  0.00000000  0.00000000  0.71615400  1
  O  O69  1  0.00000000  0.00000000  0.89306100  1
  O  O70  1  0.49181100  0.50818900  0.70252400  1
  O  O71  1  0.85017267  0.70034533  0.95902533  1
  O  O72  1  0.83783167  0.67566333  0.77438033  1
  O  O73  1  0.49295333  0.50704667  0.89340167  1
  O  O74  1  0.01409333  0.50704667  0.89340167  1
  O  O75  1  0.01637800  0.50818900  0.70252400  1
  O  O76  1  0.29965467  0.14982733  0.95902533  1
  O  O77  1  0.32433667  0.16216833  0.77438033  1
  O  O78  1  0.83783167  0.16216833  0.77438033  1
  O  O79  1  0.49295333  0.98590667  0.89340167  1
  O  O80  1  0.85017267  0.14982733  0.95902533  1
  O  O81  1  0.49181100  0.98362200  0.70252400  1
  O  O82  1  0.33333333  0.66666667  0.76808267  1
  O  O83  1  0.33333333  0.66666667  0.95860667  1
