# generated using pymatgen
data_VOF
_symmetry_space_group_name_H-M   'P 1'
_cell_length_a   4.71229224
_cell_length_b   4.72026300
_cell_length_c   9.38961864
_cell_angle_alpha   90.00000000
_cell_angle_beta   90.13534906
_cell_angle_gamma   90.00000000
_symmetry_Int_Tables_number   1
_chemical_formula_structural   VOF
_chemical_formula_sum   'V6 O6 F6'
_cell_volume   208.85513411
_cell_formula_units_Z   6
loop_
 _symmetry_equiv_pos_site_id
 _symmetry_equiv_pos_as_xyz
  1  'x, y, z'
loop_
 _atom_site_type_symbol
 _atom_site_label
 _atom_site_symmetry_multiplicity
 _atom_site_fract_x
 _atom_site_fract_y
 _atom_site_fract_z
 _atom_site_occupancy
  V  V0  1  0.22044000  0.96361400  0.08317650  1
  V  V1  1  0.27822600  0.02171500  0.75116150  1
  V  V2  1  0.28794600  0.01261800  0.41616850  1
  V  V3  1  0.77956000  0.46361400  0.91682350  1
  V  V4  1  0.72177400  0.52171500  0.24883850  1
  V  V5  1  0.71205400  0.51261800  0.58383150  1
  O  O6  1  0.44562800  0.81796200  0.58499050  1
  O  O7  1  0.43494900  0.80996600  0.24743450  1
  O  O8  1  0.56505100  0.30996600  0.75256550  1
  O  O9  1  0.55437200  0.31796200  0.41500950  1
  O  O10  1  0.93344800  0.67268700  0.08295650  1
  O  O11  1  0.06655200  0.17268700  0.91704350  1
  F  F12  1  0.45903900  0.78417100  0.91686150  1
  F  F13  1  0.54096100  0.28417100  0.08313850  1
  F  F14  1  0.96200800  0.69768000  0.74908350  1
  F  F15  1  0.94444000  0.71957100  0.41732350  1
  F  F16  1  0.03799200  0.19768000  0.25091650  1
  F  F17  1  0.05556000  0.21957100  0.58267650  1
