# generated using pymatgen
data_LiFe2(BO3)2
_symmetry_space_group_name_H-M   'P 1'
_cell_length_a   5.26375000
_cell_length_b   9.06588900
_cell_length_c   11.36978232
_cell_angle_alpha   90.00000000
_cell_angle_beta   115.84275464
_cell_angle_gamma   90.00000000
_symmetry_Int_Tables_number   1
_chemical_formula_structural   LiFe2(BO3)2
_chemical_formula_sum   'Li4 Fe8 B8 O24'
_cell_volume   488.31188441
_cell_formula_units_Z   4
loop_
 _symmetry_equiv_pos_site_id
 _symmetry_equiv_pos_as_xyz
  1  'x, y, z'
loop_
 _atom_site_type_symbol
 _atom_site_label
 _atom_site_symmetry_multiplicity
 _atom_site_fract_x
 _atom_site_fract_y
 _atom_site_fract_z
 _atom_site_occupancy
  Li  Li0  1  0.49392600  0.74122300  0.15090300  1
  Li  Li1  1  0.55099500  0.75124200  0.89110700  1
  Li  Li2  1  0.55099500  0.24875800  0.39110700  1
  Li  Li3  1  0.49392600  0.25877700  0.65090300  1
  Fe  Fe4  1  0.03696800  0.58419800  0.87875000  1
  Fe  Fe5  1  0.46719700  0.58851600  0.63049400  1
  Fe  Fe6  1  0.46719700  0.41148400  0.13049400  1
  Fe  Fe7  1  0.03696800  0.41580200  0.37875000  1
  Fe  Fe8  1  0.97268900  0.08212300  0.62928800  1
  Fe  Fe9  1  0.53461700  0.91408900  0.37833700  1
  Fe  Fe10  1  0.53461700  0.08591100  0.87833700  1
  Fe  Fe11  1  0.97268900  0.91787700  0.12928800  1
  B  B12  1  0.52724100  0.58118200  0.37531800  1
  B  B13  1  0.95062900  0.41655300  0.62575800  1
  B  B14  1  0.95062900  0.58344700  0.12575800  1
  B  B15  1  0.52724100  0.41881800  0.87531800  1
  B  B16  1  0.47761500  0.08121700  0.13341900  1
  B  B17  1  0.05252300  0.08283800  0.38100800  1
  B  B18  1  0.05252300  0.91716200  0.88100800  1
  B  B19  1  0.47761500  0.91878300  0.63341900  1
  O  O20  1  0.60631900  0.71527500  0.34615600  1
  O  O21  1  0.18403800  0.57056500  0.09811500  1
  O  O22  1  0.80806400  0.71535100  0.10426100  1
  O  O23  1  0.86080800  0.53805000  0.67163400  1
  O  O24  1  0.61125800  0.45075000  0.33567500  1
  O  O25  1  0.61125800  0.54925000  0.83567500  1
  O  O26  1  0.35664400  0.57041400  0.43922900  1
  O  O27  1  0.35664400  0.42958600  0.93922900  1
  O  O28  1  0.80806400  0.28464900  0.60426100  1
  O  O29  1  0.18403800  0.42943500  0.59811500  1
  O  O30  1  0.86080800  0.46195000  0.17163400  1
  O  O31  1  0.39211000  0.21420200  0.15913100  1
  O  O32  1  0.60631900  0.28472500  0.84615600  1
  O  O33  1  0.13936200  0.04132000  0.83629300  1
  O  O34  1  0.82320500  0.07049800  0.41208700  1
  O  O35  1  0.19183800  0.21399000  0.39768000  1
  O  O36  1  0.64825400  0.06979600  0.06920500  1
  O  O37  1  0.64825400  0.93020400  0.56920500  1
  O  O38  1  0.39936800  0.95014000  0.17539600  1
  O  O39  1  0.39936800  0.04986000  0.67539600  1
  O  O40  1  0.13936200  0.95868000  0.33629300  1
  O  O41  1  0.19183800  0.78601000  0.89768000  1
  O  O42  1  0.82320500  0.92950200  0.91208700  1
  O  O43  1  0.39211000  0.78579800  0.65913100  1
