# generated using pymatgen
data_Na4CuP6(H4O11)2
_symmetry_space_group_name_H-M   'P 1'
_cell_length_a   7.18476000
_cell_length_b   8.01293548
_cell_length_c   8.42929331
_cell_angle_alpha   84.20026375
_cell_angle_beta   77.83657485
_cell_angle_gamma   81.96922486
_symmetry_Int_Tables_number   1
_chemical_formula_structural   Na4CuP6(H4O11)2
_chemical_formula_sum   'Na4 Cu1 P6 H8 O22'
_cell_volume   468.44902117
_cell_formula_units_Z   1
loop_
 _symmetry_equiv_pos_site_id
 _symmetry_equiv_pos_as_xyz
  1  'x, y, z'
loop_
 _atom_site_type_symbol
 _atom_site_label
 _atom_site_symmetry_multiplicity
 _atom_site_fract_x
 _atom_site_fract_y
 _atom_site_fract_z
 _atom_site_occupancy
  Na  Na0  1  0.64321000  0.57867800  0.79631800  1
  Na  Na1  1  0.35679000  0.42132200  0.20368200  1
  Na  Na2  1  0.89840100  0.68922000  0.40628000  1
  Na  Na3  1  0.10159900  0.31078000  0.59372000  1
  Cu  Cu4  1  0.00000000  0.00000000  0.00000000  1
  P  P5  1  0.55824500  0.79159900  0.16497900  1
  P  P6  1  0.44175500  0.20840100  0.83502100  1
  P  P7  1  0.78386600  0.98469100  0.70442200  1
  P  P8  1  0.21613400  0.01530900  0.29557800  1
  P  P9  1  0.66274600  0.28947900  0.50935100  1
  P  P10  1  0.33725400  0.71052100  0.49064900  1
  H  H11  1  0.76850000  0.21180800  0.18426500  1
  H  H12  1  0.23150000  0.78819200  0.81573500  1
  H  H13  1  0.74215400  0.24726900  0.00120100  1
  H  H14  1  0.25784600  0.75273100  0.99879900  1
  H  H15  1  0.03068200  0.58872300  0.81487900  1
  H  H16  1  0.96931800  0.41127700  0.18512100  1
  H  H17  1  0.96070100  0.60040300  0.11168300  1
  H  H18  1  0.03929900  0.39959700  0.88831700  1
  O  O19  1  0.53244000  0.31795400  0.92554600  1
  O  O20  1  0.46756000  0.68204600  0.07445400  1
  O  O21  1  0.76424500  0.81569100  0.10693700  1
  O  O22  1  0.23575500  0.18430900  0.89306300  1
  O  O23  1  0.56974700  0.02451000  0.81464700  1
  O  O24  1  0.43025300  0.97549000  0.18535300  1
  O  O25  1  0.53785000  0.71892500  0.35635400  1
  O  O26  1  0.46215000  0.28107500  0.64364600  1
  O  O27  1  0.92796600  0.05772900  0.77805200  1
  O  O28  1  0.07203400  0.94227100  0.22194800  1
  O  O29  1  0.81558000  0.80336400  0.66916900  1
  O  O30  1  0.18442000  0.19663600  0.33083100  1
  O  O31  1  0.76657400  0.09680100  0.53627600  1
  O  O32  1  0.23342600  0.90319900  0.46372400  1
  O  O33  1  0.77784900  0.41335400  0.55381000  1
  O  O34  1  0.22215100  0.58664600  0.44619000  1
  O  O35  1  0.61468900  0.30444800  0.34362300  1
  O  O36  1  0.38531100  0.69555200  0.65637700  1
  O  O37  1  0.84122300  0.21040300  0.06904000  1
  O  O38  1  0.15877700  0.78959700  0.93096000  1
  O  O39  1  0.97292300  0.48370700  0.81984100  1
  O  O40  1  0.02707700  0.51629300  0.18015900  1
