# generated using pymatgen
data_LiBi3(P3O10)2
_symmetry_space_group_name_H-M   'P 1'
_cell_length_a   10.33781000
_cell_length_b   14.72352800
_cell_length_c   13.38354700
_cell_angle_alpha   90.00000000
_cell_angle_beta   90.00000000
_cell_angle_gamma   90.00000000
_symmetry_Int_Tables_number   1
_chemical_formula_structural   LiBi3(P3O10)2
_chemical_formula_sum   'Li4 Bi12 P24 O80'
_cell_volume   2037.09677366
_cell_formula_units_Z   4
loop_
 _symmetry_equiv_pos_site_id
 _symmetry_equiv_pos_as_xyz
  1  'x, y, z'
loop_
 _atom_site_type_symbol
 _atom_site_label
 _atom_site_symmetry_multiplicity
 _atom_site_fract_x
 _atom_site_fract_y
 _atom_site_fract_z
 _atom_site_occupancy
  Li  Li0  1  0.08479400  0.00000000  0.00000000  1
  Li  Li1  1  0.58479400  0.00000000  0.50000000  1
  Li  Li2  1  0.58479400  0.50000000  0.00000000  1
  Li  Li3  1  0.08479400  0.50000000  0.50000000  1
  Bi  Bi4  1  0.38331800  0.00000000  0.00000000  1
  Bi  Bi5  1  0.54026250  0.21587650  0.77278700  1
  Bi  Bi6  1  0.54026250  0.78412350  0.22721300  1
  Bi  Bi7  1  0.54026250  0.28412350  0.27278700  1
  Bi  Bi8  1  0.54026250  0.71587650  0.72721300  1
  Bi  Bi9  1  0.88331800  0.00000000  0.50000000  1
  Bi  Bi10  1  0.88331800  0.50000000  0.00000000  1
  Bi  Bi11  1  0.04026250  0.71587650  0.77278700  1
  Bi  Bi12  1  0.04026250  0.28412350  0.22721300  1
  Bi  Bi13  1  0.04026250  0.78412350  0.27278700  1
  Bi  Bi14  1  0.04026250  0.21587650  0.72721300  1
  Bi  Bi15  1  0.38331800  0.50000000  0.50000000  1
  P  P16  1  0.26583600  0.87429900  0.68797800  1
  P  P17  1  0.26583600  0.12570100  0.31202200  1
  P  P18  1  0.27309450  0.94843850  0.20513500  1
  P  P19  1  0.27309450  0.05156150  0.79486500  1
  P  P20  1  0.58611900  0.80479000  0.96426100  1
  P  P21  1  0.58611900  0.30479000  0.53573900  1
  P  P22  1  0.58611900  0.19521000  0.03573900  1
  P  P23  1  0.58611900  0.69521000  0.46426100  1
  P  P24  1  0.76583600  0.12570100  0.18797800  1
  P  P25  1  0.76583600  0.87429900  0.81202200  1
  P  P26  1  0.77309450  0.05156150  0.70513500  1
  P  P27  1  0.77309450  0.94843850  0.29486500  1
  P  P28  1  0.76583600  0.37429900  0.68797800  1
  P  P29  1  0.76583600  0.62570100  0.31202200  1
  P  P30  1  0.77309450  0.44843850  0.20513500  1
  P  P31  1  0.77309450  0.55156150  0.79486500  1
  P  P32  1  0.08611900  0.30479000  0.96426100  1
  P  P33  1  0.08611900  0.80479000  0.53573900  1
  P  P34  1  0.08611900  0.69521000  0.03573900  1
  P  P35  1  0.08611900  0.19521000  0.46426100  1
  P  P36  1  0.26583600  0.62570100  0.18797800  1
  P  P37  1  0.26583600  0.37429900  0.81202200  1
  P  P38  1  0.27309450  0.55156150  0.70513500  1
  P  P39  1  0.27309450  0.44843850  0.29486500  1
  O  O40  1  0.17258150  0.83397550  0.76350800  1
  O  O41  1  0.17258150  0.16602450  0.23649200  1
  O  O42  1  0.23511750  0.14331750  0.75147300  1
  O  O43  1  0.23511750  0.85668250  0.24852700  1
  O  O44  1  0.21476850  0.86018350  0.57620300  1
  O  O45  1  0.21476850  0.13981650  0.42379700  1
  O  O46  1  0.19144850  0.01730750  0.88428300  1
  O  O47  1  0.19144850  0.98269250  0.11571700  1
  O  O48  1  0.25593250  0.98309150  0.69972700  1
  O  O49  1  0.25593250  0.01690850  0.30027300  1
  O  O50  1  0.40599750  0.34651250  0.80911300  1
  O  O51  1  0.40599750  0.65348750  0.19088700  1
  O  O52  1  0.40599750  0.84651250  0.69088700  1
  O  O53  1  0.40599750  0.15348750  0.30911300  1
  O  O54  1  0.41657550  0.94782150  0.17218000  1
  O  O55  1  0.91657550  0.05217850  0.67218000  1
  O  O56  1  0.41657550  0.05217850  0.82782000  1
  O  O57  1  0.91657550  0.94782150  0.32782000  1
  O  O58  1  0.47351100  0.62797600  0.45182500  1
  O  O59  1  0.47351100  0.87202400  0.95182500  1
  O  O60  1  0.47351100  0.37202400  0.54817500  1
  O  O61  1  0.47351100  0.12797600  0.04817500  1
  O  O62  1  0.56371800  0.77913900  0.40018200  1
  O  O63  1  0.56371800  0.72086100  0.90018200  1
  O  O64  1  0.56371800  0.22086100  0.59981800  1
  O  O65  1  0.56371800  0.27913900  0.09981800  1
  O  O66  1  0.62231300  0.21870500  0.92908100  1
  O  O67  1  0.62231300  0.71870500  0.57091900  1
  O  O68  1  0.62231300  0.28129500  0.42908100  1
  O  O69  1  0.62231300  0.78129500  0.07091900  1
  O  O70  1  0.67258150  0.16602450  0.26350800  1
  O  O71  1  0.67258150  0.83397550  0.73649200  1
  O  O72  1  0.73511750  0.85668250  0.25147300  1
  O  O73  1  0.73511750  0.14331750  0.74852700  1
  O  O74  1  0.71476850  0.13981650  0.07620300  1
  O  O75  1  0.71476850  0.86018350  0.92379700  1
  O  O76  1  0.69144850  0.98269250  0.38428300  1
  O  O77  1  0.69144850  0.01730750  0.61571700  1
  O  O78  1  0.75593250  0.01690850  0.19972700  1
  O  O79  1  0.75593250  0.98309150  0.80027300  1
  O  O80  1  0.67258150  0.33397550  0.76350800  1
  O  O81  1  0.67258150  0.66602450  0.23649200  1
  O  O82  1  0.73511750  0.64331750  0.75147300  1
  O  O83  1  0.73511750  0.35668250  0.24852700  1
  O  O84  1  0.71476850  0.36018350  0.57620300  1
  O  O85  1  0.71476850  0.63981650  0.42379700  1
  O  O86  1  0.69144850  0.51730750  0.88428300  1
  O  O87  1  0.69144850  0.48269250  0.11571700  1
  O  O88  1  0.75593250  0.48309150  0.69972700  1
  O  O89  1  0.75593250  0.51690850  0.30027300  1
  O  O90  1  0.90599750  0.84651250  0.80911300  1
  O  O91  1  0.90599750  0.15348750  0.19088700  1
  O  O92  1  0.90599750  0.34651250  0.69088700  1
  O  O93  1  0.90599750  0.65348750  0.30911300  1
  O  O94  1  0.91657550  0.44782150  0.17218000  1
  O  O95  1  0.41657550  0.55217850  0.67218000  1
  O  O96  1  0.91657550  0.55217850  0.82782000  1
  O  O97  1  0.41657550  0.44782150  0.32782000  1
  O  O98  1  0.97351100  0.12797600  0.45182500  1
  O  O99  1  0.97351100  0.37202400  0.95182500  1
  O  O100  1  0.97351100  0.87202400  0.54817500  1
  O  O101  1  0.97351100  0.62797600  0.04817500  1
  O  O102  1  0.06371800  0.27913900  0.40018200  1
  O  O103  1  0.06371800  0.22086100  0.90018200  1
  O  O104  1  0.06371800  0.72086100  0.59981800  1
  O  O105  1  0.06371800  0.77913900  0.09981800  1
  O  O106  1  0.12231300  0.71870500  0.92908100  1
  O  O107  1  0.12231300  0.21870500  0.57091900  1
  O  O108  1  0.12231300  0.78129500  0.42908100  1
  O  O109  1  0.12231300  0.28129500  0.07091900  1
  O  O110  1  0.17258150  0.66602450  0.26350800  1
  O  O111  1  0.17258150  0.33397550  0.73649200  1
  O  O112  1  0.23511750  0.35668250  0.25147300  1
  O  O113  1  0.23511750  0.64331750  0.74852700  1
  O  O114  1  0.21476850  0.63981650  0.07620300  1
  O  O115  1  0.21476850  0.36018350  0.92379700  1
  O  O116  1  0.19144850  0.48269250  0.38428300  1
  O  O117  1  0.19144850  0.51730750  0.61571700  1
  O  O118  1  0.25593250  0.51690850  0.19972700  1
  O  O119  1  0.25593250  0.48309150  0.80027300  1
