# generated using pymatgen
data_LiV2P4(HO8)2
_symmetry_space_group_name_H-M   'P 1'
_cell_length_a   7.76431800
_cell_length_b   9.28607478
_cell_length_c   9.29850629
_cell_angle_alpha   116.56680302
_cell_angle_beta   101.90811608
_cell_angle_gamma   101.92122343
_symmetry_Int_Tables_number   1
_chemical_formula_structural   LiV2P4(HO8)2
_chemical_formula_sum   'Li2 V4 P8 H4 O32'
_cell_volume   551.46183243
_cell_formula_units_Z   2
loop_
 _symmetry_equiv_pos_site_id
 _symmetry_equiv_pos_as_xyz
  1  'x, y, z'
loop_
 _atom_site_type_symbol
 _atom_site_label
 _atom_site_symmetry_multiplicity
 _atom_site_fract_x
 _atom_site_fract_y
 _atom_site_fract_z
 _atom_site_occupancy
  Li  Li0  1  0.35728545  0.63014042  0.90787530  1
  Li  Li1  1  0.85275271  0.87044044  0.29031048  1
  V  V2  1  0.49973475  0.01079412  0.74550824  1
  V  V3  1  0.99008132  0.50051380  0.00073365  1
  V  V4  1  0.00333531  0.49187756  0.50497512  1
  V  V5  1  0.48792100  0.00183546  0.24876435  1
  P  P6  1  0.26885852  0.35597565  0.39245410  1
  P  P7  1  0.26524228  0.34987453  0.89396660  1
  P  P8  1  0.23166984  0.84367882  0.51021720  1
  P  P9  1  0.22904971  0.85670361  0.99782322  1
  P  P10  1  0.76685360  0.14763597  0.49781722  1
  P  P11  1  0.76333201  0.15370328  0.99206666  1
  P  P12  1  0.73282758  0.64699179  0.60241254  1
  P  P13  1  0.73292615  0.65958863  0.10273943  1
  H  H14  1  0.51042408  0.50811410  0.73520734  1
  H  H15  1  0.49254661  0.49461111  0.25930443  1
  H  H16  1  0.98902059  0.00946530  0.50788841  1
  H  H17  1  0.99972973  0.00012523  0.99964965  1
  O  O18  1  0.05205188  0.94903007  0.93750946  1
  O  O19  1  0.34007642  0.95104660  0.87241580  1
  O  O20  1  0.62995186  0.18026420  0.81637640  1
  O  O21  1  0.68126283  0.83509346  0.94629699  1
  O  O22  1  0.15817363  0.44417288  0.93092269  1
  O  O23  1  0.15933813  0.44663555  0.42859840  1
  O  O24  1  0.31740502  0.17715016  0.54158142  1
  O  O25  1  0.36207937  0.82924530  0.68440855  1
  O  O26  1  0.43956616  0.45196961  0.86812991  1
  O  O27  1  0.44377313  0.45834514  0.36109882  1
  O  O28  1  0.65615928  0.05880197  0.62308288  1
  O  O29  1  0.81830766  0.32674506  0.46694320  1
  O  O30  1  0.82429111  0.33253381  0.97835166  1
  O  O31  1  0.05658708  0.94640162  0.42988118  1
  O  O32  1  0.13107684  0.32230536  0.74504168  1
  O  O33  1  0.13195459  0.34711438  0.22838516  1
  O  O34  1  0.86385152  0.66172519  0.76371563  1
  O  O35  1  0.86326585  0.67480006  0.26202933  1
  O  O36  1  0.94298785  0.04309658  0.57433268  1
  O  O37  1  0.18421175  0.66699022  0.53109900  1
  O  O38  1  0.18310785  0.67868152  0.01098793  1
  O  O39  1  0.35241787  0.93505073  0.38640844  1
  O  O40  1  0.55315236  0.55157921  0.62898334  1
  O  O41  1  0.55852882  0.55515389  0.12557792  1
  O  O42  1  0.63373940  0.15442101  0.32542441  1
  O  O43  1  0.68404046  0.82375087  0.43882872  1
  O  O44  1  0.84434244  0.55278235  0.57227323  1
  O  O45  1  0.85356483  0.56816634  0.07036305  1
  O  O46  1  0.32495956  0.16967240  0.05935148  1
  O  O47  1  0.36674943  0.84064503  0.17397009  1
  O  O48  1  0.65989384  0.05695585  0.12495142  1
  O  O49  1  0.93939393  0.05135270  0.06792723  1
