# generated using pymatgen
data_LiFe(CoO3)2
_symmetry_space_group_name_H-M   'P 1'
_cell_length_a   12.76407024
_cell_length_b   2.88058675
_cell_length_c   5.94189266
_cell_angle_alpha   90.00000000
_cell_angle_beta   105.31274313
_cell_angle_gamma   90.00000000
_symmetry_Int_Tables_number   1
_chemical_formula_structural   LiFe(CoO3)2
_chemical_formula_sum   'Li2 Fe2 Co4 O12'
_cell_volume   210.71555500
_cell_formula_units_Z   2
loop_
 _symmetry_equiv_pos_site_id
 _symmetry_equiv_pos_as_xyz
  1  'x, y, z'
loop_
 _atom_site_type_symbol
 _atom_site_label
 _atom_site_symmetry_multiplicity
 _atom_site_fract_x
 _atom_site_fract_y
 _atom_site_fract_z
 _atom_site_occupancy
  Li  Li0  1  0.00000000  0.50000000  0.50000000  1
  Li  Li1  1  0.50000000  0.00000000  0.50000000  1
  Fe  Fe2  1  0.00000000  0.50000000  0.00000000  1
  Fe  Fe3  1  0.50000000  0.00000000  0.00000000  1
  Co  Co4  1  0.82857250  0.00000000  0.67050500  1
  Co  Co5  1  0.67142750  0.50000000  0.32949500  1
  Co  Co6  1  0.32857250  0.50000000  0.67050500  1
  Co  Co7  1  0.17142750  0.00000000  0.32949500  1
  O  O8  1  0.16276850  0.50000000  0.12249100  1
  O  O9  1  0.98249100  0.00000000  0.75175700  1
  O  O10  1  0.01750900  0.00000000  0.24824300  1
  O  O11  1  0.82311250  0.50000000  0.45655900  1
  O  O12  1  0.83723150  0.50000000  0.87750900  1
  O  O13  1  0.67688750  0.00000000  0.54344100  1
  O  O14  1  0.66276850  0.00000000  0.12249100  1
  O  O15  1  0.48249100  0.50000000  0.75175700  1
  O  O16  1  0.51750900  0.50000000  0.24824300  1
  O  O17  1  0.32311250  0.00000000  0.45655900  1
  O  O18  1  0.33723150  0.00000000  0.87750900  1
  O  O19  1  0.17688750  0.50000000  0.54344100  1
