# generated using pymatgen
data_LiFe2(BO3)2
_symmetry_space_group_name_H-M   'P 1'
_cell_length_a   5.23009600
_cell_length_b   9.14581790
_cell_length_c   11.25422594
_cell_angle_alpha   113.06966174
_cell_angle_beta   103.07520131
_cell_angle_gamma   89.03543816
_symmetry_Int_Tables_number   1
_chemical_formula_structural   LiFe2(BO3)2
_chemical_formula_sum   'Li4 Fe8 B8 O24'
_cell_volume   480.88635532
_cell_formula_units_Z   4
loop_
 _symmetry_equiv_pos_site_id
 _symmetry_equiv_pos_as_xyz
  1  'x, y, z'
loop_
 _atom_site_type_symbol
 _atom_site_label
 _atom_site_symmetry_multiplicity
 _atom_site_fract_x
 _atom_site_fract_y
 _atom_site_fract_z
 _atom_site_occupancy
  Li  Li0  1  0.02797500  0.02693100  0.39976900  1
  Li  Li1  1  0.28754900  0.27810100  0.91068400  1
  Li  Li2  1  0.48239900  0.50334300  0.65449500  1
  Li  Li3  1  0.52855500  0.53088100  0.40290900  1
  Fe  Fe4  1  0.02051000  0.35231900  0.37680100  1
  Fe  Fe5  1  0.26257300  0.92955700  0.88086100  1
  Fe  Fe6  1  0.49412200  0.14851300  0.62987900  1
  Fe  Fe7  1  0.23370400  0.57093100  0.13197300  1
  Fe  Fe8  1  0.77301300  0.44379100  0.88172900  1
  Fe  Fe9  1  0.52672200  0.84876900  0.37847300  1
  Fe  Fe10  1  0.96539000  0.65920800  0.62855000  1
  Fe  Fe11  1  0.73400100  0.06939100  0.13303800  1
  B  B12  1  0.02232600  0.68602000  0.37412300  1
  B  B13  1  0.26548000  0.60301200  0.87499700  1
  B  B14  1  0.46356300  0.81444900  0.62691900  1
  B  B15  1  0.23595800  0.89657600  0.13120400  1
  B  B16  1  0.52818600  0.19156500  0.38310000  1
  B  B17  1  0.76565800  0.10715400  0.87939100  1
  B  B18  1  0.98965300  0.31740900  0.62544900  1
  B  B19  1  0.73299900  0.39473500  0.12699200  1
  O  O20  1  0.02759900  0.09760600  0.88031600  1
  O  O21  1  0.11028300  0.71995900  0.84950600  1
  O  O22  1  0.16313500  0.50490700  0.92667500  1
  O  O23  1  0.13123600  0.18875100  0.62421600  1
  O  O24  1  0.08139900  0.43163000  0.58883900  1
  O  O25  1  0.25546600  0.84495100  0.68868200  1
  O  O26  1  0.26270400  0.64955000  0.33208100  1
  O  O27  1  0.50185700  0.58004600  0.84437100  1
  O  O28  1  0.61183100  0.20884500  0.83055400  1
  O  O29  1  0.42943600  0.08336500  0.42726600  1
  O  O30  1  0.40961800  0.32483600  0.38686600  1
  O  O31  1  0.63811800  0.02097000  0.93092000  1
  O  O32  1  0.36655500  0.98234100  0.07959900  1
  O  O33  1  0.57839500  0.67188300  0.60323100  1
  O  O34  1  0.55020800  0.92376500  0.58406000  1
  O  O35  1  0.37055500  0.78485700  0.17076500  1
  O  O36  1  0.46622300  0.40354300  0.11461600  1
  O  O37  1  0.74611400  0.33184500  0.66223500  1
  O  O38  1  0.76091000  0.15345300  0.33723400  1
  O  O39  1  0.91306000  0.57887200  0.41291800  1
  O  O40  1  0.90988100  0.82202000  0.37883400  1
  O  O41  1  0.86826000  0.48737100  0.08417900  1
  O  O42  1  0.86241200  0.28597500  0.17243600  1
  O  O43  1  0.98848700  0.92764100  0.14636200  1
