# generated using pymatgen
data_ScInO3
_symmetry_space_group_name_H-M   'P 1'
_cell_length_a   3.46640023
_cell_length_b   3.46640023
_cell_length_c   12.74871100
_cell_angle_alpha   90.00000000
_cell_angle_beta   90.00000000
_cell_angle_gamma   120.00000000
_symmetry_Int_Tables_number   1
_chemical_formula_structural   ScInO3
_chemical_formula_sum   'Sc2 In2 O6'
_cell_volume   132.66437600
_cell_formula_units_Z   2
loop_
 _symmetry_equiv_pos_site_id
 _symmetry_equiv_pos_as_xyz
  1  'x, y, z'
loop_
 _atom_site_type_symbol
 _atom_site_label
 _atom_site_symmetry_multiplicity
 _atom_site_fract_x
 _atom_site_fract_y
 _atom_site_fract_z
 _atom_site_occupancy
  Sc  Sc0  1  0.66666667  0.33333333  0.25000000  1
  Sc  Sc1  1  0.33333333  0.66666667  0.75000000  1
  In  In2  1  0.00000000  0.00000000  0.50000000  1
  In  In3  1  0.00000000  0.00000000  0.00000000  1
  O  O4  1  0.00000000  0.00000000  0.75000000  1
  O  O5  1  0.00000000  0.00000000  0.25000000  1
  O  O6  1  0.66666667  0.33333333  0.08236700  1
  O  O7  1  0.66666667  0.33333333  0.41763300  1
  O  O8  1  0.33333333  0.66666667  0.91763300  1
  O  O9  1  0.33333333  0.66666667  0.58236700  1
