# generated using pymatgen
data_Li3Fe3OF7
_symmetry_space_group_name_H-M   'P 1'
_cell_length_a   10.77509600
_cell_length_b   6.07642800
_cell_length_c   10.74862704
_cell_angle_alpha   90.00000000
_cell_angle_beta   109.72273865
_cell_angle_gamma   90.00000000
_symmetry_Int_Tables_number   1
_chemical_formula_structural   Li3Fe3OF7
_chemical_formula_sum   'Li12 Fe12 O4 F28'
_cell_volume   662.47193509
_cell_formula_units_Z   4
loop_
 _symmetry_equiv_pos_site_id
 _symmetry_equiv_pos_as_xyz
  1  'x, y, z'
loop_
 _atom_site_type_symbol
 _atom_site_label
 _atom_site_symmetry_multiplicity
 _atom_site_fract_x
 _atom_site_fract_y
 _atom_site_fract_z
 _atom_site_occupancy
  Li  Li0  1  0.24855900  0.25621000  0.99970400  1
  Li  Li1  1  0.06001200  0.49669400  0.68975800  1
  Li  Li2  1  0.37968800  0.73618700  0.87063000  1
  Li  Li3  1  0.87968800  0.76381300  0.37063000  1
  Li  Li4  1  0.24855900  0.74379000  0.49970400  1
  Li  Li5  1  0.06001200  0.50330600  0.18975800  1
  Li  Li6  1  0.74855900  0.75621000  0.99970400  1
  Li  Li7  1  0.56001200  0.99669400  0.68975800  1
  Li  Li8  1  0.87968800  0.23618700  0.87063000  1
  Li  Li9  1  0.37968800  0.26381300  0.37063000  1
  Li  Li10  1  0.74855900  0.24379000  0.49970400  1
  Li  Li11  1  0.56001200  0.00330600  0.18975800  1
  Fe  Fe12  1  0.05631150  0.75287550  0.93285900  1
  Fe  Fe13  1  0.31790600  0.25762800  0.69428700  1
  Fe  Fe14  1  0.05708350  0.99681750  0.69191000  1
  Fe  Fe15  1  0.05708350  0.00318250  0.19191000  1
  Fe  Fe16  1  0.81790600  0.24237200  0.19428700  1
  Fe  Fe17  1  0.05631150  0.24712450  0.43285900  1
  Fe  Fe18  1  0.55631150  0.25287550  0.93285900  1
  Fe  Fe19  1  0.81790600  0.75762800  0.69428700  1
  Fe  Fe20  1  0.55708350  0.49681750  0.69191000  1
  Fe  Fe21  1  0.55708350  0.50318250  0.19191000  1
  Fe  Fe22  1  0.31790600  0.74237200  0.19428700  1
  Fe  Fe23  1  0.55631150  0.74712450  0.43285900  1
  O  O24  1  0.94243450  0.96910150  0.81095900  1
  O  O25  1  0.94243450  0.03089850  0.31095900  1
  O  O26  1  0.44243450  0.46910150  0.81095900  1
  O  O27  1  0.44243450  0.53089850  0.31095900  1
  F  F28  1  0.94256450  0.73726050  0.56945700  1
  F  F29  1  0.17838550  0.74187850  0.80154600  1
  F  F30  1  0.17535750  0.47800950  0.55787600  1
  F  F31  1  0.19252100  0.01351800  0.57506000  1
  F  F32  1  0.94421250  0.49468250  0.80572000  1
  F  F33  1  0.18141600  0.25022300  0.80337700  1
  F  F34  1  0.94854850  0.24929150  0.57185400  1
  F  F35  1  0.94854850  0.75070850  0.07185400  1
  F  F36  1  0.68141600  0.24977700  0.30337700  1
  F  F37  1  0.69252100  0.48648200  0.07506000  1
  F  F38  1  0.67535750  0.02199050  0.05787600  1
  F  F39  1  0.94421250  0.50531750  0.30572000  1
  F  F40  1  0.67838550  0.75812150  0.30154600  1
  F  F41  1  0.94256450  0.26273950  0.06945700  1
  F  F42  1  0.44256450  0.23726050  0.56945700  1
  F  F43  1  0.67838550  0.24187850  0.80154600  1
  F  F44  1  0.67535750  0.97800950  0.55787600  1
  F  F45  1  0.69252100  0.51351800  0.57506000  1
  F  F46  1  0.44421250  0.99468250  0.80572000  1
  F  F47  1  0.68141600  0.75022300  0.80337700  1
  F  F48  1  0.44854850  0.74929150  0.57185400  1
  F  F49  1  0.44854850  0.25070850  0.07185400  1
  F  F50  1  0.18141600  0.74977700  0.30337700  1
  F  F51  1  0.19252100  0.98648200  0.07506000  1
  F  F52  1  0.17535750  0.52199050  0.05787600  1
  F  F53  1  0.44421250  0.00531750  0.30572000  1
  F  F54  1  0.17838550  0.25812150  0.30154600  1
  F  F55  1  0.44256450  0.76273950  0.06945700  1
