# generated using pymatgen
data_Li2V3NiO8
_symmetry_space_group_name_H-M   'P 1'
_cell_length_a   5.86876393
_cell_length_b   5.86876393
_cell_length_c   9.73247900
_cell_angle_alpha   90.00000000
_cell_angle_beta   90.00000000
_cell_angle_gamma   120.00000000
_symmetry_Int_Tables_number   1
_chemical_formula_structural   Li2V3NiO8
_chemical_formula_sum   'Li4 V6 Ni2 O16'
_cell_volume   290.30023552
_cell_formula_units_Z   2
loop_
 _symmetry_equiv_pos_site_id
 _symmetry_equiv_pos_as_xyz
  1  'x, y, z'
loop_
 _atom_site_type_symbol
 _atom_site_label
 _atom_site_symmetry_multiplicity
 _atom_site_fract_x
 _atom_site_fract_y
 _atom_site_fract_z
 _atom_site_occupancy
  Li  Li0  1  0.33333333  0.66666667  0.89513500  1
  Li  Li1  1  0.00000000  0.00000000  0.99605700  1
  Li  Li2  1  0.00000000  0.00000000  0.49605700  1
  Li  Li3  1  0.66666667  0.33333333  0.39513500  1
  V  V4  1  0.14633033  0.80740467  0.21354400  1
  V  V5  1  0.19259533  0.33892567  0.21354400  1
  V  V6  1  0.85366967  0.66107433  0.71354400  1
  V  V7  1  0.66107433  0.85366967  0.21354400  1
  V  V8  1  0.33892567  0.19259533  0.71354400  1
  V  V9  1  0.80740467  0.14633033  0.71354400  1
  Ni  Ni10  1  0.33333333  0.66666667  0.49176000  1
  Ni  Ni11  1  0.66666667  0.33333333  0.99176000  1
  O  O12  1  0.17490133  0.85477967  0.60800700  1
  O  O13  1  0.03528133  0.52949467  0.33158500  1
  O  O14  1  0.33333333  0.66666667  0.10012000  1
  O  O15  1  0.00000000  0.00000000  0.31147100  1
  O  O16  1  0.00000000  0.00000000  0.81147100  1
  O  O17  1  0.14522033  0.32012167  0.60800700  1
  O  O18  1  0.49421333  0.96471867  0.33158500  1
  O  O19  1  0.47050533  0.50578667  0.33158500  1
  O  O20  1  0.32012167  0.14522033  0.10800700  1
  O  O21  1  0.67987833  0.82509867  0.60800700  1
  O  O22  1  0.50578667  0.47050533  0.83158500  1
  O  O23  1  0.52949467  0.03528133  0.83158500  1
  O  O24  1  0.66666667  0.33333333  0.60012000  1
  O  O25  1  0.82509867  0.67987833  0.10800700  1
  O  O26  1  0.96471867  0.49421333  0.83158500  1
  O  O27  1  0.85477967  0.17490133  0.10800700  1
