# generated using pymatgen
data_Li3MnAlO4
_symmetry_space_group_name_H-M   'P 1'
_cell_length_a   10.88926800
_cell_length_b   10.88926800
_cell_length_c   13.43019800
_cell_angle_alpha   90.00000000
_cell_angle_beta   90.00000000
_cell_angle_gamma   90.00000000
_symmetry_Int_Tables_number   1
_chemical_formula_structural   Li3MnAlO4
_chemical_formula_sum   'Li48 Mn16 Al16 O64'
_cell_volume   1592.50127432
_cell_formula_units_Z   16
loop_
 _symmetry_equiv_pos_site_id
 _symmetry_equiv_pos_as_xyz
  1  'x, y, z'
loop_
 _atom_site_type_symbol
 _atom_site_label
 _atom_site_symmetry_multiplicity
 _atom_site_fract_x
 _atom_site_fract_y
 _atom_site_fract_z
 _atom_site_occupancy
  Li  Li0  1  0.66388350  0.48754350  0.43961650  1
  Li  Li1  1  0.83611650  0.51245650  0.31038350  1
  Li  Li2  1  0.98754350  0.33611650  0.18961650  1
  Li  Li3  1  0.98754350  0.83611650  0.06038350  1
  Li  Li4  1  0.99698850  0.14079450  0.30072850  1
  Li  Li5  1  0.00265050  0.14453750  0.56930350  1
  Li  Li6  1  0.01245650  0.16388350  0.06038350  1
  Li  Li7  1  0.01245650  0.66388350  0.18961650  1
  Li  Li8  1  0.14079450  0.00301150  0.69927150  1
  Li  Li9  1  0.14453750  0.99734950  0.43069650  1
  Li  Li10  1  0.16388350  0.48754350  0.31038350  1
  Li  Li11  1  0.33611650  0.51245650  0.43961650  1
  Li  Li12  1  0.35546250  0.00265050  0.31930350  1
  Li  Li13  1  0.35546250  0.50265050  0.93069650  1
  Li  Li14  1  0.35920550  0.99698850  0.05072850  1
  Li  Li15  1  0.35920550  0.49698850  0.19927150  1
  Li  Li16  1  0.49734950  0.85546250  0.18069650  1
  Li  Li17  1  0.49734950  0.35546250  0.06930350  1
  Li  Li18  1  0.49698850  0.14079450  0.44927150  1
  Li  Li19  1  0.50301150  0.85920550  0.44927150  1
  Li  Li20  1  0.50301150  0.35920550  0.80072850  1
  Li  Li21  1  0.50265050  0.14453750  0.18069650  1
  Li  Li22  1  0.64079450  0.00301150  0.05072850  1
  Li  Li23  1  0.64453750  0.99734950  0.31930350  1
  Li  Li24  1  0.16388350  0.98754350  0.93961650  1
  Li  Li25  1  0.33611650  0.01245650  0.81038350  1
  Li  Li26  1  0.48754350  0.83611650  0.68961650  1
  Li  Li27  1  0.48754350  0.33611650  0.56038350  1
  Li  Li28  1  0.49698850  0.64079450  0.80072850  1
  Li  Li29  1  0.50265050  0.64453750  0.06930350  1
  Li  Li30  1  0.51245650  0.66388350  0.56038350  1
  Li  Li31  1  0.51245650  0.16388350  0.68961650  1
  Li  Li32  1  0.64079450  0.50301150  0.19927150  1
  Li  Li33  1  0.64453750  0.49734950  0.93069650  1
  Li  Li34  1  0.66388350  0.98754350  0.81038350  1
  Li  Li35  1  0.83611650  0.01245650  0.93961650  1
  Li  Li36  1  0.85546250  0.50265050  0.81930350  1
  Li  Li37  1  0.85546250  0.00265050  0.43069650  1
  Li  Li38  1  0.85920550  0.49698850  0.55072850  1
  Li  Li39  1  0.85920550  0.99698850  0.69927150  1
  Li  Li40  1  0.99734950  0.35546250  0.68069650  1
  Li  Li41  1  0.99734950  0.85546250  0.56930350  1
  Li  Li42  1  0.99698850  0.64079450  0.94927150  1
  Li  Li43  1  0.00301150  0.35920550  0.94927150  1
  Li  Li44  1  0.00301150  0.85920550  0.30072850  1
  Li  Li45  1  0.00265050  0.64453750  0.68069650  1
  Li  Li46  1  0.14079450  0.50301150  0.55072850  1
  Li  Li47  1  0.14453750  0.49734950  0.81930350  1
  Mn  Mn48  1  0.23724550  0.76303150  0.68874850  1
  Mn  Mn49  1  0.23696850  0.23724550  0.31125150  1
  Mn  Mn50  1  0.23696850  0.73724550  0.93874850  1
  Mn  Mn51  1  0.23724550  0.26303150  0.56125150  1
  Mn  Mn52  1  0.26275450  0.23696850  0.06125150  1
  Mn  Mn53  1  0.26303150  0.26275450  0.81125150  1
  Mn  Mn54  1  0.26303150  0.76275450  0.43874850  1
  Mn  Mn55  1  0.26275450  0.73696850  0.18874850  1
  Mn  Mn56  1  0.73724550  0.26303150  0.18874850  1
  Mn  Mn57  1  0.73696850  0.73724550  0.81125150  1
  Mn  Mn58  1  0.73696850  0.23724550  0.43874850  1
  Mn  Mn59  1  0.73724550  0.76303150  0.06125150  1
  Mn  Mn60  1  0.76275450  0.73696850  0.56125150  1
  Mn  Mn61  1  0.76303150  0.76275450  0.31125150  1
  Mn  Mn62  1  0.76303150  0.26275450  0.93874850  1
  Mn  Mn63  1  0.76275450  0.23696850  0.68874850  1
  Al  Al64  1  0.98024850  0.31983450  0.43141150  1
  Al  Al65  1  0.18016550  0.48024850  0.06858850  1
  Al  Al66  1  0.18016550  0.98024850  0.18141150  1
  Al  Al67  1  0.31983450  0.01975150  0.56858850  1
  Al  Al68  1  0.48024850  0.31983450  0.31858850  1
  Al  Al69  1  0.51975150  0.18016550  0.93141150  1
  Al  Al70  1  0.01975150  0.18016550  0.81858850  1
  Al  Al71  1  0.31983450  0.51975150  0.68141150  1
  Al  Al72  1  0.48024850  0.81983450  0.93141150  1
  Al  Al73  1  0.68016550  0.98024850  0.56858850  1
  Al  Al74  1  0.68016550  0.48024850  0.68141150  1
  Al  Al75  1  0.81983450  0.51975150  0.06858850  1
  Al  Al76  1  0.98024850  0.81983450  0.81858850  1
  Al  Al77  1  0.01975150  0.68016550  0.43141150  1
  Al  Al78  1  0.51975150  0.68016550  0.31858850  1
  Al  Al79  1  0.81983450  0.01975150  0.18141150  1
  O  O80  1  0.84001850  0.40438350  0.42873950  1
  O  O81  1  0.90438350  0.15998150  0.17873950  1
  O  O82  1  0.92172500  0.16506500  0.43628100  1
  O  O83  1  0.93699650  0.15783750  0.70518350  1
  O  O84  1  0.06300350  0.34216250  0.54481650  1
  O  O85  1  0.07067450  0.32951550  0.32167050  1
  O  O86  1  0.09561650  0.34001850  0.07126050  1
  O  O87  1  0.15783750  0.06300350  0.29481650  1
  O  O88  1  0.15783750  0.56300350  0.95518350  1
  O  O89  1  0.15998150  0.09561650  0.82126050  1
  O  O90  1  0.17048450  0.07067450  0.07167050  1
  O  O91  1  0.17048450  0.57067450  0.17832950  1
  O  O92  1  0.16506500  0.07827500  0.56371900  1
  O  O93  1  0.33493500  0.92172500  0.18628100  1
  O  O94  1  0.33493500  0.42172500  0.06371900  1
  O  O95  1  0.82951550  0.42932550  0.17832950  1
  O  O96  1  0.34001850  0.40438350  0.32126050  1
  O  O97  1  0.34216250  0.43699650  0.79481650  1
  O  O98  1  0.34216250  0.93699650  0.45518350  1
  O  O99  1  0.40438350  0.15998150  0.57126050  1
  O  O100  1  0.42172500  0.16506500  0.31371900  1
  O  O101  1  0.42932550  0.67048450  0.42832950  1
  O  O102  1  0.92932550  0.67048450  0.32167050  1
  O  O103  1  0.43699650  0.15783750  0.04481650  1
  O  O104  1  0.56300350  0.34216250  0.20518350  1
  O  O105  1  0.57067450  0.32951550  0.42832950  1
  O  O106  1  0.57827500  0.33493500  0.93628100  1
  O  O107  1  0.57827500  0.83493500  0.31371900  1
  O  O108  1  0.59561650  0.34001850  0.67873950  1
  O  O109  1  0.65998150  0.09561650  0.92873950  1
  O  O110  1  0.66506500  0.07827500  0.18628100  1
  O  O111  1  0.82951550  0.92932550  0.07167050  1
  O  O112  1  0.34001850  0.90438350  0.92873950  1
  O  O113  1  0.40438350  0.65998150  0.67873950  1
  O  O114  1  0.42172500  0.66506500  0.93628100  1
  O  O115  1  0.43699650  0.65783750  0.20518350  1
  O  O116  1  0.56300350  0.84216250  0.04481650  1
  O  O117  1  0.57067450  0.82951550  0.82167050  1
  O  O118  1  0.59561650  0.84001850  0.57126050  1
  O  O119  1  0.65783750  0.56300350  0.79481650  1
  O  O120  1  0.65783750  0.06300350  0.45518350  1
  O  O121  1  0.65998150  0.59561650  0.32126050  1
  O  O122  1  0.67048450  0.57067450  0.57167050  1
  O  O123  1  0.67048450  0.07067450  0.67832950  1
  O  O124  1  0.66506500  0.57827500  0.06371900  1
  O  O125  1  0.83493500  0.42172500  0.68628100  1
  O  O126  1  0.83493500  0.92172500  0.56371900  1
  O  O127  1  0.32951550  0.92932550  0.67832950  1
  O  O128  1  0.84001850  0.90438350  0.82126050  1
  O  O129  1  0.84216250  0.93699650  0.29481650  1
  O  O130  1  0.84216250  0.43699650  0.95518350  1
  O  O131  1  0.90438350  0.65998150  0.07126050  1
  O  O132  1  0.92172500  0.66506500  0.81371900  1
  O  O133  1  0.92932550  0.17048450  0.92832950  1
  O  O134  1  0.42932550  0.17048450  0.82167050  1
  O  O135  1  0.93699650  0.65783750  0.54481650  1
  O  O136  1  0.06300350  0.84216250  0.70518350  1
  O  O137  1  0.07067450  0.82951550  0.92832950  1
  O  O138  1  0.07827500  0.83493500  0.43628100  1
  O  O139  1  0.07827500  0.33493500  0.81371900  1
  O  O140  1  0.09561650  0.84001850  0.17873950  1
  O  O141  1  0.15998150  0.59561650  0.42873950  1
  O  O142  1  0.16506500  0.57827500  0.68628100  1
  O  O143  1  0.32951550  0.42932550  0.57167050  1
