# generated using pymatgen
data_NaCaB5H8O13
_symmetry_space_group_name_H-M   'P 1'
_cell_length_a   6.55040200
_cell_length_b   13.41008200
_cell_length_c   11.64253682
_cell_angle_alpha   90.00000000
_cell_angle_beta   93.22400946
_cell_angle_gamma   90.00000000
_symmetry_Int_Tables_number   1
_chemical_formula_structural   NaCaB5H8O13
_chemical_formula_sum   'Na4 Ca4 B20 H32 O52'
_cell_volume   1021.07842108
_cell_formula_units_Z   4
loop_
 _symmetry_equiv_pos_site_id
 _symmetry_equiv_pos_as_xyz
  1  'x, y, z'
loop_
 _atom_site_type_symbol
 _atom_site_label
 _atom_site_symmetry_multiplicity
 _atom_site_fract_x
 _atom_site_fract_y
 _atom_site_fract_z
 _atom_site_occupancy
  Na  Na0  1  0.33797500  0.51702400  0.85486500  1
  Na  Na1  1  0.66202500  0.01702400  0.64513500  1
  Na  Na2  1  0.66202500  0.48297600  0.14513500  1
  Na  Na3  1  0.33797500  0.98297600  0.35486500  1
  Ca  Ca4  1  0.21085200  0.60420900  0.58083000  1
  Ca  Ca5  1  0.78914800  0.10420900  0.91917000  1
  Ca  Ca6  1  0.78914800  0.39579100  0.41917000  1
  Ca  Ca7  1  0.21085200  0.89579100  0.08083000  1
  B  B8  1  0.62244100  0.45884900  0.68252500  1
  B  B9  1  0.37755900  0.95884900  0.81747500  1
  B  B10  1  0.37755900  0.54115100  0.31747500  1
  B  B11  1  0.62244100  0.04115100  0.18252500  1
  B  B12  1  0.31439200  0.37257800  0.57713900  1
  B  B13  1  0.68560800  0.87257800  0.92286100  1
  B  B14  1  0.68560800  0.62742200  0.42286100  1
  B  B15  1  0.31439200  0.12742200  0.07713900  1
  B  B16  1  0.83967800  0.75606600  0.78455500  1
  B  B17  1  0.16032200  0.25606600  0.71544500  1
  B  B18  1  0.16032200  0.24393400  0.21544500  1
  B  B19  1  0.83967800  0.74393400  0.28455500  1
  B  B20  1  0.88015100  0.56723800  0.78063300  1
  B  B21  1  0.11984900  0.06723800  0.71936700  1
  B  B22  1  0.11984900  0.43276200  0.21936700  1
  B  B23  1  0.88015100  0.93276200  0.28063300  1
  B  B24  1  0.98448700  0.41743300  0.65915400  1
  B  B25  1  0.01551300  0.91743300  0.84084600  1
  B  B26  1  0.01551300  0.58256700  0.34084600  1
  B  B27  1  0.98448700  0.08256700  0.15915400  1
  H  H28  1  0.22947600  0.73282300  0.78393100  1
  H  H29  1  0.77052400  0.23282300  0.71606900  1
  H  H30  1  0.77052400  0.26717700  0.21606900  1
  H  H31  1  0.22947600  0.76717700  0.28393100  1
  H  H32  1  0.46634300  0.71159000  0.79567800  1
  H  H33  1  0.53365700  0.21159000  0.70432200  1
  H  H34  1  0.53365700  0.28841000  0.20432200  1
  H  H35  1  0.46634300  0.78841000  0.29567800  1
  H  H36  1  0.67487900  0.65077200  0.59460700  1
  H  H37  1  0.32512100  0.15077200  0.90539300  1
  H  H38  1  0.32512100  0.34922800  0.40539300  1
  H  H39  1  0.67487900  0.84922800  0.09460700  1
  H  H40  1  0.08960000  0.80903600  0.62813900  1
  H  H41  1  0.91040000  0.30903600  0.87186100  1
  H  H42  1  0.91040000  0.19096400  0.37186100  1
  H  H43  1  0.08960000  0.69096400  0.12813900  1
  H  H44  1  0.07905200  0.81873500  0.49237100  1
  H  H45  1  0.92094800  0.31873500  0.00762900  1
  H  H46  1  0.92094800  0.18126500  0.50762900  1
  H  H47  1  0.07905200  0.68126500  0.99237100  1
  H  H48  1  0.89053400  0.53855600  0.95351200  1
  H  H49  1  0.10946600  0.03855600  0.54648800  1
  H  H50  1  0.10946600  0.46144400  0.04648800  1
  H  H51  1  0.89053400  0.96144400  0.45351200  1
  H  H52  1  0.42241100  0.65102400  0.05121300  1
  H  H53  1  0.57758900  0.15102400  0.44878700  1
  H  H54  1  0.57758900  0.34897600  0.94878700  1
  H  H55  1  0.42241100  0.84897600  0.55121300  1
  H  H56  1  0.62164900  0.67220900  0.98777100  1
  H  H57  1  0.37835100  0.17220900  0.51222900  1
  H  H58  1  0.37835100  0.32779100  0.01222900  1
  H  H59  1  0.62164900  0.82779100  0.48777100  1
  O  O60  1  0.10338300  0.40787300  0.55616400  1
  O  O61  1  0.89661700  0.90787300  0.94383600  1
  O  O62  1  0.89661700  0.59212700  0.44383600  1
  O  O63  1  0.10338300  0.09212700  0.05616400  1
  O  O64  1  0.86078200  0.66762500  0.72568300  1
  O  O65  1  0.13921800  0.16762500  0.77431700  1
  O  O66  1  0.13921800  0.33237500  0.27431700  1
  O  O67  1  0.86078200  0.83237500  0.22568300  1
  O  O68  1  0.41721700  0.44772800  0.65610000  1
  O  O69  1  0.58278300  0.94772800  0.84390000  1
  O  O70  1  0.58278300  0.55227200  0.34390000  1
  O  O71  1  0.41721700  0.05227200  0.15610000  1
  O  O72  1  0.31119500  0.27204800  0.63933100  1
  O  O73  1  0.68880500  0.77204800  0.86066900  1
  O  O74  1  0.68880500  0.72795200  0.36066900  1
  O  O75  1  0.31119500  0.22795200  0.13933100  1
  O  O76  1  0.76486300  0.41182200  0.61902600  1
  O  O77  1  0.23513700  0.91182200  0.88097400  1
  O  O78  1  0.23513700  0.58817800  0.38097400  1
  O  O79  1  0.76486300  0.08817800  0.11902600  1
  O  O80  1  0.67917100  0.51731400  0.77641800  1
  O  O81  1  0.32082900  0.01731400  0.72358200  1
  O  O82  1  0.32082900  0.48268600  0.22358200  1
  O  O83  1  0.67917100  0.98268600  0.27641800  1
  O  O84  1  0.33279100  0.68234200  0.76763300  1
  O  O85  1  0.66720900  0.18234200  0.73236700  1
  O  O86  1  0.66720900  0.31765800  0.23236700  1
  O  O87  1  0.33279100  0.81765800  0.26763300  1
  O  O88  1  0.57693100  0.63741900  0.52860500  1
  O  O89  1  0.42306900  0.13741900  0.97139500  1
  O  O90  1  0.42306900  0.36258100  0.47139500  1
  O  O91  1  0.57693100  0.86258100  0.02860500  1
  O  O92  1  0.02955200  0.51147500  0.71762200  1
  O  O93  1  0.97044800  0.01147500  0.78237800  1
  O  O94  1  0.97044800  0.48852500  0.28237800  1
  O  O95  1  0.02955200  0.98852500  0.21762200  1
  O  O96  1  0.15754000  0.78678900  0.55797500  1
  O  O97  1  0.84246000  0.28678900  0.94202500  1
  O  O98  1  0.84246000  0.21321100  0.44202500  1
  O  O99  1  0.15754000  0.71321100  0.05797500  1
  O  O100  1  0.03666700  0.41859600  0.09724500  1
  O  O101  1  0.96333300  0.91859600  0.40275500  1
  O  O102  1  0.96333300  0.58140400  0.90275500  1
  O  O103  1  0.03666700  0.08140400  0.59724500  1
  O  O104  1  0.97965200  0.67040200  0.26192000  1
  O  O105  1  0.02034800  0.17040200  0.23808000  1
  O  O106  1  0.02034800  0.32959800  0.73808000  1
  O  O107  1  0.97965200  0.82959800  0.76192000  1
  O  O108  1  0.54862000  0.61882600  0.02678800  1
  O  O109  1  0.45138000  0.11882600  0.47321200  1
  O  O110  1  0.45138000  0.38117400  0.97321200  1
  O  O111  1  0.54862000  0.88117400  0.52678800  1
