# generated using pymatgen
data_Li24Mn11CrO36
_symmetry_space_group_name_H-M   'P 1'
_cell_length_a   15.01739800
_cell_length_b   8.64630600
_cell_length_c   10.16702509
_cell_angle_alpha   90.00000000
_cell_angle_beta   109.44415550
_cell_angle_gamma   90.00000000
_symmetry_Int_Tables_number   1
_chemical_formula_structural   Li24Mn11CrO36
_chemical_formula_sum   'Li48 Mn22 Cr2 O72'
_cell_volume   1244.84535644
_cell_formula_units_Z   2
loop_
 _symmetry_equiv_pos_site_id
 _symmetry_equiv_pos_as_xyz
  1  'x, y, z'
loop_
 _atom_site_type_symbol
 _atom_site_label
 _atom_site_symmetry_multiplicity
 _atom_site_fract_x
 _atom_site_fract_y
 _atom_site_fract_z
 _atom_site_occupancy
  Li  Li0  1  0.66707250  0.49579750  0.74944000  1
  Li  Li1  1  0.66646150  0.33324650  0.99956300  1
  Li  Li2  1  0.66593800  0.49576200  0.25036400  1
  Li  Li3  1  0.66738800  0.17144800  0.25009100  1
  Li  Li4  1  0.83338650  0.33325650  0.25016900  1
  Li  Li5  1  0.66664900  0.33320300  0.50003700  1
  Li  Li6  1  0.66589950  0.17066150  0.75107100  1
  Li  Li7  1  0.83306950  0.33335550  0.74984400  1
  Li  Li8  1  0.66693050  0.83335550  0.25015600  1
  Li  Li9  1  0.66661350  0.83325650  0.74983100  1
  Li  Li10  1  0.83406200  0.99576200  0.74963600  1
  Li  Li11  1  0.83353850  0.83324650  0.00043700  1
  Li  Li12  1  0.83292750  0.99579750  0.25056000  1
  Li  Li13  1  0.83410050  0.67066150  0.24892900  1
  Li  Li14  1  0.99983700  0.83316900  0.24990400  1
  Li  Li15  1  0.83335100  0.83320300  0.49996300  1
  Li  Li16  1  0.83261200  0.67144800  0.74990900  1
  Li  Li17  1  0.50016300  0.33316900  0.75009600  1
  Li  Li18  1  0.50078050  0.99613850  0.74897200  1
  Li  Li19  1  0.00000000  0.33241400  0.00000000  1
  Li  Li20  1  0.99921950  0.49613850  0.25102800  1
  Li  Li21  1  0.50042550  0.67062450  0.24961400  1
  Li  Li22  1  0.00000000  0.33317300  0.50000000  1
  Li  Li23  1  0.99957450  0.17062450  0.75038600  1
  Li  Li24  1  0.16707250  0.99579750  0.74944000  1
  Li  Li25  1  0.16646150  0.83324650  0.99956300  1
  Li  Li26  1  0.16593800  0.99576200  0.25036400  1
  Li  Li27  1  0.16738800  0.67144800  0.25009100  1
  Li  Li28  1  0.33338650  0.83325650  0.25016900  1
  Li  Li29  1  0.16664900  0.83320300  0.50003700  1
  Li  Li30  1  0.16589950  0.67066150  0.75107100  1
  Li  Li31  1  0.33306950  0.83335550  0.74984400  1
  Li  Li32  1  0.16693050  0.33335550  0.25015600  1
  Li  Li33  1  0.16661350  0.33325650  0.74983100  1
  Li  Li34  1  0.33406200  0.49576200  0.74963600  1
  Li  Li35  1  0.33353850  0.33324650  0.00043700  1
  Li  Li36  1  0.33292750  0.49579750  0.25056000  1
  Li  Li37  1  0.33410050  0.17066150  0.24892900  1
  Li  Li38  1  0.49983700  0.33316900  0.24990400  1
  Li  Li39  1  0.33335100  0.33320300  0.49996300  1
  Li  Li40  1  0.33261200  0.17144800  0.74990900  1
  Li  Li41  1  0.00016300  0.83316900  0.75009600  1
  Li  Li42  1  0.00078050  0.49613850  0.74897200  1
  Li  Li43  1  0.50000000  0.83241400  0.00000000  1
  Li  Li44  1  0.49921950  0.99613850  0.25102800  1
  Li  Li45  1  0.00042550  0.17062450  0.24961400  1
  Li  Li46  1  0.50000000  0.83317300  0.50000000  1
  Li  Li47  1  0.49957450  0.67062450  0.75038600  1
  Mn  Mn48  1  0.66721550  0.00017950  0.99890900  1
  Mn  Mn49  1  0.83336200  0.16633600  0.99991200  1
  Mn  Mn50  1  0.66665100  0.00045200  0.50000000  1
  Mn  Mn51  1  0.83334300  0.16640400  0.50001300  1
  Mn  Mn52  1  0.66663800  0.66633600  0.00008800  1
  Mn  Mn53  1  0.00000000  0.00040300  0.00000000  1
  Mn  Mn54  1  0.66665700  0.66640400  0.49998700  1
  Mn  Mn55  1  0.00000000  0.00045200  0.50000000  1
  Mn  Mn56  1  0.83278450  0.50017950  0.00109100  1
  Mn  Mn57  1  0.83334900  0.50045200  0.50000000  1
  Mn  Mn58  1  0.00000000  0.66647500  0.50000000  1
  Mn  Mn59  1  0.16721550  0.50017950  0.99890900  1
  Mn  Mn60  1  0.33336200  0.66633600  0.99991200  1
  Mn  Mn61  1  0.16665100  0.50045200  0.50000000  1
  Mn  Mn62  1  0.33334300  0.66640400  0.50001300  1
  Mn  Mn63  1  0.16663800  0.16633600  0.00008800  1
  Mn  Mn64  1  0.50000000  0.50040300  0.00000000  1
  Mn  Mn65  1  0.16665700  0.16640400  0.49998700  1
  Mn  Mn66  1  0.50000000  0.50045200  0.50000000  1
  Mn  Mn67  1  0.33278450  0.00017950  0.00109100  1
  Mn  Mn68  1  0.33334900  0.00045200  0.50000000  1
  Mn  Mn69  1  0.50000000  0.16647500  0.50000000  1
  Cr  Cr70  1  0.00000000  0.66291300  0.00000000  1
  Cr  Cr71  1  0.50000000  0.16291300  0.00000000  1
  O  O72  1  0.76026000  0.33306800  0.88597500  1
  O  O73  1  0.58512150  0.01362550  0.11205400  1
  O  O74  1  0.76028300  0.33338200  0.38594800  1
  O  O75  1  0.75128550  0.15490650  0.11215200  1
  O  O76  1  0.58457750  0.01164050  0.61193200  1
  O  O77  1  0.75126700  0.15495100  0.61203300  1
  O  O78  1  0.74922400  0.01120400  0.88793900  1
  O  O79  1  0.59340200  0.83329200  0.88596900  1
  O  O80  1  0.91540600  0.15556700  0.88788100  1
  O  O81  1  0.74872250  0.01179450  0.38778300  1
  O  O82  1  0.73974000  0.83306800  0.11402500  1
  O  O83  1  0.91794000  0.01185400  0.11208200  1
  O  O84  1  0.59361250  0.83339750  0.38587400  1
  O  O85  1  0.91537650  0.15504750  0.38787000  1
  O  O86  1  0.58459400  0.65556700  0.11211900  1
  O  O87  1  0.73971700  0.83338200  0.61405200  1
  O  O88  1  0.91788700  0.01180500  0.61205700  1
  O  O89  1  0.58462350  0.65504750  0.61213000  1
  O  O90  1  0.58206000  0.51185400  0.88791800  1
  O  O91  1  0.74871450  0.65490650  0.88784800  1
  O  O92  1  0.92755150  0.83395950  0.88578700  1
  O  O93  1  0.58211300  0.51180500  0.38794300  1
  O  O94  1  0.75077600  0.51120400  0.11206100  1
  O  O95  1  0.57244850  0.33395950  0.11421300  1
  O  O96  1  0.74873300  0.65495100  0.38796700  1
  O  O97  1  0.92698750  0.83346150  0.38611400  1
  O  O98  1  0.91642650  0.65374150  0.11342100  1
  O  O99  1  0.75127750  0.51179450  0.61221700  1
  O  O100  1  0.57301250  0.33346150  0.61388600  1
  O  O101  1  0.91793650  0.65496950  0.61219200  1
  O  O102  1  0.91487850  0.51362550  0.88794600  1
  O  O103  1  0.58357350  0.15374150  0.88657900  1
  O  O104  1  0.91542250  0.51164050  0.38806800  1
  O  O105  1  0.90659800  0.33329200  0.11403100  1
  O  O106  1  0.58206350  0.15496950  0.38780800  1
  O  O107  1  0.90638750  0.33339750  0.61412600  1
  O  O108  1  0.26026000  0.83306800  0.88597500  1
  O  O109  1  0.08512150  0.51362550  0.11205400  1
  O  O110  1  0.26028300  0.83338200  0.38594800  1
  O  O111  1  0.25128550  0.65490650  0.11215200  1
  O  O112  1  0.08457750  0.51164050  0.61193200  1
  O  O113  1  0.25126700  0.65495100  0.61203300  1
  O  O114  1  0.24922400  0.51120400  0.88793900  1
  O  O115  1  0.09340200  0.33329200  0.88596900  1
  O  O116  1  0.41540600  0.65556700  0.88788100  1
  O  O117  1  0.24872250  0.51179450  0.38778300  1
  O  O118  1  0.23974000  0.33306800  0.11402500  1
  O  O119  1  0.41794000  0.51185400  0.11208200  1
  O  O120  1  0.09361250  0.33339750  0.38587400  1
  O  O121  1  0.41537650  0.65504750  0.38787000  1
  O  O122  1  0.08459400  0.15556700  0.11211900  1
  O  O123  1  0.23971700  0.33338200  0.61405200  1
  O  O124  1  0.41788700  0.51180500  0.61205700  1
  O  O125  1  0.08462350  0.15504750  0.61213000  1
  O  O126  1  0.08206000  0.01185400  0.88791800  1
  O  O127  1  0.24871450  0.15490650  0.88784800  1
  O  O128  1  0.42755150  0.33395950  0.88578700  1
  O  O129  1  0.08211300  0.01180500  0.38794300  1
  O  O130  1  0.25077600  0.01120400  0.11206100  1
  O  O131  1  0.07244850  0.83395950  0.11421300  1
  O  O132  1  0.24873300  0.15495100  0.38796700  1
  O  O133  1  0.42698750  0.33346150  0.38611400  1
  O  O134  1  0.41642650  0.15374150  0.11342100  1
  O  O135  1  0.25127750  0.01179450  0.61221700  1
  O  O136  1  0.07301250  0.83346150  0.61388600  1
  O  O137  1  0.41793650  0.15496950  0.61219200  1
  O  O138  1  0.41487850  0.01362550  0.88794600  1
  O  O139  1  0.08357350  0.65374150  0.88657900  1
  O  O140  1  0.41542250  0.01164050  0.38806800  1
  O  O141  1  0.40659800  0.83329200  0.11403100  1
  O  O142  1  0.08206350  0.65496950  0.38780800  1
  O  O143  1  0.40638750  0.83339750  0.61412600  1
