# generated using pymatgen
data_Ti2Sn3O10
_symmetry_space_group_name_H-M   'P 1'
_cell_length_a   6.72703400
_cell_length_b   6.73739000
_cell_length_c   15.72266700
_cell_angle_alpha   90.00000000
_cell_angle_beta   90.00000000
_cell_angle_gamma   90.00000000
_symmetry_Int_Tables_number   1
_chemical_formula_structural   Ti2Sn3O10
_chemical_formula_sum   'Ti8 Sn12 O40'
_cell_volume   712.59295868
_cell_formula_units_Z   4
loop_
 _symmetry_equiv_pos_site_id
 _symmetry_equiv_pos_as_xyz
  1  'x, y, z'
loop_
 _atom_site_type_symbol
 _atom_site_label
 _atom_site_symmetry_multiplicity
 _atom_site_fract_x
 _atom_site_fract_y
 _atom_site_fract_z
 _atom_site_occupancy
  Ti  Ti0  1  0.00000000  0.00000000  0.00406000  1
  Ti  Ti1  1  0.00000000  0.00000000  0.40299200  1
  Ti  Ti2  1  0.00000000  0.00000000  0.59651000  1
  Ti  Ti3  1  0.50000000  0.00000000  0.09687300  1
  Ti  Ti4  1  0.50000000  0.50000000  0.00406000  1
  Ti  Ti5  1  0.50000000  0.50000000  0.40299200  1
  Ti  Ti6  1  0.50000000  0.50000000  0.59651000  1
  Ti  Ti7  1  0.00000000  0.50000000  0.09687300  1
  Sn  Sn8  1  0.00000000  0.00000000  0.19873700  1
  Sn  Sn9  1  0.00000000  0.00000000  0.80003900  1
  Sn  Sn10  1  0.50000000  0.00000000  0.69804400  1
  Sn  Sn11  1  0.50000000  0.00000000  0.49921700  1
  Sn  Sn12  1  0.50000000  0.00000000  0.29949600  1
  Sn  Sn13  1  0.50000000  0.00000000  0.90439400  1
  Sn  Sn14  1  0.50000000  0.50000000  0.19873700  1
  Sn  Sn15  1  0.50000000  0.50000000  0.80003900  1
  Sn  Sn16  1  0.00000000  0.50000000  0.69804400  1
  Sn  Sn17  1  0.00000000  0.50000000  0.49921700  1
  Sn  Sn18  1  0.00000000  0.50000000  0.29949600  1
  Sn  Sn19  1  0.00000000  0.50000000  0.90439400  1
  O  O20  1  0.50000000  0.31434300  0.49959600  1
  O  O21  1  0.50000000  0.30165500  0.09461900  1
  O  O22  1  0.50000000  0.30993900  0.30433800  1
  O  O23  1  0.50000000  0.30995100  0.69422200  1
  O  O24  1  0.50000000  0.30994800  0.90594300  1
  O  O25  1  0.30130000  0.00000000  0.00677900  1
  O  O26  1  0.30960900  0.00000000  0.19476700  1
  O  O27  1  0.30609100  0.00000000  0.80091900  1
  O  O28  1  0.29681200  0.00000000  0.40056700  1
  O  O29  1  0.29676500  0.00000000  0.59806900  1
  O  O30  1  0.69870000  0.00000000  0.00677900  1
  O  O31  1  0.69039100  0.00000000  0.19476700  1
  O  O32  1  0.70318800  0.00000000  0.40056700  1
  O  O33  1  0.70323500  0.00000000  0.59806900  1
  O  O34  1  0.69390900  0.00000000  0.80091900  1
  O  O35  1  0.50000000  0.68565700  0.49959600  1
  O  O36  1  0.50000000  0.69834500  0.09461900  1
  O  O37  1  0.50000000  0.69006100  0.30433800  1
  O  O38  1  0.50000000  0.69004900  0.69422200  1
  O  O39  1  0.50000000  0.69005200  0.90594300  1
  O  O40  1  0.00000000  0.81434300  0.49959600  1
  O  O41  1  0.00000000  0.80165500  0.09461900  1
  O  O42  1  0.00000000  0.80993900  0.30433800  1
  O  O43  1  0.00000000  0.80995100  0.69422200  1
  O  O44  1  0.00000000  0.80994800  0.90594300  1
  O  O45  1  0.80130000  0.50000000  0.00677900  1
  O  O46  1  0.80960900  0.50000000  0.19476700  1
  O  O47  1  0.80609100  0.50000000  0.80091900  1
  O  O48  1  0.79681200  0.50000000  0.40056700  1
  O  O49  1  0.79676500  0.50000000  0.59806900  1
  O  O50  1  0.19870000  0.50000000  0.00677900  1
  O  O51  1  0.19039100  0.50000000  0.19476700  1
  O  O52  1  0.20318800  0.50000000  0.40056700  1
  O  O53  1  0.20323500  0.50000000  0.59806900  1
  O  O54  1  0.19390900  0.50000000  0.80091900  1
  O  O55  1  0.00000000  0.18565700  0.49959600  1
  O  O56  1  0.00000000  0.19834500  0.09461900  1
  O  O57  1  0.00000000  0.19006100  0.30433800  1
  O  O58  1  0.00000000  0.19004900  0.69422200  1
  O  O59  1  0.00000000  0.19005200  0.90594300  1
