# generated using pymatgen
data_LiFeP2HO7
_symmetry_space_group_name_H-M   'P 1'
_cell_length_a   6.44148145
_cell_length_b   6.60854360
_cell_length_c   6.66254728
_cell_angle_alpha   89.09919828
_cell_angle_beta   110.11349708
_cell_angle_gamma   97.76136184
_symmetry_Int_Tables_number   1
_chemical_formula_structural   LiFeP2HO7
_chemical_formula_sum   'Li2 Fe2 P4 H2 O14'
_cell_volume   263.73627427
_cell_formula_units_Z   2
loop_
 _symmetry_equiv_pos_site_id
 _symmetry_equiv_pos_as_xyz
  1  'x, y, z'
loop_
 _atom_site_type_symbol
 _atom_site_label
 _atom_site_symmetry_multiplicity
 _atom_site_fract_x
 _atom_site_fract_y
 _atom_site_fract_z
 _atom_site_occupancy
  Li  Li0  1  0.22108400  0.11637850  0.14656700  1
  Li  Li1  1  0.77891600  0.88362150  0.85343300  1
  Fe  Fe2  1  0.10269600  0.35150600  0.71876000  1
  Fe  Fe3  1  0.89730400  0.64849400  0.28124000  1
  P  P4  1  0.77977900  0.15909900  0.23222600  1
  P  P5  1  0.22022100  0.84090100  0.76777400  1
  P  P6  1  0.64369950  0.38958650  0.82338750  1
  P  P7  1  0.35630050  0.61041350  0.17661250  1
  H  H8  1  0.65362950  0.16447100  0.49457950  1
  H  H9  1  0.34637050  0.83552900  0.50542050  1
  O  O10  1  0.60583450  0.08694850  0.34819550  1
  O  O11  1  0.39416550  0.91305150  0.65180450  1
  O  O12  1  0.11686750  0.01624500  0.82584150  1
  O  O13  1  0.88313250  0.98375500  0.17415850  1
  O  O14  1  0.61906750  0.23827300  0.01536750  1
  O  O15  1  0.38093250  0.76172700  0.98463250  1
  O  O16  1  0.77417850  0.27641800  0.71508150  1
  O  O17  1  0.22582150  0.72358200  0.28491850  1
  O  O18  1  0.95094750  0.33155200  0.36401150  1
  O  O19  1  0.04905250  0.66844800  0.63598850  1
  O  O20  1  0.40424900  0.39368050  0.68124300  1
  O  O21  1  0.59575100  0.60631950  0.31875700  1
  O  O22  1  0.22895850  0.40709400  0.06672050  1
  O  O23  1  0.77104150  0.59290600  0.93327950  1
