# generated using pymatgen
data_Li4Ti3Nb2Fe3O16
_symmetry_space_group_name_H-M   'P 1'
_cell_length_a   10.61289751
_cell_length_b   5.99242590
_cell_length_c   9.90150181
_cell_angle_alpha   90.00000000
_cell_angle_beta   91.02016749
_cell_angle_gamma   90.00000000
_symmetry_Int_Tables_number   1
_chemical_formula_structural   Li4Ti3Nb2Fe3O16
_chemical_formula_sum   'Li8 Ti6 Nb4 Fe6 O32'
_cell_volume   629.60601508
_cell_formula_units_Z   2
loop_
 _symmetry_equiv_pos_site_id
 _symmetry_equiv_pos_as_xyz
  1  'x, y, z'
loop_
 _atom_site_type_symbol
 _atom_site_label
 _atom_site_symmetry_multiplicity
 _atom_site_fract_x
 _atom_site_fract_y
 _atom_site_fract_z
 _atom_site_occupancy
  Li  Li0  1  0.16318950  0.50000000  0.90491800  1
  Li  Li1  1  0.00210600  0.00000000  0.98616600  1
  Li  Li2  1  0.00339425  0.00000000  0.49316400  1
  Li  Li3  1  0.33160000  0.00000000  0.40809800  1
  Li  Li4  1  0.66318950  0.00000000  0.90491800  1
  Li  Li5  1  0.50210600  0.50000000  0.98616600  1
  Li  Li6  1  0.50339425  0.50000000  0.49316400  1
  Li  Li7  1  0.83160000  0.50000000  0.40809800  1
  Ti  Ti8  1  0.17729325  0.00000000  0.73444000  1
  Ti  Ti9  1  0.09497550  0.25053350  0.22011500  1
  Ti  Ti10  1  0.09497550  0.74946650  0.22011500  1
  Ti  Ti11  1  0.67729325  0.50000000  0.73444000  1
  Ti  Ti12  1  0.59497550  0.75053350  0.22011500  1
  Ti  Ti13  1  0.59497550  0.24946650  0.22011500  1
  Nb  Nb14  1  0.16616100  0.50000000  0.49893700  1
  Nb  Nb15  1  0.35172525  0.00000000  0.98749500  1
  Nb  Nb16  1  0.66616100  0.00000000  0.49893700  1
  Nb  Nb17  1  0.85172525  0.50000000  0.98749500  1
  Fe  Fe18  1  0.33022100  0.50000000  0.21002200  1
  Fe  Fe19  1  0.41535725  0.75251425  0.70766300  1
  Fe  Fe20  1  0.41535725  0.24748575  0.70766300  1
  Fe  Fe21  1  0.83022100  0.00000000  0.21002200  1
  Fe  Fe22  1  0.91535725  0.25251425  0.70766300  1
  Fe  Fe23  1  0.91535725  0.74748575  0.70766300  1
  O  O24  1  0.02058025  0.50000000  0.33386100  1
  O  O25  1  0.14843150  0.50000000  0.10754800  1
  O  O26  1  0.00904225  0.00000000  0.30463500  1
  O  O27  1  0.00776625  0.00000000  0.79820400  1
  O  O28  1  0.16267725  0.00000000  0.10471300  1
  O  O29  1  0.33147850  0.50000000  0.57283500  1
  O  O30  1  0.31825300  0.00000000  0.61259000  1
  O  O31  1  0.47973850  0.00000000  0.85771300  1
  O  O32  1  0.09135150  0.25215600  0.58885300  1
  O  O33  1  0.09135150  0.74784400  0.58885300  1
  O  O34  1  0.23207200  0.27007000  0.33785100  1
  O  O35  1  0.23207200  0.72993000  0.33785100  1
  O  O36  1  0.24742650  0.78329150  0.85006400  1
  O  O37  1  0.24742650  0.21670850  0.85006400  1
  O  O38  1  0.41758625  0.75042575  0.09172400  1
  O  O39  1  0.41758625  0.24957425  0.09172400  1
  O  O40  1  0.52058025  0.00000000  0.33386100  1
  O  O41  1  0.64843150  0.00000000  0.10754800  1
  O  O42  1  0.50904225  0.50000000  0.30463500  1
  O  O43  1  0.50776625  0.50000000  0.79820400  1
  O  O44  1  0.66267725  0.50000000  0.10471300  1
  O  O45  1  0.83147850  0.00000000  0.57283500  1
  O  O46  1  0.81825300  0.50000000  0.61259000  1
  O  O47  1  0.97973850  0.50000000  0.85771300  1
  O  O48  1  0.59135150  0.75215600  0.58885300  1
  O  O49  1  0.59135150  0.24784400  0.58885300  1
  O  O50  1  0.73207200  0.77007000  0.33785100  1
  O  O51  1  0.73207200  0.22993000  0.33785100  1
  O  O52  1  0.74742650  0.28329150  0.85006400  1
  O  O53  1  0.74742650  0.71670850  0.85006400  1
  O  O54  1  0.91758625  0.25042575  0.09172400  1
  O  O55  1  0.91758625  0.74957425  0.09172400  1
