# generated using pymatgen
data_Li3Mn2Fe(BO3)3
_symmetry_space_group_name_H-M   'P 1'
_cell_length_a   16.51678200
_cell_length_b   6.34826400
_cell_length_c   8.27254358
_cell_angle_alpha   90.00000000
_cell_angle_beta   120.03930108
_cell_angle_gamma   90.00000000
_symmetry_Int_Tables_number   1
_chemical_formula_structural   Li3Mn2Fe(BO3)3
_chemical_formula_sum   'Li12 Mn8 Fe4 B12 O36'
_cell_volume   750.89287571
_cell_formula_units_Z   4
loop_
 _symmetry_equiv_pos_site_id
 _symmetry_equiv_pos_as_xyz
  1  'x, y, z'
loop_
 _atom_site_type_symbol
 _atom_site_label
 _atom_site_symmetry_multiplicity
 _atom_site_fract_x
 _atom_site_fract_y
 _atom_site_fract_z
 _atom_site_occupancy
  Li  Li0  1  0.49086700  0.24998200  0.69823300  1
  Li  Li1  1  0.49086700  0.75001800  0.69823300  1
  Li  Li2  1  0.15057700  0.74910400  0.28425400  1
  Li  Li3  1  0.15057700  0.25089600  0.28425400  1
  Li  Li4  1  0.35800450  0.24996750  0.01757300  1
  Li  Li5  1  0.35800450  0.75003250  0.01757300  1
  Li  Li6  1  0.99086700  0.74998200  0.69823300  1
  Li  Li7  1  0.99086700  0.25001800  0.69823300  1
  Li  Li8  1  0.65057700  0.24910400  0.28425400  1
  Li  Li9  1  0.65057700  0.75089600  0.28425400  1
  Li  Li10  1  0.85800450  0.74996750  0.01757300  1
  Li  Li11  1  0.85800450  0.25003250  0.01757300  1
  Mn  Mn12  1  0.17986100  0.00000000  0.98775400  1
  Mn  Mn13  1  0.17988200  0.50000000  0.98794000  1
  Mn  Mn14  1  0.00636900  0.00000000  0.37189400  1
  Mn  Mn15  1  0.31420000  0.00000000  0.64065500  1
  Mn  Mn16  1  0.67986100  0.50000000  0.98775400  1
  Mn  Mn17  1  0.67988200  0.00000000  0.98794000  1
  Mn  Mn18  1  0.50636900  0.50000000  0.37189400  1
  Mn  Mn19  1  0.81420000  0.50000000  0.64065500  1
  Fe  Fe20  1  0.00404000  0.50000000  0.36756100  1
  Fe  Fe21  1  0.31587300  0.50000000  0.64000500  1
  Fe  Fe22  1  0.50404000  0.00000000  0.36756100  1
  Fe  Fe23  1  0.81587300  0.00000000  0.64000500  1
  B  B24  1  0.33388100  0.75019600  0.33421500  1
  B  B25  1  0.33388100  0.24980400  0.33421500  1
  B  B26  1  0.16651850  0.74764250  0.66511700  1
  B  B27  1  0.16651850  0.25235750  0.66511700  1
  B  B28  1  0.49887400  0.50000000  0.99964400  1
  B  B29  1  0.00095100  0.50000000  0.00246500  1
  B  B30  1  0.83388100  0.25019600  0.33421500  1
  B  B31  1  0.83388100  0.74980400  0.33421500  1
  B  B32  1  0.66651850  0.24764250  0.66511700  1
  B  B33  1  0.66651850  0.75235750  0.66511700  1
  B  B34  1  0.99887400  0.00000000  0.99964400  1
  B  B35  1  0.50095100  0.00000000  0.00246500  1
  O  O36  1  0.46075400  0.00000000  0.80886600  1
  O  O37  1  0.45803500  0.50000000  0.80494900  1
  O  O38  1  0.29095650  0.25366950  0.44227900  1
  O  O39  1  0.29095650  0.74633050  0.44227900  1
  O  O40  1  0.09582500  0.00000000  0.11280600  1
  O  O41  1  0.09765500  0.50000000  0.11615300  1
  O  O42  1  0.43077800  0.75425500  0.41974100  1
  O  O43  1  0.43077800  0.24574500  0.41974100  1
  O  O44  1  0.27982200  0.24992000  0.14076900  1
  O  O45  1  0.27982200  0.75008000  0.14076900  1
  O  O46  1  0.12554650  0.75015450  0.77727100  1
  O  O47  1  0.12554650  0.24984550  0.77727100  1
  O  O48  1  0.44431400  0.00000000  0.08376900  1
  O  O49  1  0.44185700  0.50000000  0.07886100  1
  O  O50  1  0.26360500  0.74781500  0.74715400  1
  O  O51  1  0.26360500  0.25218500  0.74715400  1
  O  O52  1  0.11020000  0.74707600  0.47173400  1
  O  O53  1  0.11020000  0.25292400  0.47173400  1
  O  O54  1  0.96075400  0.50000000  0.80886600  1
  O  O55  1  0.95803500  0.00000000  0.80494900  1
  O  O56  1  0.79095650  0.75366950  0.44227900  1
  O  O57  1  0.79095650  0.24633050  0.44227900  1
  O  O58  1  0.59582500  0.50000000  0.11280600  1
  O  O59  1  0.59765500  0.00000000  0.11615300  1
  O  O60  1  0.93077800  0.25425500  0.41974100  1
  O  O61  1  0.93077800  0.74574500  0.41974100  1
  O  O62  1  0.77982200  0.74992000  0.14076900  1
  O  O63  1  0.77982200  0.25008000  0.14076900  1
  O  O64  1  0.62554650  0.25015450  0.77727100  1
  O  O65  1  0.62554650  0.74984550  0.77727100  1
  O  O66  1  0.94431400  0.50000000  0.08376900  1
  O  O67  1  0.94185700  0.00000000  0.07886100  1
  O  O68  1  0.76360500  0.24781500  0.74715400  1
  O  O69  1  0.76360500  0.75218500  0.74715400  1
  O  O70  1  0.61020000  0.24707600  0.47173400  1
  O  O71  1  0.61020000  0.75292400  0.47173400  1
