# generated using pymatgen
data_Hf2N2O
_symmetry_space_group_name_H-M   'P 1'
_cell_length_a   8.69348600
_cell_length_b   8.73050174
_cell_length_c   8.74511498
_cell_angle_alpha   109.36119292
_cell_angle_beta   109.50726776
_cell_angle_gamma   109.37724735
_symmetry_Int_Tables_number   1
_chemical_formula_structural   Hf2N2O
_chemical_formula_sum   'Hf16 N16 O8'
_cell_volume   512.00369963
_cell_formula_units_Z   8
loop_
 _symmetry_equiv_pos_site_id
 _symmetry_equiv_pos_as_xyz
  1  'x, y, z'
loop_
 _atom_site_type_symbol
 _atom_site_label
 _atom_site_symmetry_multiplicity
 _atom_site_fract_x
 _atom_site_fract_y
 _atom_site_fract_z
 _atom_site_occupancy
  Hf  Hf0  1  0.99841800  0.00985900  0.49978300  1
  Hf  Hf1  1  0.25152800  0.70670000  0.46437600  1
  Hf  Hf2  1  0.77879200  0.53055600  0.25170300  1
  Hf  Hf3  1  0.28539900  0.04256800  0.24904600  1
  Hf  Hf4  1  0.73987700  0.78646200  0.03450300  1
  Hf  Hf5  1  0.03159800  0.26021600  0.28440600  1
  Hf  Hf6  1  0.53512900  0.25343900  0.78416200  1
  Hf  Hf7  1  0.96644200  0.74166900  0.71448100  1
  Hf  Hf8  1  0.00371900  0.49029600  0.99471600  1
  Hf  Hf9  1  0.49953700  0.99941000  0.00182500  1
  Hf  Hf10  1  0.46719700  0.74164400  0.21276700  1
  Hf  Hf11  1  0.48912900  0.48993700  0.48882400  1
  Hf  Hf12  1  0.25875600  0.21567900  0.96712400  1
  Hf  Hf13  1  0.21475500  0.46214100  0.74972100  1
  Hf  Hf14  1  0.71536000  0.96919800  0.75081800  1
  Hf  Hf15  1  0.75546600  0.29301300  0.54268100  1
  N  N16  1  0.73206500  0.76085800  0.27131500  1
  N  N17  1  0.22779700  0.95535800  0.96552800  1
  N  N18  1  0.53834300  0.27315700  0.04382800  1
  N  N19  1  0.51242000  0.74504000  0.47090500  1
  N  N20  1  0.98990300  0.46486900  0.23076400  1
  N  N21  1  0.26785700  0.23215800  0.72446700  1
  N  N22  1  0.48738200  0.25831600  0.53107800  1
  N  N23  1  0.25752400  0.27154700  0.22779000  1
  N  N24  1  0.77497700  0.22648300  0.76789000  1
  N  N25  1  0.77310400  0.04144800  0.03108000  1
  N  N26  1  0.46690100  0.72908300  0.95515900  1
  N  N27  1  0.24115200  0.46720000  0.01801200  1
  N  N28  1  0.00972800  0.54441000  0.77478200  1
  N  N29  1  0.73069200  0.49378100  0.45736600  1
  N  N30  1  0.27414200  0.51635800  0.54900900  1
  N  N31  1  0.94587900  0.21901400  0.48110700  1
  O  O32  1  0.95861800  0.00227100  0.72963100  1
  O  O33  1  0.03924800  0.98438000  0.26628700  1
  O  O34  1  0.45080600  0.96528500  0.72801900  1
  O  O35  1  0.05751300  0.78226200  0.52371700  1
  O  O36  1  0.74864800  0.72988100  0.77856000  1
  O  O37  1  0.75667900  0.53528600  0.97703100  1
  O  O38  1  0.54098400  0.03207200  0.26952800  1
  O  O39  1  0.22653000  0.77669300  0.23621100  1
