# generated using pymatgen
data_Rb4SnO3
_symmetry_space_group_name_H-M   'P 1'
_cell_length_a   6.81622600
_cell_length_b   19.91092200
_cell_length_c   6.89818789
_cell_angle_alpha   90.00000000
_cell_angle_beta   110.99671310
_cell_angle_gamma   90.00000000
_symmetry_Int_Tables_number   1
_chemical_formula_structural   Rb4SnO3
_chemical_formula_sum   'Rb16 Sn4 O12'
_cell_volume   874.04073297
_cell_formula_units_Z   4
loop_
 _symmetry_equiv_pos_site_id
 _symmetry_equiv_pos_as_xyz
  1  'x, y, z'
loop_
 _atom_site_type_symbol
 _atom_site_label
 _atom_site_symmetry_multiplicity
 _atom_site_fract_x
 _atom_site_fract_y
 _atom_site_fract_z
 _atom_site_occupancy
  Rb  Rb0  1  0.46503250  0.15207150  0.79510400  1
  Rb  Rb1  1  0.98765050  0.46198350  0.74474800  1
  Rb  Rb2  1  0.99355550  0.04567150  0.76219700  1
  Rb  Rb3  1  0.00759000  0.25354600  0.76553100  1
  Rb  Rb4  1  0.96503250  0.34792850  0.29510400  1
  Rb  Rb5  1  0.48765050  0.03801650  0.24474800  1
  Rb  Rb6  1  0.49355550  0.45432850  0.26219700  1
  Rb  Rb7  1  0.50759000  0.24645400  0.26553100  1
  Rb  Rb8  1  0.96503250  0.65207150  0.79510400  1
  Rb  Rb9  1  0.48765050  0.96198350  0.74474800  1
  Rb  Rb10  1  0.49355550  0.54567150  0.76219700  1
  Rb  Rb11  1  0.50759000  0.75354600  0.76553100  1
  Rb  Rb12  1  0.46503250  0.84792850  0.29510400  1
  Rb  Rb13  1  0.98765050  0.53801650  0.24474800  1
  Rb  Rb14  1  0.99355550  0.95432850  0.26219700  1
  Rb  Rb15  1  0.00759000  0.74645400  0.26553100  1
  Sn  Sn16  1  0.52564050  0.36241850  0.74530700  1
  Sn  Sn17  1  0.02564050  0.13758150  0.24530700  1
  Sn  Sn18  1  0.02564050  0.86241850  0.74530700  1
  Sn  Sn19  1  0.52564050  0.63758150  0.24530700  1
  O  O20  1  0.72318650  0.42776650  0.96423900  1
  O  O21  1  0.70222800  0.34604500  0.55669700  1
  O  O22  1  0.22318650  0.07223350  0.46423900  1
  O  O23  1  0.20222800  0.15395500  0.05669700  1
  O  O24  1  0.28930300  0.42461200  0.55886300  1
  O  O25  1  0.78930300  0.07538800  0.05886300  1
  O  O26  1  0.22318650  0.92776650  0.96423900  1
  O  O27  1  0.20222800  0.84604500  0.55669700  1
  O  O28  1  0.72318650  0.57223350  0.46423900  1
  O  O29  1  0.70222800  0.65395500  0.05669700  1
  O  O30  1  0.78930300  0.92461200  0.55886300  1
  O  O31  1  0.28930300  0.57538800  0.05886300  1
