# generated using pymatgen
data_La2ZnO4
_symmetry_space_group_name_H-M   'P 1'
_cell_length_a   3.85060000
_cell_length_b   11.12164300
_cell_length_c   11.44931500
_cell_angle_alpha   90.00000000
_cell_angle_beta   90.00000000
_cell_angle_gamma   90.00000000
_symmetry_Int_Tables_number   1
_chemical_formula_structural   La2ZnO4
_chemical_formula_sum   'La8 Zn4 O16'
_cell_volume   490.31689811
_cell_formula_units_Z   4
loop_
 _symmetry_equiv_pos_site_id
 _symmetry_equiv_pos_as_xyz
  1  'x, y, z'
loop_
 _atom_site_type_symbol
 _atom_site_label
 _atom_site_symmetry_multiplicity
 _atom_site_fract_x
 _atom_site_fract_y
 _atom_site_fract_z
 _atom_site_occupancy
  La  La0  1  0.25000000  0.31213800  0.90242600  1
  La  La1  1  0.25000000  0.90971000  0.88772800  1
  La  La2  1  0.75000000  0.40971000  0.61227200  1
  La  La3  1  0.75000000  0.81213800  0.59757400  1
  La  La4  1  0.25000000  0.18786200  0.40242600  1
  La  La5  1  0.25000000  0.59029000  0.38772800  1
  La  La6  1  0.75000000  0.09029000  0.11227200  1
  La  La7  1  0.75000000  0.68786200  0.09757400  1
  Zn  Zn8  1  0.25000000  0.61859800  0.80992800  1
  Zn  Zn9  1  0.75000000  0.11859800  0.69007200  1
  Zn  Zn10  1  0.25000000  0.88140200  0.30992800  1
  Zn  Zn11  1  0.75000000  0.38140200  0.19007200  1
  O  O12  1  0.25000000  0.11031100  0.98259000  1
  O  O13  1  0.25000000  0.66008100  0.97160100  1
  O  O14  1  0.75000000  0.26534900  0.77729800  1
  O  O15  1  0.25000000  0.46547400  0.74208200  1
  O  O16  1  0.75000000  0.96547400  0.75791800  1
  O  O17  1  0.25000000  0.76534900  0.72270200  1
  O  O18  1  0.75000000  0.16008100  0.52839900  1
  O  O19  1  0.75000000  0.61031100  0.51741000  1
  O  O20  1  0.25000000  0.38968900  0.48259000  1
  O  O21  1  0.25000000  0.83991900  0.47160100  1
  O  O22  1  0.75000000  0.23465100  0.27729800  1
  O  O23  1  0.25000000  0.03452600  0.24208200  1
  O  O24  1  0.75000000  0.53452600  0.25791800  1
  O  O25  1  0.25000000  0.73465100  0.22270200  1
  O  O26  1  0.75000000  0.33991900  0.02839900  1
  O  O27  1  0.75000000  0.88968900  0.01741000  1
