# generated using pymatgen
data_BaNa4O3
_symmetry_space_group_name_H-M   'P 1'
_cell_length_a   5.93946600
_cell_length_b   17.91176600
_cell_length_c   5.84049397
_cell_angle_alpha   90.00000000
_cell_angle_beta   92.28672129
_cell_angle_gamma   90.00000000
_symmetry_Int_Tables_number   1
_chemical_formula_structural   BaNa4O3
_chemical_formula_sum   'Ba4 Na16 O12'
_cell_volume   620.85389096
_cell_formula_units_Z   4
loop_
 _symmetry_equiv_pos_site_id
 _symmetry_equiv_pos_as_xyz
  1  'x, y, z'
loop_
 _atom_site_type_symbol
 _atom_site_label
 _atom_site_symmetry_multiplicity
 _atom_site_fract_x
 _atom_site_fract_y
 _atom_site_fract_z
 _atom_site_occupancy
  Ba  Ba0  1  0.49744750  0.65533450  0.26099300  1
  Ba  Ba1  1  0.99744750  0.84466550  0.76099300  1
  Ba  Ba2  1  0.99744750  0.15533450  0.26099300  1
  Ba  Ba3  1  0.49744750  0.34466550  0.76099300  1
  Na  Na4  1  0.49612700  0.98052400  0.77003500  1
  Na  Na5  1  0.48660150  0.52643950  0.75595200  1
  Na  Na6  1  0.48360900  0.76314500  0.79016100  1
  Na  Na7  1  0.45984850  0.86335750  0.30215200  1
  Na  Na8  1  0.95984850  0.63664250  0.80215200  1
  Na  Na9  1  0.99612700  0.51947600  0.27003500  1
  Na  Na10  1  0.98660150  0.97356050  0.25595200  1
  Na  Na11  1  0.98360900  0.73685500  0.29016100  1
  Na  Na12  1  0.99612700  0.48052400  0.77003500  1
  Na  Na13  1  0.98660150  0.02643950  0.75595200  1
  Na  Na14  1  0.98360900  0.26314500  0.79016100  1
  Na  Na15  1  0.95984850  0.36335750  0.30215200  1
  Na  Na16  1  0.45984850  0.13664250  0.80215200  1
  Na  Na17  1  0.49612700  0.01947600  0.27003500  1
  Na  Na18  1  0.48660150  0.47356050  0.25595200  1
  Na  Na19  1  0.48360900  0.23685500  0.29016100  1
  O  O20  1  0.24592550  0.92669150  0.01214100  1
  O  O21  1  0.28115100  0.76605800  0.48159900  1
  O  O22  1  0.74592550  0.57330850  0.51214100  1
  O  O23  1  0.74347750  0.92906550  0.51965500  1
  O  O24  1  0.78115100  0.73394200  0.98159900  1
  O  O25  1  0.24347750  0.57093450  0.01965500  1
  O  O26  1  0.74592550  0.42669150  0.01214100  1
  O  O27  1  0.78115100  0.26605800  0.48159900  1
  O  O28  1  0.24592550  0.07330850  0.51214100  1
  O  O29  1  0.24347750  0.42906550  0.51965500  1
  O  O30  1  0.28115100  0.23394200  0.98159900  1
  O  O31  1  0.74347750  0.07093450  0.01965500  1
