# generated using pymatgen
data_La2HfO5
_symmetry_space_group_name_H-M   'P 1'
_cell_length_a   3.90899800
_cell_length_b   7.82530300
_cell_length_c   16.48753200
_cell_angle_alpha   90.00000000
_cell_angle_beta   90.00000000
_cell_angle_gamma   90.00000000
_symmetry_Int_Tables_number   1
_chemical_formula_structural   La2HfO5
_chemical_formula_sum   'La8 Hf4 O20'
_cell_volume   504.33866249
_cell_formula_units_Z   4
loop_
 _symmetry_equiv_pos_site_id
 _symmetry_equiv_pos_as_xyz
  1  'x, y, z'
loop_
 _atom_site_type_symbol
 _atom_site_label
 _atom_site_symmetry_multiplicity
 _atom_site_fract_x
 _atom_site_fract_y
 _atom_site_fract_z
 _atom_site_occupancy
  La  La0  1  0.25000000  0.60603700  0.58332500  1
  La  La1  1  0.25000000  0.65334900  0.24212000  1
  La  La2  1  0.75000000  0.84665100  0.74212000  1
  La  La3  1  0.75000000  0.89396300  0.08332500  1
  La  La4  1  0.25000000  0.10603700  0.91667500  1
  La  La5  1  0.25000000  0.15334900  0.25788000  1
  La  La6  1  0.75000000  0.34665100  0.75788000  1
  La  La7  1  0.75000000  0.39396300  0.41667500  1
  Hf  Hf8  1  0.25000000  0.61016400  0.92771500  1
  Hf  Hf9  1  0.75000000  0.88983600  0.42771500  1
  Hf  Hf10  1  0.25000000  0.11016400  0.57228500  1
  Hf  Hf11  1  0.75000000  0.38983600  0.07228500  1
  O  O12  1  0.75000000  0.58475300  0.67244600  1
  O  O13  1  0.75000000  0.57597800  0.95978100  1
  O  O14  1  0.75000000  0.60899200  0.14879400  1
  O  O15  1  0.75000000  0.65872600  0.49576700  1
  O  O16  1  0.25000000  0.75919900  0.82720300  1
  O  O17  1  0.75000000  0.74080100  0.32720300  1
  O  O18  1  0.25000000  0.84127400  0.99576700  1
  O  O19  1  0.25000000  0.89100800  0.64879400  1
  O  O20  1  0.25000000  0.92402200  0.45978100  1
  O  O21  1  0.25000000  0.91524700  0.17244600  1
  O  O22  1  0.75000000  0.08475300  0.82755400  1
  O  O23  1  0.75000000  0.07597800  0.54021900  1
  O  O24  1  0.75000000  0.10899200  0.35120600  1
  O  O25  1  0.75000000  0.15872600  0.00423300  1
  O  O26  1  0.25000000  0.25919900  0.67279700  1
  O  O27  1  0.75000000  0.24080100  0.17279700  1
  O  O28  1  0.25000000  0.34127400  0.50423300  1
  O  O29  1  0.25000000  0.39100800  0.85120600  1
  O  O30  1  0.25000000  0.42402200  0.04021900  1
  O  O31  1  0.25000000  0.41524700  0.32755400  1
