# generated using pymatgen
data_BaCa2I6
_symmetry_space_group_name_H-M   'P 1'
_cell_length_a   8.08963100
_cell_length_b   8.08963100
_cell_length_c   24.00320100
_cell_angle_alpha   90.00000000
_cell_angle_beta   90.00000000
_cell_angle_gamma   90.00000000
_symmetry_Int_Tables_number   1
_chemical_formula_structural   BaCa2I6
_chemical_formula_sum   'Ba4 Ca8 I24'
_cell_volume   1570.82059345
_cell_formula_units_Z   4
loop_
 _symmetry_equiv_pos_site_id
 _symmetry_equiv_pos_as_xyz
  1  'x, y, z'
loop_
 _atom_site_type_symbol
 _atom_site_label
 _atom_site_symmetry_multiplicity
 _atom_site_fract_x
 _atom_site_fract_y
 _atom_site_fract_z
 _atom_site_occupancy
  Ba  Ba0  1  0.00000000  0.00000000  0.00000000  1
  Ba  Ba1  1  0.00000000  0.50000000  0.50000000  1
  Ba  Ba2  1  0.50000000  0.00000000  0.50000000  1
  Ba  Ba3  1  0.50000000  0.50000000  0.00000000  1
  Ca  Ca4  1  0.00000000  0.50000000  0.16915500  1
  Ca  Ca5  1  0.00000000  0.00000000  0.32614500  1
  Ca  Ca6  1  0.00000000  0.00000000  0.67385500  1
  Ca  Ca7  1  0.00000000  0.50000000  0.83084500  1
  Ca  Ca8  1  0.50000000  0.50000000  0.32614500  1
  Ca  Ca9  1  0.50000000  0.00000000  0.16915500  1
  Ca  Ca10  1  0.50000000  0.00000000  0.83084500  1
  Ca  Ca11  1  0.50000000  0.50000000  0.67385500  1
  I  I12  1  0.19528700  0.79569200  0.58625500  1
  I  I13  1  0.20990100  0.71478700  0.08787200  1
  I  I14  1  0.28521300  0.20990100  0.91212800  1
  I  I15  1  0.29569200  0.69528700  0.41374500  1
  I  I16  1  0.21179500  0.29464700  0.25265200  1
  I  I17  1  0.20535300  0.28820500  0.74734800  1
  I  I18  1  0.29464700  0.78820500  0.74734800  1
  I  I19  1  0.28820500  0.79464700  0.25265200  1
  I  I20  1  0.21478700  0.70990100  0.91212800  1
  I  I21  1  0.20430800  0.19528700  0.41374500  1
  I  I22  1  0.29009900  0.21478700  0.08787200  1
  I  I23  1  0.30471300  0.29569200  0.58625500  1
  I  I24  1  0.69528700  0.70430800  0.58625500  1
  I  I25  1  0.70990100  0.78521300  0.08787200  1
  I  I26  1  0.78521300  0.29009900  0.91212800  1
  I  I27  1  0.79569200  0.80471300  0.41374500  1
  I  I28  1  0.71179500  0.20535300  0.25265200  1
  I  I29  1  0.70535300  0.21179500  0.74734800  1
  I  I30  1  0.79464700  0.71179500  0.74734800  1
  I  I31  1  0.78820500  0.70535300  0.25265200  1
  I  I32  1  0.70430800  0.30471300  0.41374500  1
  I  I33  1  0.71478700  0.79009900  0.91212800  1
  I  I34  1  0.79009900  0.28521300  0.08787200  1
  I  I35  1  0.80471300  0.20430800  0.58625500  1
