# generated using pymatgen
data_Nb2P2O9
_symmetry_space_group_name_H-M   'P 1'
_cell_length_a   6.66066400
_cell_length_b   8.69391000
_cell_length_c   11.83299900
_cell_angle_alpha   90.00000000
_cell_angle_beta   90.00000000
_cell_angle_gamma   90.00000000
_symmetry_Int_Tables_number   1
_chemical_formula_structural   Nb2P2O9
_chemical_formula_sum   'Nb8 P8 O36'
_cell_volume   685.21599774
_cell_formula_units_Z   4
loop_
 _symmetry_equiv_pos_site_id
 _symmetry_equiv_pos_as_xyz
  1  'x, y, z'
loop_
 _atom_site_type_symbol
 _atom_site_label
 _atom_site_symmetry_multiplicity
 _atom_site_fract_x
 _atom_site_fract_y
 _atom_site_fract_z
 _atom_site_occupancy
  Nb  Nb0  1  0.50000000  0.29626400  0.55998200  1
  Nb  Nb1  1  0.50000000  0.70373600  0.44001800  1
  Nb  Nb2  1  0.50000000  0.20373600  0.05998200  1
  Nb  Nb3  1  0.50000000  0.79626400  0.94001800  1
  Nb  Nb4  1  0.00000000  0.79626400  0.55998200  1
  Nb  Nb5  1  0.00000000  0.20373600  0.44001800  1
  Nb  Nb6  1  0.00000000  0.70373600  0.05998200  1
  Nb  Nb7  1  0.00000000  0.29626400  0.94001800  1
  P  P8  1  0.50000000  0.39452700  0.85270500  1
  P  P9  1  0.50000000  0.60547300  0.14729500  1
  P  P10  1  0.50000000  0.10547300  0.35270500  1
  P  P11  1  0.50000000  0.89452700  0.64729500  1
  P  P12  1  0.00000000  0.89452700  0.85270500  1
  P  P13  1  0.00000000  0.10547300  0.14729500  1
  P  P14  1  0.00000000  0.60547300  0.35270500  1
  P  P15  1  0.00000000  0.39452700  0.64729500  1
  O  O16  1  0.32504750  0.69277250  0.08353800  1
  O  O17  1  0.32504750  0.30722750  0.91646200  1
  O  O18  1  0.32504750  0.19277250  0.41646200  1
  O  O19  1  0.32504750  0.80722750  0.58353800  1
  O  O20  1  0.50000000  0.00000000  0.00000000  1
  O  O21  1  0.50000000  0.64150300  0.27302800  1
  O  O22  1  0.50000000  0.85849700  0.77302800  1
  O  O23  1  0.00000000  0.00000000  0.50000000  1
  O  O24  1  0.50000000  0.93534000  0.37460800  1
  O  O25  1  0.50000000  0.56466000  0.87460800  1
  O  O26  1  0.50000000  0.43534000  0.12539200  1
  O  O27  1  0.50000000  0.35849700  0.72697200  1
  O  O28  1  0.50000000  0.14150300  0.22697200  1
  O  O29  1  0.50000000  0.06466000  0.62539200  1
  O  O30  1  0.67495250  0.19277250  0.41646200  1
  O  O31  1  0.67495250  0.30722750  0.91646200  1
  O  O32  1  0.67495250  0.80722750  0.58353800  1
  O  O33  1  0.67495250  0.69277250  0.08353800  1
  O  O34  1  0.82504750  0.19277250  0.08353800  1
  O  O35  1  0.82504750  0.80722750  0.91646200  1
  O  O36  1  0.82504750  0.69277250  0.41646200  1
  O  O37  1  0.82504750  0.30722750  0.58353800  1
  O  O38  1  0.00000000  0.50000000  0.00000000  1
  O  O39  1  0.00000000  0.14150300  0.27302800  1
  O  O40  1  0.00000000  0.35849700  0.77302800  1
  O  O41  1  0.50000000  0.50000000  0.50000000  1
  O  O42  1  0.00000000  0.43534000  0.37460800  1
  O  O43  1  0.00000000  0.06466000  0.87460800  1
  O  O44  1  0.00000000  0.93534000  0.12539200  1
  O  O45  1  0.00000000  0.85849700  0.72697200  1
  O  O46  1  0.00000000  0.64150300  0.22697200  1
  O  O47  1  0.00000000  0.56466000  0.62539200  1
  O  O48  1  0.17495250  0.69277250  0.41646200  1
  O  O49  1  0.17495250  0.80722750  0.91646200  1
  O  O50  1  0.17495250  0.30722750  0.58353800  1
  O  O51  1  0.17495250  0.19277250  0.08353800  1
