# generated using pymatgen
data_KCuO
_symmetry_space_group_name_H-M   'P 1'
_cell_length_a   9.36425600
_cell_length_b   9.36425600
_cell_length_c   5.55266600
_cell_angle_alpha   90.00000000
_cell_angle_beta   90.00000000
_cell_angle_gamma   90.00000000
_symmetry_Int_Tables_number   1
_chemical_formula_structural   KCuO
_chemical_formula_sum   'K8 Cu8 O8'
_cell_volume   486.90934155
_cell_formula_units_Z   8
loop_
 _symmetry_equiv_pos_site_id
 _symmetry_equiv_pos_as_xyz
  1  'x, y, z'
loop_
 _atom_site_type_symbol
 _atom_site_label
 _atom_site_symmetry_multiplicity
 _atom_site_fract_x
 _atom_site_fract_y
 _atom_site_fract_z
 _atom_site_occupancy
  K  K0  1  0.50000000  0.19028100  0.00000000  1
  K  K1  1  0.50000000  0.80971900  0.00000000  1
  K  K2  1  0.69028100  0.00000000  0.50000000  1
  K  K3  1  0.30971900  0.00000000  0.50000000  1
  K  K4  1  0.00000000  0.69028100  0.50000000  1
  K  K5  1  0.00000000  0.30971900  0.50000000  1
  K  K6  1  0.19028100  0.50000000  0.00000000  1
  K  K7  1  0.80971900  0.50000000  0.00000000  1
  Cu  Cu8  1  0.63904600  0.63904600  0.50000000  1
  Cu  Cu9  1  0.86095400  0.13904600  0.00000000  1
  Cu  Cu10  1  0.86095400  0.86095400  0.00000000  1
  Cu  Cu11  1  0.63904600  0.36095400  0.50000000  1
  Cu  Cu12  1  0.13904600  0.13904600  0.00000000  1
  Cu  Cu13  1  0.36095400  0.63904600  0.50000000  1
  Cu  Cu14  1  0.36095400  0.36095400  0.50000000  1
  Cu  Cu15  1  0.13904600  0.86095400  0.00000000  1
  O  O16  1  0.72163600  0.00000000  0.00000000  1
  O  O17  1  0.50000000  0.22163600  0.50000000  1
  O  O18  1  0.50000000  0.77836400  0.50000000  1
  O  O19  1  0.27836400  0.00000000  0.00000000  1
  O  O20  1  0.22163600  0.50000000  0.50000000  1
  O  O21  1  0.00000000  0.72163600  0.00000000  1
  O  O22  1  0.00000000  0.27836400  0.00000000  1
  O  O23  1  0.77836400  0.50000000  0.50000000  1
