# generated using pymatgen
data_Li9Mn12Ni3O32
_symmetry_space_group_name_H-M   'P 1'
_cell_length_a   11.72211600
_cell_length_b   11.74594600
_cell_length_c   8.26364727
_cell_angle_alpha   90.00000000
_cell_angle_beta   90.28084147
_cell_angle_gamma   90.00000000
_symmetry_Int_Tables_number   1
_chemical_formula_structural   Li9Mn12Ni3O32
_chemical_formula_sum   'Li18 Mn24 Ni6 O64'
_cell_volume   1137.78595582
_cell_formula_units_Z   2
loop_
 _symmetry_equiv_pos_site_id
 _symmetry_equiv_pos_as_xyz
  1  'x, y, z'
loop_
 _atom_site_type_symbol
 _atom_site_label
 _atom_site_symmetry_multiplicity
 _atom_site_fract_x
 _atom_site_fract_y
 _atom_site_fract_z
 _atom_site_occupancy
  Li  Li0  1  0.87219900  0.12036200  0.87207600  1
  Li  Li1  1  0.87680350  0.87772050  0.62968400  1
  Li  Li2  1  0.37875250  0.87603450  0.62229600  1
  Li  Li3  1  0.62124750  0.87603450  0.37770400  1
  Li  Li4  1  0.12319650  0.87772050  0.37031600  1
  Li  Li5  1  0.12780100  0.12036200  0.12792400  1
  Li  Li6  1  0.62181350  0.12586150  0.11951100  1
  Li  Li7  1  0.50000000  0.37416300  0.00000000  1
  Li  Li8  1  0.37818650  0.12586150  0.88048900  1
  Li  Li9  1  0.37219900  0.62036200  0.87207600  1
  Li  Li10  1  0.37680350  0.37772050  0.62968400  1
  Li  Li11  1  0.87875250  0.37603450  0.62229600  1
  Li  Li12  1  0.12124750  0.37603450  0.37770400  1
  Li  Li13  1  0.62319650  0.37772050  0.37031600  1
  Li  Li14  1  0.62780100  0.62036200  0.12792400  1
  Li  Li15  1  0.12181350  0.62586150  0.11951100  1
  Li  Li16  1  0.00000000  0.87416300  0.00000000  1
  Li  Li17  1  0.87818650  0.62586150  0.88048900  1
  Mn  Mn18  1  0.62724850  0.74954950  0.75215400  1
  Mn  Mn19  1  0.12812250  0.99763250  0.75009800  1
  Mn  Mn20  1  0.62575050  0.25242250  0.74842600  1
  Mn  Mn21  1  0.25187350  0.12688750  0.50245900  1
  Mn  Mn22  1  0.50000000  0.12877400  0.50000000  1
  Mn  Mn23  1  0.74812650  0.12688750  0.49754100  1
  Mn  Mn24  1  0.37424950  0.25242250  0.25157400  1
  Mn  Mn25  1  0.87187750  0.99763250  0.24990200  1
  Mn  Mn26  1  0.37275150  0.74954950  0.24784600  1
  Mn  Mn27  1  0.74994650  0.87325250  0.00401000  1
  Mn  Mn28  1  0.50000000  0.87197200  0.00000000  1
  Mn  Mn29  1  0.25005350  0.87325250  0.99599000  1
  Mn  Mn30  1  0.12724850  0.24954950  0.75215400  1
  Mn  Mn31  1  0.62812250  0.49763250  0.75009800  1
  Mn  Mn32  1  0.12575050  0.75242250  0.74842600  1
  Mn  Mn33  1  0.75187350  0.62688750  0.50245900  1
  Mn  Mn34  1  0.00000000  0.62877400  0.50000000  1
  Mn  Mn35  1  0.24812650  0.62688750  0.49754100  1
  Mn  Mn36  1  0.87424950  0.75242250  0.25157400  1
  Mn  Mn37  1  0.37187750  0.49763250  0.24990200  1
  Mn  Mn38  1  0.87275150  0.24954950  0.24784600  1
  Mn  Mn39  1  0.24994650  0.37325250  0.00401000  1
  Mn  Mn40  1  0.00000000  0.37197200  0.00000000  1
  Mn  Mn41  1  0.75005350  0.37325250  0.99599000  1
  Ni  Ni42  1  0.62493350  0.00072250  0.75076400  1
  Ni  Ni43  1  0.50000000  0.62370900  0.50000000  1
  Ni  Ni44  1  0.37506650  0.00072250  0.24923600  1
  Ni  Ni45  1  0.12493350  0.50072250  0.75076400  1
  Ni  Ni46  1  0.00000000  0.12370900  0.50000000  1
  Ni  Ni47  1  0.87506650  0.50072250  0.24923600  1
  O  O48  1  0.74079650  0.86583550  0.77216500  1
  O  O49  1  0.51188050  0.86359450  0.76616900  1
  O  O50  1  0.23966650  0.87591650  0.75890700  1
  O  O51  1  0.52256050  0.37811550  0.74558000  1
  O  O52  1  0.51650000  0.62211900  0.73253200  1
  O  O53  1  0.23849300  0.12579400  0.73903800  1
  O  O54  1  0.51192850  0.13671650  0.73315100  1
  O  O55  1  0.74116450  0.13331150  0.72692900  1
  O  O56  1  0.63110100  0.73989100  0.51989800  1
  O  O57  1  0.13404000  0.01382300  0.51296100  1
  O  O58  1  0.62535100  0.23891600  0.50872800  1
  O  O59  1  0.62254250  0.02045450  0.49979100  1
  O  O60  1  0.37745750  0.02045450  0.50020900  1
  O  O61  1  0.37464900  0.23891600  0.49127200  1
  O  O62  1  0.86596000  0.01382300  0.48703900  1
  O  O63  1  0.36889900  0.73989100  0.48010200  1
  O  O64  1  0.25883550  0.13331150  0.27307100  1
  O  O65  1  0.48807150  0.13671650  0.26684900  1
  O  O66  1  0.76150700  0.12579400  0.26096200  1
  O  O67  1  0.48350000  0.62211900  0.26746800  1
  O  O68  1  0.47743950  0.37811550  0.25442000  1
  O  O69  1  0.76033350  0.87591650  0.24109300  1
  O  O70  1  0.48811950  0.86359450  0.23383100  1
  O  O71  1  0.25920350  0.86583550  0.22783500  1
  O  O72  1  0.36331000  0.25830600  0.02512100  1
  O  O73  1  0.86123300  0.98962300  0.02060500  1
  O  O74  1  0.37632700  0.75915300  0.01216800  1
  O  O75  1  0.37847950  0.97931750  0.00004900  1
  O  O76  1  0.62152050  0.97931750  0.99995100  1
  O  O77  1  0.62367300  0.75915300  0.98783200  1
  O  O78  1  0.13876700  0.98962300  0.97939500  1
  O  O79  1  0.63669000  0.25830600  0.97487900  1
  O  O80  1  0.24079650  0.36583550  0.77216500  1
  O  O81  1  0.01188050  0.36359450  0.76616900  1
  O  O82  1  0.73966650  0.37591650  0.75890700  1
  O  O83  1  0.02256050  0.87811550  0.74558000  1
  O  O84  1  0.01650000  0.12211900  0.73253200  1
  O  O85  1  0.73849300  0.62579400  0.73903800  1
  O  O86  1  0.01192850  0.63671650  0.73315100  1
  O  O87  1  0.24116450  0.63331150  0.72692900  1
  O  O88  1  0.13110100  0.23989100  0.51989800  1
  O  O89  1  0.63404000  0.51382300  0.51296100  1
  O  O90  1  0.12535100  0.73891600  0.50872800  1
  O  O91  1  0.12254250  0.52045450  0.49979100  1
  O  O92  1  0.87745750  0.52045450  0.50020900  1
  O  O93  1  0.87464900  0.73891600  0.49127200  1
  O  O94  1  0.36596000  0.51382300  0.48703900  1
  O  O95  1  0.86889900  0.23989100  0.48010200  1
  O  O96  1  0.75883550  0.63331150  0.27307100  1
  O  O97  1  0.98807150  0.63671650  0.26684900  1
  O  O98  1  0.26150700  0.62579400  0.26096200  1
  O  O99  1  0.98350000  0.12211900  0.26746800  1
  O  O100  1  0.97743950  0.87811550  0.25442000  1
  O  O101  1  0.26033350  0.37591650  0.24109300  1
  O  O102  1  0.98811950  0.36359450  0.23383100  1
  O  O103  1  0.75920350  0.36583550  0.22783500  1
  O  O104  1  0.86331000  0.75830600  0.02512100  1
  O  O105  1  0.36123300  0.48962300  0.02060500  1
  O  O106  1  0.87632700  0.25915300  0.01216800  1
  O  O107  1  0.87847950  0.47931750  0.00004900  1
  O  O108  1  0.12152050  0.47931750  0.99995100  1
  O  O109  1  0.12367300  0.25915300  0.98783200  1
  O  O110  1  0.63876700  0.48962300  0.97939500  1
  O  O111  1  0.13669000  0.75830600  0.97487900  1
