# generated using pymatgen
data_Li2MnV3O8
_symmetry_space_group_name_H-M   'P 1'
_cell_length_a   5.93104196
_cell_length_b   5.93104196
_cell_length_c   9.92888200
_cell_angle_alpha   90.00000000
_cell_angle_beta   90.00000000
_cell_angle_gamma   120.00000000
_symmetry_Int_Tables_number   1
_chemical_formula_structural   Li2MnV3O8
_chemical_formula_sum   'Li4 Mn2 V6 O16'
_cell_volume   302.47743008
_cell_formula_units_Z   2
loop_
 _symmetry_equiv_pos_site_id
 _symmetry_equiv_pos_as_xyz
  1  'x, y, z'
loop_
 _atom_site_type_symbol
 _atom_site_label
 _atom_site_symmetry_multiplicity
 _atom_site_fract_x
 _atom_site_fract_y
 _atom_site_fract_z
 _atom_site_occupancy
  Li  Li0  1  0.33333333  0.66666667  0.89413000  1
  Li  Li1  1  0.00000000  0.00000000  0.99689000  1
  Li  Li2  1  0.00000000  0.00000000  0.49689000  1
  Li  Li3  1  0.66666667  0.33333333  0.39413000  1
  Mn  Mn4  1  0.33333333  0.66666667  0.49741200  1
  Mn  Mn5  1  0.66666667  0.33333333  0.99741200  1
  V  V6  1  0.15816833  0.82022467  0.21445000  1
  V  V7  1  0.17977533  0.33794367  0.21445000  1
  V  V8  1  0.66205633  0.84183167  0.21445000  1
  V  V9  1  0.33794367  0.17977533  0.71445000  1
  V  V10  1  0.84183167  0.66205633  0.71445000  1
  V  V11  1  0.82022467  0.15816833  0.71445000  1
  O  O12  1  0.16919233  0.85832567  0.60925900  1
  O  O13  1  0.03360933  0.53266767  0.32579200  1
  O  O14  1  0.33333333  0.66666667  0.10310700  1
  O  O15  1  0.00000000  0.00000000  0.31383900  1
  O  O16  1  0.00000000  0.00000000  0.81383900  1
  O  O17  1  0.14167433  0.31086667  0.60925900  1
  O  O18  1  0.49905833  0.96639067  0.32579200  1
  O  O19  1  0.46733233  0.50094167  0.32579200  1
  O  O20  1  0.31086667  0.14167433  0.10925900  1
  O  O21  1  0.68913333  0.83080767  0.60925900  1
  O  O22  1  0.50094167  0.46733233  0.82579200  1
  O  O23  1  0.53266767  0.03360933  0.82579200  1
  O  O24  1  0.66666667  0.33333333  0.60310700  1
  O  O25  1  0.83080767  0.68913333  0.10925900  1
  O  O26  1  0.96639067  0.49905833  0.82579200  1
  O  O27  1  0.85832567  0.16919233  0.10925900  1
