# generated using pymatgen
data_Tm2SeO2
_symmetry_space_group_name_H-M   'P 1'
_cell_length_a   3.77876800
_cell_length_b   3.77876800
_cell_length_c   11.95922000
_cell_angle_alpha   90.00000000
_cell_angle_beta   90.00000000
_cell_angle_gamma   90.00000000
_symmetry_Int_Tables_number   1
_chemical_formula_structural   Tm2SeO2
_chemical_formula_sum   'Tm4 Se2 O4'
_cell_volume   170.76674998
_cell_formula_units_Z   2
loop_
 _symmetry_equiv_pos_site_id
 _symmetry_equiv_pos_as_xyz
  1  'x, y, z'
loop_
 _atom_site_type_symbol
 _atom_site_label
 _atom_site_symmetry_multiplicity
 _atom_site_fract_x
 _atom_site_fract_y
 _atom_site_fract_z
 _atom_site_occupancy
  Tm  Tm0  1  0.50000000  0.50000000  0.15790600  1
  Tm  Tm1  1  0.00000000  0.00000000  0.34209400  1
  Tm  Tm2  1  0.00000000  0.00000000  0.65790600  1
  Tm  Tm3  1  0.50000000  0.50000000  0.84209400  1
  Se  Se4  1  0.00000000  0.00000000  0.00000000  1
  Se  Se5  1  0.50000000  0.50000000  0.50000000  1
  O  O6  1  0.50000000  0.00000000  0.25000000  1
  O  O7  1  0.00000000  0.50000000  0.25000000  1
  O  O8  1  0.00000000  0.50000000  0.75000000  1
  O  O9  1  0.50000000  0.00000000  0.75000000  1
