# generated using pymatgen
data_Mn2Si(H2O3)2
_symmetry_space_group_name_H-M   'P 1'
_cell_length_a   5.41219600
_cell_length_b   7.30311100
_cell_length_c   12.88743600
_cell_angle_alpha   90.00000000
_cell_angle_beta   90.00000000
_cell_angle_gamma   90.00000000
_symmetry_Int_Tables_number   1
_chemical_formula_structural   Mn2Si(H2O3)2
_chemical_formula_sum   'Mn8 Si4 H16 O24'
_cell_volume   509.38709602
_cell_formula_units_Z   4
loop_
 _symmetry_equiv_pos_site_id
 _symmetry_equiv_pos_as_xyz
  1  'x, y, z'
loop_
 _atom_site_type_symbol
 _atom_site_label
 _atom_site_symmetry_multiplicity
 _atom_site_fract_x
 _atom_site_fract_y
 _atom_site_fract_z
 _atom_site_occupancy
  Mn  Mn0  1  0.99978700  0.17624800  0.31210100  1
  Mn  Mn1  1  0.49978700  0.82375200  0.68789900  1
  Mn  Mn2  1  0.49978700  0.17624800  0.18789900  1
  Mn  Mn3  1  0.99978700  0.82375200  0.81210100  1
  Mn  Mn4  1  0.97872100  0.83047600  0.54106600  1
  Mn  Mn5  1  0.47872100  0.16952400  0.45893400  1
  Mn  Mn6  1  0.47872100  0.83047600  0.95893400  1
  Mn  Mn7  1  0.97872100  0.16952400  0.04106600  1
  Si  Si8  1  0.18535500  0.21512300  0.68586000  1
  Si  Si9  1  0.68535500  0.78487700  0.31414000  1
  Si  Si10  1  0.68535500  0.21512300  0.81414000  1
  Si  Si11  1  0.18535500  0.78487700  0.18586000  1
  H  H12  1  0.74928200  0.11027000  0.61851500  1
  H  H13  1  0.24928200  0.88973000  0.38148500  1
  H  H14  1  0.24928200  0.11027000  0.88148500  1
  H  H15  1  0.74928200  0.88973000  0.11851500  1
  H  H16  1  0.35190600  0.54846600  0.81678800  1
  H  H17  1  0.85190600  0.45153400  0.18321200  1
  H  H18  1  0.85190600  0.54846600  0.68321200  1
  H  H19  1  0.35190600  0.45153400  0.31678800  1
  H  H20  1  0.29895000  0.52018300  0.56516000  1
  H  H21  1  0.79895000  0.47981700  0.43484000  1
  H  H22  1  0.79895000  0.52018300  0.93484000  1
  H  H23  1  0.29895000  0.47981700  0.06516000  1
  H  H24  1  0.47239300  0.66555500  0.50026600  1
  H  H25  1  0.97239300  0.33444500  0.49973400  1
  H  H26  1  0.97239300  0.66555500  0.99973400  1
  H  H27  1  0.47239300  0.33444500  0.00026600  1
  O  O28  1  0.17348400  0.99209400  0.68216500  1
  O  O29  1  0.67348400  0.00790600  0.31783500  1
  O  O30  1  0.67348400  0.99209400  0.81783500  1
  O  O31  1  0.17348400  0.00790600  0.18216500  1
  O  O32  1  0.67411500  0.01653600  0.57457800  1
  O  O33  1  0.17411500  0.98346400  0.42542200  1
  O  O34  1  0.17411500  0.01653600  0.92542200  1
  O  O35  1  0.67411500  0.98346400  0.07457800  1
  O  O36  1  0.34719000  0.68198900  0.82264300  1
  O  O37  1  0.84719000  0.31801100  0.17735700  1
  O  O38  1  0.84719000  0.68198900  0.67735700  1
  O  O39  1  0.34719000  0.31801100  0.32264300  1
  O  O40  1  0.33461600  0.65691500  0.55328400  1
  O  O41  1  0.83461600  0.34308500  0.44671600  1
  O  O42  1  0.83461600  0.65691500  0.94671600  1
  O  O43  1  0.33461600  0.34308500  0.05328400  1
  O  O44  1  0.22769100  0.31189700  0.57361700  1
  O  O45  1  0.72769100  0.68810300  0.42638300  1
  O  O46  1  0.72769100  0.31189700  0.92638300  1
  O  O47  1  0.22769100  0.68810300  0.07361700  1
  O  O48  1  0.90831100  0.28519000  0.73185900  1
  O  O49  1  0.40831100  0.71481000  0.26814100  1
  O  O50  1  0.40831100  0.28519000  0.76814100  1
  O  O51  1  0.90831100  0.71481000  0.23185900  1
