# generated using pymatgen
data_GdErO3
_symmetry_space_group_name_H-M   'P 1'
_cell_length_a   15.15265200
_cell_length_b   10.71372600
_cell_length_c   10.71297893
_cell_angle_alpha   90.00000000
_cell_angle_beta   135.00645173
_cell_angle_gamma   90.00000000
_symmetry_Int_Tables_number   1
_chemical_formula_structural   GdErO3
_chemical_formula_sum   'Gd16 Er16 O48'
_cell_volume   1229.63305281
_cell_formula_units_Z   16
loop_
 _symmetry_equiv_pos_site_id
 _symmetry_equiv_pos_as_xyz
  1  'x, y, z'
loop_
 _atom_site_type_symbol
 _atom_site_label
 _atom_site_symmetry_multiplicity
 _atom_site_fract_x
 _atom_site_fract_y
 _atom_site_fract_z
 _atom_site_occupancy
  Gd  Gd0  1  0.49881600  0.00001700  0.74981500  1
  Gd  Gd1  1  0.71924450  0.75037150  0.96965000  1
  Gd  Gd2  1  0.78075550  0.25037150  0.03035000  1
  Gd  Gd3  1  0.50000000  0.21911300  0.50000000  1
  Gd  Gd4  1  0.00000000  0.21828400  0.50000000  1
  Gd  Gd5  1  0.50218900  0.50049500  0.25000400  1
  Gd  Gd6  1  0.00118400  0.50001700  0.25018500  1
  Gd  Gd7  1  0.99781100  0.00049500  0.74999600  1
  Gd  Gd8  1  0.99881600  0.50001700  0.74981500  1
  Gd  Gd9  1  0.21924450  0.25037150  0.96965000  1
  Gd  Gd10  1  0.28075550  0.75037150  0.03035000  1
  Gd  Gd11  1  0.00000000  0.71911300  0.50000000  1
  Gd  Gd12  1  0.50000000  0.71828400  0.50000000  1
  Gd  Gd13  1  0.00218900  0.00049500  0.25000400  1
  Gd  Gd14  1  0.50118400  0.00001700  0.25018500  1
  Gd  Gd15  1  0.49781100  0.50049500  0.74999600  1
  Er  Er16  1  0.75137050  0.00028650  0.78210900  1
  Er  Er17  1  0.74863250  0.00024350  0.28237200  1
  Er  Er18  1  0.74862950  0.50028650  0.21789100  1
  Er  Er19  1  0.00000000  0.78208500  0.00000000  1
  Er  Er20  1  0.00000000  0.28277100  0.00000000  1
  Er  Er21  1  0.21821200  0.75027800  0.46786700  1
  Er  Er22  1  0.28178800  0.25027800  0.53213300  1
  Er  Er23  1  0.75136750  0.50024350  0.71762800  1
  Er  Er24  1  0.25137050  0.50028650  0.78210900  1
  Er  Er25  1  0.24863250  0.50024350  0.28237200  1
  Er  Er26  1  0.24862950  0.00028650  0.21789100  1
  Er  Er27  1  0.50000000  0.28208500  0.00000000  1
  Er  Er28  1  0.50000000  0.78277100  0.00000000  1
  Er  Er29  1  0.71821200  0.25027800  0.46786700  1
  Er  Er30  1  0.78178800  0.75027800  0.53213300  1
  Er  Er31  1  0.25136750  0.00024350  0.71762800  1
  O  O32  1  0.89794600  0.37289100  0.29093300  1
  O  O33  1  0.10205400  0.37289100  0.70906700  1
  O  O34  1  0.36930250  0.85640450  0.71942600  1
  O  O35  1  0.37201000  0.35921800  0.01923200  1
  O  O36  1  0.86690650  0.14151250  0.51901500  1
  O  O37  1  0.86968250  0.63881650  0.22014300  1
  O  O38  1  0.59939100  0.63005000  0.99489100  1
  O  O39  1  0.90060900  0.13005000  0.00510900  1
  O  O40  1  0.85717450  0.09580250  0.23829000  1
  O  O41  1  0.14622550  0.59979950  0.52479900  1
  O  O42  1  0.35377450  0.09979950  0.47520100  1
  O  O43  1  0.64282550  0.59580250  0.76171000  1
  O  O44  1  0.14358300  0.89810200  0.26218700  1
  O  O45  1  0.63998650  0.90180650  0.02399300  1
  O  O46  1  0.35641700  0.39810200  0.73781300  1
  O  O47  1  0.86001350  0.40180650  0.97600700  1
  O  O48  1  0.39687950  0.37119450  0.50659400  1
  O  O49  1  0.60312050  0.37119450  0.49340600  1
  O  O50  1  0.62799000  0.35921800  0.98076800  1
  O  O51  1  0.13069750  0.35640450  0.28057400  1
  O  O52  1  0.13309350  0.14151250  0.48098500  1
  O  O53  1  0.63031750  0.13881650  0.77985700  1
  O  O54  1  0.10033500  0.63157300  0.20740700  1
  O  O55  1  0.39966500  0.13157300  0.79259300  1
  O  O56  1  0.39794600  0.87289100  0.29093300  1
  O  O57  1  0.60205400  0.87289100  0.70906700  1
  O  O58  1  0.86930250  0.35640450  0.71942600  1
  O  O59  1  0.87201000  0.85921800  0.01923200  1
  O  O60  1  0.36690650  0.64151250  0.51901500  1
  O  O61  1  0.36968250  0.13881650  0.22014300  1
  O  O62  1  0.09939100  0.13005000  0.99489100  1
  O  O63  1  0.40060900  0.63005000  0.00510900  1
  O  O64  1  0.35717450  0.59580250  0.23829000  1
  O  O65  1  0.64622550  0.09979950  0.52479900  1
  O  O66  1  0.85377450  0.59979950  0.47520100  1
  O  O67  1  0.14282550  0.09580250  0.76171000  1
  O  O68  1  0.64358300  0.39810200  0.26218700  1
  O  O69  1  0.13998650  0.40180650  0.02399300  1
  O  O70  1  0.85641700  0.89810200  0.73781300  1
  O  O71  1  0.36001350  0.90180650  0.97600700  1
  O  O72  1  0.89687950  0.87119450  0.50659400  1
  O  O73  1  0.10312050  0.87119450  0.49340600  1
  O  O74  1  0.12799000  0.85921800  0.98076800  1
  O  O75  1  0.63069750  0.85640450  0.28057400  1
  O  O76  1  0.63309350  0.64151250  0.48098500  1
  O  O77  1  0.13031750  0.63881650  0.77985700  1
  O  O78  1  0.60033500  0.13157300  0.20740700  1
  O  O79  1  0.89966500  0.63157300  0.79259300  1
