# generated using pymatgen
data_Mn2V3Ni(PO4)6
_symmetry_space_group_name_H-M   'P 1'
_cell_length_a   8.62278048
_cell_length_b   8.62278048
_cell_length_c   21.01715496
_cell_angle_alpha   90.00000000
_cell_angle_beta   90.00000000
_cell_angle_gamma   120.00000000
_symmetry_Int_Tables_number   1
_chemical_formula_structural   Mn2V3Ni(PO4)6
_chemical_formula_sum   'Mn6 V9 Ni3 P18 O72'
_cell_volume   1353.31600322
_cell_formula_units_Z   3
loop_
 _symmetry_equiv_pos_site_id
 _symmetry_equiv_pos_as_xyz
  1  'x, y, z'
loop_
 _atom_site_type_symbol
 _atom_site_label
 _atom_site_symmetry_multiplicity
 _atom_site_fract_x
 _atom_site_fract_y
 _atom_site_fract_z
 _atom_site_occupancy
  Mn  Mn0  1  0.33333333  0.66666667  0.66298667  1
  Mn  Mn1  1  0.33333333  0.66666667  0.16598067  1
  Mn  Mn2  1  0.00000000  0.00000000  0.99632000  1
  Mn  Mn3  1  0.00000000  0.00000000  0.49931400  1
  Mn  Mn4  1  0.66666667  0.33333333  0.32965333  1
  Mn  Mn5  1  0.66666667  0.33333333  0.83264733  1
  V  V6  1  0.33333333  0.66666667  0.02187067  1
  V  V7  1  0.33333333  0.66666667  0.80953367  1
  V  V8  1  0.33333333  0.66666667  0.31213867  1
  V  V9  1  0.00000000  0.00000000  0.35520400  1
  V  V10  1  0.00000000  0.00000000  0.14286700  1
  V  V11  1  0.00000000  0.00000000  0.64547200  1
  V  V12  1  0.66666667  0.33333333  0.68853733  1
  V  V13  1  0.66666667  0.33333333  0.47620033  1
  V  V14  1  0.66666667  0.33333333  0.97880533  1
  Ni  Ni15  1  0.33333333  0.66666667  0.52336567  1
  Ni  Ni16  1  0.00000000  0.00000000  0.85669900  1
  Ni  Ni17  1  0.66666667  0.33333333  0.19003233  1
  P  P18  1  0.66714700  0.62545600  0.08469800  1
  P  P19  1  0.95830900  0.33285300  0.08469800  1
  P  P20  1  0.37454400  0.04169100  0.08469800  1
  P  P21  1  0.29056700  0.29174600  0.25019600  1
  P  P22  1  0.70825400  0.99882100  0.25019600  1
  P  P23  1  0.00117900  0.70943300  0.25019600  1
  P  P24  1  0.33381367  0.95878933  0.41803133  1
  P  P25  1  0.62497567  0.66618633  0.41803133  1
  P  P26  1  0.04121067  0.37502433  0.41803133  1
  P  P27  1  0.95723367  0.62507933  0.58352933  1
  P  P28  1  0.37492067  0.33215433  0.58352933  1
  P  P29  1  0.66784567  0.04276633  0.58352933  1
  P  P30  1  0.00048033  0.29212267  0.75136467  1
  P  P31  1  0.29164233  0.99951967  0.75136467  1
  P  P32  1  0.70787733  0.70835767  0.75136467  1
  P  P33  1  0.62390033  0.95841267  0.91686267  1
  P  P34  1  0.04158733  0.66548767  0.91686267  1
  P  P35  1  0.33451233  0.37609967  0.91686267  1
  O  O36  1  0.52231033  0.66164267  0.35614667  1
  O  O37  1  0.13933233  0.47768967  0.35614667  1
  O  O38  1  0.33835733  0.86066767  0.35614667  1
  O  O39  1  0.83648967  0.81740933  0.07840833  1
  O  O40  1  0.65931333  0.53092467  0.14491267  1
  O  O41  1  0.50024900  0.65325700  0.08452400  1
  O  O42  1  0.98091967  0.16351033  0.07840833  1
  O  O43  1  0.15300800  0.49975100  0.08452400  1
  O  O44  1  0.18839300  0.19247100  0.18915800  1
  O  O45  1  0.34674300  0.84699200  0.08452400  1
  O  O46  1  0.47447500  0.30950400  0.25739200  1
  O  O47  1  0.80752900  0.99592200  0.18915800  1
  O  O48  1  0.87161133  0.34068667  0.14491267  1
  O  O49  1  0.18259067  0.01908033  0.07840833  1
  O  O50  1  0.30681067  0.48061633  0.24589333  1
  O  O51  1  0.46907533  0.12838867  0.14491267  1
  O  O52  1  0.51938367  0.82619433  0.24589333  1
  O  O53  1  0.69049600  0.16497100  0.25739200  1
  O  O54  1  0.17380567  0.69318933  0.24589333  1
  O  O55  1  0.00407800  0.81160700  0.18915800  1
  O  O56  1  0.83502900  0.52552500  0.25739200  1
  O  O57  1  0.34356333  0.48395567  0.97672067  1
  O  O58  1  0.51604433  0.85960767  0.97672067  1
  O  O59  1  0.14039233  0.65643667  0.97672067  1
  O  O60  1  0.18897700  0.99497600  0.68948000  1
  O  O61  1  0.80599900  0.81102300  0.68948000  1
  O  O62  1  0.00502400  0.19400100  0.68948000  1
  O  O63  1  0.50315633  0.15074267  0.41174167  1
  O  O64  1  0.32598000  0.86425800  0.47824600  1
  O  O65  1  0.16691567  0.98659033  0.41785733  1
  O  O66  1  0.64758633  0.49684367  0.41174167  1
  O  O67  1  0.81967467  0.83308433  0.41785733  1
  O  O68  1  0.85505967  0.52580433  0.52249133  1
  O  O69  1  0.01340967  0.18032533  0.41785733  1
  O  O70  1  0.14114167  0.64283733  0.59072533  1
  O  O71  1  0.47419567  0.32925533  0.52249133  1
  O  O72  1  0.53827800  0.67402000  0.47824600  1
  O  O73  1  0.84925733  0.35241367  0.41174167  1
  O  O74  1  0.97347733  0.81394967  0.57922667  1
  O  O75  1  0.13574200  0.46172200  0.47824600  1
  O  O76  1  0.18605033  0.15952767  0.57922667  1
  O  O77  1  0.35716267  0.49830433  0.59072533  1
  O  O78  1  0.84047233  0.02652267  0.57922667  1
  O  O79  1  0.67074467  0.14494033  0.52249133  1
  O  O80  1  0.50169567  0.85885833  0.59072533  1
  O  O81  1  0.01023000  0.81728900  0.31005400  1
  O  O82  1  0.18271100  0.19294100  0.31005400  1
  O  O83  1  0.80705900  0.98977000  0.31005400  1
  O  O84  1  0.85564367  0.32830933  0.02281333  1
  O  O85  1  0.47266567  0.14435633  0.02281333  1
  O  O86  1  0.67169067  0.52733433  0.02281333  1
  O  O87  1  0.16982300  0.48407600  0.74507500  1
  O  O88  1  0.99264667  0.19759133  0.81157933  1
  O  O89  1  0.83358233  0.31992367  0.75119067  1
  O  O90  1  0.31425300  0.83017700  0.74507500  1
  O  O91  1  0.48634133  0.16641767  0.75119067  1
  O  O92  1  0.52172633  0.85913767  0.85582467  1
  O  O93  1  0.68007633  0.51365867  0.75119067  1
  O  O94  1  0.80780833  0.97617067  0.92405867  1
  O  O95  1  0.14086233  0.66258867  0.85582467  1
  O  O96  1  0.20494467  0.00735333  0.81157933  1
  O  O97  1  0.51592400  0.68574700  0.74507500  1
  O  O98  1  0.64014400  0.14728300  0.91256000  1
  O  O99  1  0.80240867  0.79505533  0.81157933  1
  O  O100  1  0.85271700  0.49286100  0.91256000  1
  O  O101  1  0.02382933  0.83163767  0.92405867  1
  O  O102  1  0.50713900  0.35985600  0.91256000  1
  O  O103  1  0.33741133  0.47827367  0.85582467  1
  O  O104  1  0.16836233  0.19219167  0.92405867  1
  O  O105  1  0.67689667  0.15062233  0.64338733  1
  O  O106  1  0.84937767  0.52627433  0.64338733  1
  O  O107  1  0.47372567  0.32310333  0.64338733  1
