# generated using pymatgen
data_Ba3LiTi5Nb3O21
_symmetry_space_group_name_H-M   'P 1'
_cell_length_a   9.20039600
_cell_length_b   16.02870600
_cell_length_c   11.74593300
_cell_angle_alpha   90.00000000
_cell_angle_beta   90.00000000
_cell_angle_gamma   90.00000000
_symmetry_Int_Tables_number   1
_chemical_formula_structural   Ba3LiTi5Nb3O21
_chemical_formula_sum   'Ba12 Li4 Ti20 Nb12 O84'
_cell_volume   1732.17793788
_cell_formula_units_Z   4
loop_
 _symmetry_equiv_pos_site_id
 _symmetry_equiv_pos_as_xyz
  1  'x, y, z'
loop_
 _atom_site_type_symbol
 _atom_site_label
 _atom_site_symmetry_multiplicity
 _atom_site_fract_x
 _atom_site_fract_y
 _atom_site_fract_z
 _atom_site_occupancy
  Ba  Ba0  1  0.29918050  0.29594350  0.75012700  1
  Ba  Ba1  1  0.20081950  0.20405650  0.25012700  1
  Ba  Ba2  1  0.79918050  0.20405650  0.75012700  1
  Ba  Ba3  1  0.70081950  0.29594350  0.25012700  1
  Ba  Ba4  1  0.59720200  0.00000000  0.25122200  1
  Ba  Ba5  1  0.40279800  0.00000000  0.75122200  1
  Ba  Ba6  1  0.79918050  0.79594350  0.75012700  1
  Ba  Ba7  1  0.70081950  0.70405650  0.25012700  1
  Ba  Ba8  1  0.29918050  0.70405650  0.75012700  1
  Ba  Ba9  1  0.20081950  0.79594350  0.25012700  1
  Ba  Ba10  1  0.09720200  0.50000000  0.25122200  1
  Ba  Ba11  1  0.90279800  0.50000000  0.75122200  1
  Li  Li12  1  0.00522200  0.00000000  0.75405600  1
  Li  Li13  1  0.99477800  0.00000000  0.25405600  1
  Li  Li14  1  0.50522200  0.50000000  0.75405600  1
  Li  Li15  1  0.49477800  0.50000000  0.25405600  1
  Ti  Ti16  1  0.37431750  0.37426750  0.08939000  1
  Ti  Ti17  1  0.37936900  0.37469600  0.40668000  1
  Ti  Ti18  1  0.12568250  0.12573250  0.58939000  1
  Ti  Ti19  1  0.12063100  0.12530400  0.90668000  1
  Ti  Ti20  1  0.87936900  0.12530400  0.40668000  1
  Ti  Ti21  1  0.87431750  0.12573250  0.08939000  1
  Ti  Ti22  1  0.75192600  0.00000000  0.91554000  1
  Ti  Ti23  1  0.62568250  0.37426750  0.58939000  1
  Ti  Ti24  1  0.62063100  0.37469600  0.90668000  1
  Ti  Ti25  1  0.24807400  0.00000000  0.41554000  1
  Ti  Ti26  1  0.87431750  0.87426750  0.08939000  1
  Ti  Ti27  1  0.87936900  0.87469600  0.40668000  1
  Ti  Ti28  1  0.62568250  0.62573250  0.58939000  1
  Ti  Ti29  1  0.62063100  0.62530400  0.90668000  1
  Ti  Ti30  1  0.37936900  0.62530400  0.40668000  1
  Ti  Ti31  1  0.37431750  0.62573250  0.08939000  1
  Ti  Ti32  1  0.25192600  0.50000000  0.91554000  1
  Ti  Ti33  1  0.12568250  0.87426750  0.58939000  1
  Ti  Ti34  1  0.12063100  0.87469600  0.90668000  1
  Ti  Ti35  1  0.74807400  0.50000000  0.41554000  1
  Nb  Nb36  1  0.00145550  0.33205150  0.99723700  1
  Nb  Nb37  1  0.99854450  0.33205150  0.49723700  1
  Nb  Nb38  1  0.75408300  0.00000000  0.59074300  1
  Nb  Nb39  1  0.50145550  0.16794850  0.99723700  1
  Nb  Nb40  1  0.49854450  0.16794850  0.49723700  1
  Nb  Nb41  1  0.24591700  0.00000000  0.09074300  1
  Nb  Nb42  1  0.50145550  0.83205150  0.99723700  1
  Nb  Nb43  1  0.49854450  0.83205150  0.49723700  1
  Nb  Nb44  1  0.25408300  0.50000000  0.59074300  1
  Nb  Nb45  1  0.00145550  0.66794850  0.99723700  1
  Nb  Nb46  1  0.99854450  0.66794850  0.49723700  1
  Nb  Nb47  1  0.74591700  0.50000000  0.09074300  1
  O  O48  1  0.39963400  0.39827100  0.92682000  1
  O  O49  1  0.39701600  0.39816200  0.57363200  1
  O  O50  1  0.39952700  0.39806200  0.24936700  1
  O  O51  1  0.17644500  0.34289500  0.10094900  1
  O  O52  1  0.17707700  0.34411800  0.40135700  1
  O  O53  1  0.10047300  0.10193800  0.74936700  1
  O  O54  1  0.10036600  0.10172900  0.42682000  1
  O  O55  1  0.10298400  0.10183800  0.07363200  1
  O  O56  1  0.10376800  0.41672000  0.89974200  1
  O  O57  1  0.09938100  0.41568200  0.60384000  1
  O  O58  1  0.07249950  0.24102650  0.89589100  1
  O  O59  1  0.07166150  0.24018150  0.59974700  1
  O  O60  1  0.92833850  0.24018150  0.09974700  1
  O  O61  1  0.92750050  0.24102650  0.39589100  1
  O  O62  1  0.89623200  0.41672000  0.39974200  1
  O  O63  1  0.90061900  0.41568200  0.10384000  1
  O  O64  1  0.89963400  0.10172900  0.92682000  1
  O  O65  1  0.89701600  0.10183800  0.57363200  1
  O  O66  1  0.89952700  0.10193800  0.24936700  1
  O  O67  1  0.82292300  0.34411800  0.90135700  1
  O  O68  1  0.82355500  0.34289500  0.60094900  1
  O  O69  1  0.80002500  0.00000000  0.42253000  1
  O  O70  1  0.79637500  0.00000000  0.07425400  1
  O  O71  1  0.80321300  0.00000000  0.75210700  1
  O  O72  1  0.67644500  0.15710500  0.10094900  1
  O  O73  1  0.67707700  0.15588200  0.40135700  1
  O  O74  1  0.60047300  0.39806200  0.74936700  1
  O  O75  1  0.60036600  0.39827100  0.42682000  1
  O  O76  1  0.60298400  0.39816200  0.07363200  1
  O  O77  1  0.60376800  0.08328000  0.89974200  1
  O  O78  1  0.59938100  0.08431800  0.60384000  1
  O  O79  1  0.57166150  0.25981850  0.59974700  1
  O  O80  1  0.57249950  0.25897350  0.89589100  1
  O  O81  1  0.42750050  0.25897350  0.39589100  1
  O  O82  1  0.42833850  0.25981850  0.09974700  1
  O  O83  1  0.39623200  0.08328000  0.39974200  1
  O  O84  1  0.40061900  0.08431800  0.10384000  1
  O  O85  1  0.32355500  0.15710500  0.60094900  1
  O  O86  1  0.32292300  0.15588200  0.90135700  1
  O  O87  1  0.19678700  0.00000000  0.25210700  1
  O  O88  1  0.20362500  0.00000000  0.57425400  1
  O  O89  1  0.19997500  0.00000000  0.92253000  1
  O  O90  1  0.89963400  0.89827100  0.92682000  1
  O  O91  1  0.89701600  0.89816200  0.57363200  1
  O  O92  1  0.89952700  0.89806200  0.24936700  1
  O  O93  1  0.67644500  0.84289500  0.10094900  1
  O  O94  1  0.67707700  0.84411800  0.40135700  1
  O  O95  1  0.60047300  0.60193800  0.74936700  1
  O  O96  1  0.60036600  0.60172900  0.42682000  1
  O  O97  1  0.60298400  0.60183800  0.07363200  1
  O  O98  1  0.60376800  0.91672000  0.89974200  1
  O  O99  1  0.59938100  0.91568200  0.60384000  1
  O  O100  1  0.57249950  0.74102650  0.89589100  1
  O  O101  1  0.57166150  0.74018150  0.59974700  1
  O  O102  1  0.42833850  0.74018150  0.09974700  1
  O  O103  1  0.42750050  0.74102650  0.39589100  1
  O  O104  1  0.39623200  0.91672000  0.39974200  1
  O  O105  1  0.40061900  0.91568200  0.10384000  1
  O  O106  1  0.39963400  0.60172900  0.92682000  1
  O  O107  1  0.39701600  0.60183800  0.57363200  1
  O  O108  1  0.39952700  0.60193800  0.24936700  1
  O  O109  1  0.32292300  0.84411800  0.90135700  1
  O  O110  1  0.32355500  0.84289500  0.60094900  1
  O  O111  1  0.30002500  0.50000000  0.42253000  1
  O  O112  1  0.29637500  0.50000000  0.07425400  1
  O  O113  1  0.30321300  0.50000000  0.75210700  1
  O  O114  1  0.17644500  0.65710500  0.10094900  1
  O  O115  1  0.17707700  0.65588200  0.40135700  1
  O  O116  1  0.10047300  0.89806200  0.74936700  1
  O  O117  1  0.10036600  0.89827100  0.42682000  1
  O  O118  1  0.10298400  0.89816200  0.07363200  1
  O  O119  1  0.10376800  0.58328000  0.89974200  1
  O  O120  1  0.09938100  0.58431800  0.60384000  1
  O  O121  1  0.07166150  0.75981850  0.59974700  1
  O  O122  1  0.07249950  0.75897350  0.89589100  1
  O  O123  1  0.92750050  0.75897350  0.39589100  1
  O  O124  1  0.92833850  0.75981850  0.09974700  1
  O  O125  1  0.89623200  0.58328000  0.39974200  1
  O  O126  1  0.90061900  0.58431800  0.10384000  1
  O  O127  1  0.82355500  0.65710500  0.60094900  1
  O  O128  1  0.82292300  0.65588200  0.90135700  1
  O  O129  1  0.69678700  0.50000000  0.25210700  1
  O  O130  1  0.70362500  0.50000000  0.57425400  1
  O  O131  1  0.69997500  0.50000000  0.92253000  1
