# generated using pymatgen
data_ZrFeP3PbO12
_symmetry_space_group_name_H-M   'P 1'
_cell_length_a   8.78256380
_cell_length_b   8.78256380
_cell_length_c   23.57181861
_cell_angle_alpha   90.00000000
_cell_angle_beta   90.00000000
_cell_angle_gamma   120.00000000
_symmetry_Int_Tables_number   1
_chemical_formula_structural   ZrFeP3PbO12
_chemical_formula_sum   'Zr6 Fe6 P18 Pb6 O72'
_cell_volume   1574.58586633
_cell_formula_units_Z   6
loop_
 _symmetry_equiv_pos_site_id
 _symmetry_equiv_pos_as_xyz
  1  'x, y, z'
loop_
 _atom_site_type_symbol
 _atom_site_label
 _atom_site_symmetry_multiplicity
 _atom_site_fract_x
 _atom_site_fract_y
 _atom_site_fract_z
 _atom_site_occupancy
  Zr  Zr0  1  0.66666667  0.33333333  0.18725933  1
  Zr  Zr1  1  0.33333333  0.66666667  0.02059267  1
  Zr  Zr2  1  0.33333333  0.66666667  0.52059267  1
  Zr  Zr3  1  0.00000000  0.00000000  0.35392600  1
  Zr  Zr4  1  0.00000000  0.00000000  0.85392600  1
  Zr  Zr5  1  0.66666667  0.33333333  0.68725933  1
  Fe  Fe6  1  0.33333333  0.66666667  0.32012367  1
  Fe  Fe7  1  0.00000000  0.00000000  0.15345700  1
  Fe  Fe8  1  0.00000000  0.00000000  0.65345700  1
  Fe  Fe9  1  0.66666667  0.33333333  0.48679033  1
  Fe  Fe10  1  0.66666667  0.33333333  0.98679033  1
  Fe  Fe11  1  0.33333333  0.66666667  0.82012367  1
  P  P12  1  0.70761700  0.72257600  0.24845500  1
  P  P13  1  0.27742400  0.98504100  0.24845500  1
  P  P14  1  0.01495900  0.29238300  0.24845500  1
  P  P15  1  0.68162567  0.05590933  0.08178833  1
  P  P16  1  0.37428367  0.31837433  0.08178833  1
  P  P17  1  0.94409067  0.62571633  0.08178833  1
  P  P18  1  0.37428367  0.05590933  0.58178833  1
  P  P19  1  0.94409067  0.31837433  0.58178833  1
  P  P20  1  0.68162567  0.62571633  0.58178833  1
  P  P21  1  0.34829233  0.38924267  0.41512167  1
  P  P22  1  0.04095033  0.65170767  0.41512167  1
  P  P23  1  0.61075733  0.95904967  0.41512167  1
  P  P24  1  0.04095033  0.38924267  0.91512167  1
  P  P25  1  0.61075733  0.65170767  0.91512167  1
  P  P26  1  0.34829233  0.95904967  0.91512167  1
  P  P27  1  0.01495900  0.72257600  0.74845500  1
  P  P28  1  0.70761700  0.98504100  0.74845500  1
  P  P29  1  0.27742400  0.29238300  0.74845500  1
  Pb  Pb30  1  0.00000000  0.00000000  0.01252500  1
  Pb  Pb31  1  0.33333333  0.66666667  0.17919167  1
  Pb  Pb32  1  0.66666667  0.33333333  0.34585833  1
  Pb  Pb33  1  0.00000000  0.00000000  0.51252500  1
  Pb  Pb34  1  0.33333333  0.66666667  0.67919167  1
  Pb  Pb35  1  0.66666667  0.33333333  0.84585833  1
  O  O36  1  0.83014467  0.54512033  0.02890933  1
  O  O37  1  0.71497567  0.16985533  0.02890933  1
  O  O38  1  0.45487967  0.28502433  0.02890933  1
  O  O39  1  0.68194233  0.53540267  0.23976167  1
  O  O40  1  0.52466000  0.70789700  0.25709200  1
  O  O41  1  0.78821300  0.83652200  0.19557600  1
  O  O42  1  0.46459733  0.14653967  0.23976167  1
  O  O43  1  0.29210300  0.81676300  0.25709200  1
  O  O44  1  0.18323700  0.47534000  0.25709200  1
  O  O45  1  0.64632700  0.13186800  0.13581300  1
  O  O46  1  0.84990367  0.04123033  0.09042533  1
  O  O47  1  0.48554100  0.35367300  0.13581300  1
  O  O48  1  0.16347800  0.95169100  0.19557600  1
  O  O49  1  0.85346033  0.31805767  0.23976167  1
  O  O50  1  0.04830900  0.21178700  0.19557600  1
  O  O51  1  0.52012700  0.86873600  0.07309500  1
  O  O52  1  0.34860900  0.47987300  0.07309500  1
  O  O53  1  0.19132667  0.15009633  0.09042533  1
  O  O54  1  0.86813200  0.51445900  0.13581300  1
  O  O55  1  0.13126400  0.65139100  0.07309500  1
  O  O56  1  0.95876967  0.80867333  0.09042533  1
  O  O57  1  0.20146533  0.02033967  0.30247967  1
  O  O58  1  0.97966033  0.18112567  0.30247967  1
  O  O59  1  0.81887433  0.79853467  0.30247967  1
  O  O60  1  0.49681133  0.87845367  0.36224267  1
  O  O61  1  0.38164233  0.50318867  0.36224267  1
  O  O62  1  0.12154633  0.61835767  0.36224267  1
  O  O63  1  0.34860900  0.86873600  0.57309500  1
  O  O64  1  0.19132667  0.04123033  0.59042533  1
  O  O65  1  0.45487967  0.16985533  0.52890933  1
  O  O66  1  0.13126400  0.47987300  0.57309500  1
  O  O67  1  0.95876967  0.15009633  0.59042533  1
  O  O68  1  0.84990367  0.80867333  0.59042533  1
  O  O69  1  0.31299367  0.46520133  0.46914633  1
  O  O70  1  0.51657033  0.37456367  0.42375867  1
  O  O71  1  0.15220767  0.68700633  0.46914633  1
  O  O72  1  0.83014467  0.28502433  0.52890933  1
  O  O73  1  0.52012700  0.65139100  0.57309500  1
  O  O74  1  0.71497567  0.54512033  0.52890933  1
  O  O75  1  0.18679367  0.20206933  0.40642833  1
  O  O76  1  0.01527567  0.81320633  0.40642833  1
  O  O77  1  0.85799333  0.48342967  0.42375867  1
  O  O78  1  0.53479867  0.84779233  0.46914633  1
  O  O79  1  0.79793067  0.98472433  0.40642833  1
  O  O80  1  0.62543633  0.14200667  0.42375867  1
  O  O81  1  0.86813200  0.35367300  0.63581300  1
  O  O82  1  0.64632700  0.51445900  0.63581300  1
  O  O83  1  0.48554100  0.13186800  0.63581300  1
  O  O84  1  0.16347800  0.21178700  0.69557600  1
  O  O85  1  0.04830900  0.83652200  0.69557600  1
  O  O86  1  0.78821300  0.95169100  0.69557600  1
  O  O87  1  0.01527567  0.20206933  0.90642833  1
  O  O88  1  0.85799333  0.37456367  0.92375867  1
  O  O89  1  0.12154633  0.50318867  0.86224267  1
  O  O90  1  0.79793067  0.81320633  0.90642833  1
  O  O91  1  0.62543633  0.48342967  0.92375867  1
  O  O92  1  0.51657033  0.14200667  0.92375867  1
  O  O93  1  0.97966033  0.79853467  0.80247967  1
  O  O94  1  0.18323700  0.70789700  0.75709200  1
  O  O95  1  0.81887433  0.02033967  0.80247967  1
  O  O96  1  0.49681133  0.61835767  0.86224267  1
  O  O97  1  0.18679367  0.98472433  0.90642833  1
  O  O98  1  0.38164233  0.87845367  0.86224267  1
  O  O99  1  0.85346033  0.53540267  0.73976167  1
  O  O100  1  0.68194233  0.14653967  0.73976167  1
  O  O101  1  0.52466000  0.81676300  0.75709200  1
  O  O102  1  0.20146533  0.18112567  0.80247967  1
  O  O103  1  0.46459733  0.31805767  0.73976167  1
  O  O104  1  0.29210300  0.47534000  0.75709200  1
  O  O105  1  0.53479867  0.68700633  0.96914633  1
  O  O106  1  0.31299367  0.84779233  0.96914633  1
  O  O107  1  0.15220767  0.46520133  0.96914633  1
