# generated using pymatgen
data_Na2FePCO7
_symmetry_space_group_name_H-M   'P 1'
_cell_length_a   6.53243000
_cell_length_b   8.95342780
_cell_length_c   10.48296165
_cell_angle_alpha   90.44921234
_cell_angle_beta   90.19840204
_cell_angle_gamma   90.71430973
_symmetry_Int_Tables_number   1
_chemical_formula_structural   Na2FePCO7
_chemical_formula_sum   'Na8 Fe4 P4 C4 O28'
_cell_volume   613.05331364
_cell_formula_units_Z   4
loop_
 _symmetry_equiv_pos_site_id
 _symmetry_equiv_pos_as_xyz
  1  'x, y, z'
loop_
 _atom_site_type_symbol
 _atom_site_label
 _atom_site_symmetry_multiplicity
 _atom_site_fract_x
 _atom_site_fract_y
 _atom_site_fract_z
 _atom_site_occupancy
  Na  Na0  1  0.74060500  0.91830900  0.38121000  1
  Na  Na1  1  0.73782100  0.91864900  0.88228600  1
  Na  Na2  1  0.98613100  0.73620500  0.12666500  1
  Na  Na3  1  0.51502900  0.73612100  0.62746500  1
  Na  Na4  1  0.01126200  0.26314400  0.37378400  1
  Na  Na5  1  0.01156900  0.26343000  0.87573600  1
  Na  Na6  1  0.27770700  0.08078400  0.11860600  1
  Na  Na7  1  0.25959300  0.08167000  0.61830800  1
  Fe  Fe8  1  0.24687100  0.65464300  0.39189700  1
  Fe  Fe9  1  0.25355400  0.65462300  0.89204800  1
  Fe  Fe10  1  0.73507800  0.34535900  0.10771800  1
  Fe  Fe11  1  0.73810800  0.34522800  0.60779600  1
  P  P12  1  0.74956700  0.57519400  0.35482400  1
  P  P13  1  0.75181800  0.57509300  0.85460600  1
  P  P14  1  0.24501900  0.42471600  0.14502300  1
  P  P15  1  0.24666100  0.42456800  0.64501400  1
  C  C16  1  0.24881100  0.93525200  0.36513900  1
  C  C17  1  0.24398000  0.93562100  0.86482100  1
  C  C18  1  0.76158400  0.06502400  0.13494500  1
  C  C19  1  0.75406300  0.06490700  0.63510200  1
  O  O20  1  0.76757500  0.92479600  0.14878100  1
  O  O21  1  0.74072000  0.92493300  0.64902400  1
  O  O22  1  0.27260700  0.87276800  0.47737500  1
  O  O23  1  0.23628600  0.87236100  0.97785300  1
  O  O24  1  0.24338800  0.84187600  0.26812600  1
  O  O25  1  0.26615200  0.84245300  0.76867400  1
  O  O26  1  0.93818400  0.68041600  0.37669200  1
  O  O27  1  0.56121000  0.67045400  0.39028200  1
  O  O28  1  0.93789600  0.67752400  0.88933700  1
  O  O29  1  0.56075300  0.67332600  0.87756700  1
  O  O30  1  0.24285900  0.56866300  0.06479700  1
  O  O31  1  0.25701600  0.56838200  0.56470200  1
  O  O32  1  0.74888400  0.52952600  0.21100500  1
  O  O33  1  0.75203100  0.52978700  0.71083900  1
  O  O34  1  0.23540000  0.46966300  0.28881500  1
  O  O35  1  0.23533600  0.46981000  0.78874900  1
  O  O36  1  0.76124300  0.43202100  0.43563100  1
  O  O37  1  0.75408100  0.43152800  0.93539100  1
  O  O38  1  0.43400500  0.32696900  0.11803600  1
  O  O39  1  0.05760500  0.32167400  0.11360200  1
  O  O40  1  0.43527600  0.32447800  0.62039800  1
  O  O41  1  0.05861000  0.32414300  0.61131800  1
  O  O42  1  0.75424200  0.15854300  0.23188000  1
  O  O43  1  0.75930000  0.15877700  0.73200000  1
  O  O44  1  0.75569400  0.12792800  0.02182000  1
  O  O45  1  0.75868400  0.12781600  0.52186200  1
  O  O46  1  0.23262200  0.07542700  0.35204800  1
  O  O47  1  0.23243800  0.07541500  0.85040800  1
