# generated using pymatgen
data_Bi5O7F
_symmetry_space_group_name_H-M   'P 1'
_cell_length_a   5.27617200
_cell_length_b   16.01381000
_cell_length_c   23.98763600
_cell_angle_alpha   90.00000000
_cell_angle_beta   90.00000000
_cell_angle_gamma   90.00000000
_symmetry_Int_Tables_number   1
_chemical_formula_structural   Bi5O7F
_chemical_formula_sum   'Bi40 O56 F8'
_cell_volume   2026.75412811
_cell_formula_units_Z   8
loop_
 _symmetry_equiv_pos_site_id
 _symmetry_equiv_pos_as_xyz
  1  'x, y, z'
loop_
 _atom_site_type_symbol
 _atom_site_label
 _atom_site_symmetry_multiplicity
 _atom_site_fract_x
 _atom_site_fract_y
 _atom_site_fract_z
 _atom_site_occupancy
  Bi  Bi0  1  0.01097900  0.57992900  0.80743700  1
  Bi  Bi1  1  0.51097900  0.57992900  0.69256300  1
  Bi  Bi2  1  0.51097900  0.42007100  0.80743700  1
  Bi  Bi3  1  0.01097900  0.42007100  0.69256300  1
  Bi  Bi4  1  0.96814650  0.42066650  0.93641450  1
  Bi  Bi5  1  0.53185350  0.42066650  0.06358550  1
  Bi  Bi6  1  0.53185350  0.92066650  0.93641450  1
  Bi  Bi7  1  0.96814650  0.92066650  0.06358550  1
  Bi  Bi8  1  0.00000000  0.75000000  0.19858100  1
  Bi  Bi9  1  0.50000000  0.75000000  0.80141900  1
  Bi  Bi10  1  0.50000000  0.25000000  0.19858100  1
  Bi  Bi11  1  0.00000000  0.25000000  0.80141900  1
  Bi  Bi12  1  0.03185350  0.07933350  0.93641450  1
  Bi  Bi13  1  0.46814650  0.07933350  0.06358550  1
  Bi  Bi14  1  0.03185350  0.57933350  0.06358550  1
  Bi  Bi15  1  0.46814650  0.57933350  0.93641450  1
  Bi  Bi16  1  0.98902100  0.57992900  0.30743700  1
  Bi  Bi17  1  0.48902100  0.57992900  0.19256300  1
  Bi  Bi18  1  0.48902100  0.42007100  0.30743700  1
  Bi  Bi19  1  0.98902100  0.42007100  0.19256300  1
  Bi  Bi20  1  0.51097900  0.07992900  0.30743700  1
  Bi  Bi21  1  0.01097900  0.07992900  0.19256300  1
  Bi  Bi22  1  0.01097900  0.92007100  0.30743700  1
  Bi  Bi23  1  0.51097900  0.92007100  0.19256300  1
  Bi  Bi24  1  0.46814650  0.92066650  0.43641450  1
  Bi  Bi25  1  0.03185350  0.92066650  0.56358550  1
  Bi  Bi26  1  0.03185350  0.42066650  0.43641450  1
  Bi  Bi27  1  0.46814650  0.42066650  0.56358550  1
  Bi  Bi28  1  0.50000000  0.25000000  0.69858100  1
  Bi  Bi29  1  0.00000000  0.25000000  0.30141900  1
  Bi  Bi30  1  0.00000000  0.75000000  0.69858100  1
  Bi  Bi31  1  0.50000000  0.75000000  0.30141900  1
  Bi  Bi32  1  0.53185350  0.57933350  0.43641450  1
  Bi  Bi33  1  0.96814650  0.57933350  0.56358550  1
  Bi  Bi34  1  0.53185350  0.07933350  0.56358550  1
  Bi  Bi35  1  0.96814650  0.07933350  0.43641450  1
  Bi  Bi36  1  0.48902100  0.07992900  0.80743700  1
  Bi  Bi37  1  0.98902100  0.07992900  0.69256300  1
  Bi  Bi38  1  0.98902100  0.92007100  0.80743700  1
  Bi  Bi39  1  0.48902100  0.92007100  0.69256300  1
  O  O40  1  0.24608550  0.66677550  0.75076650  1
  O  O41  1  0.74608550  0.66677550  0.74923350  1
  O  O42  1  0.94780100  0.56888200  0.65074300  1
  O  O43  1  0.44780100  0.56888200  0.84925700  1
  O  O44  1  0.07222550  0.54918150  0.94806550  1
  O  O45  1  0.57222550  0.54918150  0.55193450  1
  O  O46  1  0.73902300  0.50000000  0.75000000  1
  O  O47  1  0.23902300  0.50000000  0.75000000  1
  O  O48  1  0.57222550  0.45081850  0.94806550  1
  O  O49  1  0.07222550  0.45081850  0.55193450  1
  O  O50  1  0.44780100  0.43111800  0.65074300  1
  O  O51  1  0.94780100  0.43111800  0.84925700  1
  O  O52  1  0.74608550  0.33322450  0.75076650  1
  O  O53  1  0.24608550  0.33322450  0.74923350  1
  O  O54  1  0.75391450  0.66677550  0.25076650  1
  O  O55  1  0.25391450  0.66677550  0.24923350  1
  O  O56  1  0.55219900  0.56888200  0.34925700  1
  O  O57  1  0.05219900  0.56888200  0.15074300  1
  O  O58  1  0.92777450  0.54918150  0.44806550  1
  O  O59  1  0.42777450  0.54918150  0.05193450  1
  O  O60  1  0.76097700  0.50000000  0.25000000  1
  O  O61  1  0.26097700  0.50000000  0.25000000  1
  O  O62  1  0.42777450  0.45081850  0.44806550  1
  O  O63  1  0.92777450  0.45081850  0.05193450  1
  O  O64  1  0.55219900  0.43111800  0.15074300  1
  O  O65  1  0.05219900  0.43111800  0.34925700  1
  O  O66  1  0.75391450  0.33322450  0.24923350  1
  O  O67  1  0.25391450  0.33322450  0.25076650  1
  O  O68  1  0.74608550  0.16677550  0.25076650  1
  O  O69  1  0.24608550  0.16677550  0.24923350  1
  O  O70  1  0.44780100  0.06888200  0.15074300  1
  O  O71  1  0.94780100  0.06888200  0.34925700  1
  O  O72  1  0.57222550  0.04918150  0.44806550  1
  O  O73  1  0.07222550  0.04918150  0.05193450  1
  O  O74  1  0.23902300  0.00000000  0.25000000  1
  O  O75  1  0.73902300  0.00000000  0.25000000  1
  O  O76  1  0.07222550  0.95081850  0.44806550  1
  O  O77  1  0.57222550  0.95081850  0.05193450  1
  O  O78  1  0.94780100  0.93111800  0.15074300  1
  O  O79  1  0.44780100  0.93111800  0.34925700  1
  O  O80  1  0.24608550  0.83322450  0.25076650  1
  O  O81  1  0.74608550  0.83322450  0.24923350  1
  O  O82  1  0.25391450  0.16677550  0.75076650  1
  O  O83  1  0.75391450  0.16677550  0.74923350  1
  O  O84  1  0.05219900  0.06888200  0.84925700  1
  O  O85  1  0.55219900  0.06888200  0.65074300  1
  O  O86  1  0.42777450  0.04918150  0.94806550  1
  O  O87  1  0.92777450  0.04918150  0.55193450  1
  O  O88  1  0.26097700  0.00000000  0.75000000  1
  O  O89  1  0.76097700  0.00000000  0.75000000  1
  O  O90  1  0.92777450  0.95081850  0.94806550  1
  O  O91  1  0.42777450  0.95081850  0.55193450  1
  O  O92  1  0.05219900  0.93111800  0.65074300  1
  O  O93  1  0.55219900  0.93111800  0.84925700  1
  O  O94  1  0.25391450  0.83322450  0.74923350  1
  O  O95  1  0.75391450  0.83322450  0.75076650  1
  F  F96  1  0.50000000  0.75000000  0.15305900  1
  F  F97  1  0.50000000  0.25000000  0.84694100  1
  F  F98  1  0.00000000  0.25000000  0.15305900  1
  F  F99  1  0.00000000  0.75000000  0.84694100  1
  F  F100  1  0.00000000  0.25000000  0.65305900  1
  F  F101  1  0.00000000  0.75000000  0.34694100  1
  F  F102  1  0.50000000  0.75000000  0.65305900  1
  F  F103  1  0.50000000  0.25000000  0.34694100  1
