# generated using pymatgen
data_Sr4Hf3O10
_symmetry_space_group_name_H-M   'P 1'
_cell_length_a   5.81039000
_cell_length_b   29.53940200
_cell_length_c   5.80236000
_cell_angle_alpha   90.00000000
_cell_angle_beta   90.00000000
_cell_angle_gamma   90.00000000
_symmetry_Int_Tables_number   1
_chemical_formula_structural   Sr4Hf3O10
_chemical_formula_sum   'Sr16 Hf12 O40'
_cell_volume   995.89064638
_cell_formula_units_Z   4
loop_
 _symmetry_equiv_pos_site_id
 _symmetry_equiv_pos_as_xyz
  1  'x, y, z'
loop_
 _atom_site_type_symbol
 _atom_site_label
 _atom_site_symmetry_multiplicity
 _atom_site_fract_x
 _atom_site_fract_y
 _atom_site_fract_z
 _atom_site_occupancy
  Sr  Sr0  1  0.50000000  0.06997200  0.00000000  1
  Sr  Sr1  1  0.00000000  0.29495800  0.00000000  1
  Sr  Sr2  1  0.50000000  0.20504200  0.00000000  1
  Sr  Sr3  1  0.00000000  0.43002800  0.00000000  1
  Sr  Sr4  1  0.50000000  0.29495800  0.50000000  1
  Sr  Sr5  1  0.00000000  0.06997200  0.50000000  1
  Sr  Sr6  1  0.00000000  0.20504200  0.50000000  1
  Sr  Sr7  1  0.50000000  0.43002800  0.50000000  1
  Sr  Sr8  1  0.00000000  0.56997200  0.00000000  1
  Sr  Sr9  1  0.50000000  0.79495800  0.00000000  1
  Sr  Sr10  1  0.00000000  0.70504200  0.00000000  1
  Sr  Sr11  1  0.50000000  0.93002800  0.00000000  1
  Sr  Sr12  1  0.00000000  0.79495800  0.50000000  1
  Sr  Sr13  1  0.50000000  0.56997200  0.50000000  1
  Sr  Sr14  1  0.50000000  0.70504200  0.50000000  1
  Sr  Sr15  1  0.00000000  0.93002800  0.50000000  1
  Hf  Hf16  1  0.00000000  0.00000000  0.00000000  1
  Hf  Hf17  1  0.00000000  0.14163800  0.00000000  1
  Hf  Hf18  1  0.50000000  0.35836200  0.00000000  1
  Hf  Hf19  1  0.00000000  0.35836200  0.50000000  1
  Hf  Hf20  1  0.50000000  0.00000000  0.50000000  1
  Hf  Hf21  1  0.50000000  0.14163800  0.50000000  1
  Hf  Hf22  1  0.50000000  0.50000000  0.00000000  1
  Hf  Hf23  1  0.50000000  0.64163800  0.00000000  1
  Hf  Hf24  1  0.00000000  0.85836200  0.00000000  1
  Hf  Hf25  1  0.50000000  0.85836200  0.50000000  1
  Hf  Hf26  1  0.00000000  0.50000000  0.50000000  1
  Hf  Hf27  1  0.00000000  0.64163800  0.50000000  1
  O  O28  1  0.00000000  0.07026500  0.00000000  1
  O  O29  1  0.00000000  0.21212800  0.00000000  1
  O  O30  1  0.50000000  0.28787200  0.00000000  1
  O  O31  1  0.50000000  0.42973500  0.00000000  1
  O  O32  1  0.69745700  0.00000000  0.80261300  1
  O  O33  1  0.78488800  0.35962100  0.78505600  1
  O  O34  1  0.28488800  0.14037900  0.78505600  1
  O  O35  1  0.78488800  0.14037900  0.71494400  1
  O  O36  1  0.28488800  0.35962100  0.71494400  1
  O  O37  1  0.19745700  0.00000000  0.69738700  1
  O  O38  1  0.50000000  0.07026500  0.50000000  1
  O  O39  1  0.00000000  0.28787200  0.50000000  1
  O  O40  1  0.50000000  0.21212800  0.50000000  1
  O  O41  1  0.00000000  0.42973500  0.50000000  1
  O  O42  1  0.80254300  0.00000000  0.30261300  1
  O  O43  1  0.21511200  0.14037900  0.28505600  1
  O  O44  1  0.71511200  0.35962100  0.28505600  1
  O  O45  1  0.71511200  0.14037900  0.21494400  1
  O  O46  1  0.21511200  0.35962100  0.21494400  1
  O  O47  1  0.30254300  0.00000000  0.19738700  1
  O  O48  1  0.50000000  0.57026500  0.00000000  1
  O  O49  1  0.50000000  0.71212800  0.00000000  1
  O  O50  1  0.00000000  0.78787200  0.00000000  1
  O  O51  1  0.00000000  0.92973500  0.00000000  1
  O  O52  1  0.19745700  0.50000000  0.80261300  1
  O  O53  1  0.28488800  0.85962100  0.78505600  1
  O  O54  1  0.78488800  0.64037900  0.78505600  1
  O  O55  1  0.28488800  0.64037900  0.71494400  1
  O  O56  1  0.78488800  0.85962100  0.71494400  1
  O  O57  1  0.69745700  0.50000000  0.69738700  1
  O  O58  1  0.00000000  0.57026500  0.50000000  1
  O  O59  1  0.50000000  0.78787200  0.50000000  1
  O  O60  1  0.00000000  0.71212800  0.50000000  1
  O  O61  1  0.50000000  0.92973500  0.50000000  1
  O  O62  1  0.30254300  0.50000000  0.30261300  1
  O  O63  1  0.71511200  0.64037900  0.28505600  1
  O  O64  1  0.21511200  0.85962100  0.28505600  1
  O  O65  1  0.21511200  0.64037900  0.21494400  1
  O  O66  1  0.71511200  0.85962100  0.21494400  1
  O  O67  1  0.80254300  0.50000000  0.19738700  1
