# generated using pymatgen
data_Na3(NiO2)2
_symmetry_space_group_name_H-M   'P 1'
_cell_length_a   5.65012400
_cell_length_b   7.97262600
_cell_length_c   10.48284900
_cell_angle_alpha   90.00000000
_cell_angle_beta   90.00000000
_cell_angle_gamma   90.00000000
_symmetry_Int_Tables_number   1
_chemical_formula_structural   Na3(NiO2)2
_chemical_formula_sum   'Na12 Ni8 O16'
_cell_volume   472.21382828
_cell_formula_units_Z   4
loop_
 _symmetry_equiv_pos_site_id
 _symmetry_equiv_pos_as_xyz
  1  'x, y, z'
loop_
 _atom_site_type_symbol
 _atom_site_label
 _atom_site_symmetry_multiplicity
 _atom_site_fract_x
 _atom_site_fract_y
 _atom_site_fract_z
 _atom_site_occupancy
  Na  Na0  1  0.50000000  0.85126700  0.06474800  1
  Na  Na1  1  0.50000000  0.85126700  0.43525200  1
  Na  Na2  1  0.50000000  0.14873300  0.56474800  1
  Na  Na3  1  0.50000000  0.18584300  0.25000000  1
  Na  Na4  1  0.50000000  0.81415700  0.75000000  1
  Na  Na5  1  0.50000000  0.14873300  0.93525200  1
  Na  Na6  1  0.00000000  0.35126700  0.06474800  1
  Na  Na7  1  0.00000000  0.35126700  0.43525200  1
  Na  Na8  1  0.00000000  0.64873300  0.56474800  1
  Na  Na9  1  0.00000000  0.68584300  0.25000000  1
  Na  Na10  1  0.00000000  0.31415700  0.75000000  1
  Na  Na11  1  0.00000000  0.64873300  0.93525200  1
  Ni  Ni12  1  0.00000000  0.00000000  0.00000000  1
  Ni  Ni13  1  0.50000000  0.57185900  0.25000000  1
  Ni  Ni14  1  0.00000000  0.00000000  0.50000000  1
  Ni  Ni15  1  0.50000000  0.42814100  0.75000000  1
  Ni  Ni16  1  0.50000000  0.50000000  0.00000000  1
  Ni  Ni17  1  0.00000000  0.07185900  0.25000000  1
  Ni  Ni18  1  0.50000000  0.50000000  0.50000000  1
  Ni  Ni19  1  0.00000000  0.92814100  0.75000000  1
  O  O20  1  0.21809150  0.07820450  0.11937400  1
  O  O21  1  0.21809150  0.07820450  0.38062600  1
  O  O22  1  0.21809150  0.92179550  0.88062600  1
  O  O23  1  0.21809150  0.92179550  0.61937400  1
  O  O24  1  0.78190850  0.07820450  0.38062600  1
  O  O25  1  0.78190850  0.07820450  0.11937400  1
  O  O26  1  0.78190850  0.92179550  0.61937400  1
  O  O27  1  0.78190850  0.92179550  0.88062600  1
  O  O28  1  0.71809150  0.57820450  0.11937400  1
  O  O29  1  0.71809150  0.57820450  0.38062600  1
  O  O30  1  0.71809150  0.42179550  0.88062600  1
  O  O31  1  0.71809150  0.42179550  0.61937400  1
  O  O32  1  0.28190850  0.57820450  0.38062600  1
  O  O33  1  0.28190850  0.57820450  0.11937400  1
  O  O34  1  0.28190850  0.42179550  0.61937400  1
  O  O35  1  0.28190850  0.42179550  0.88062600  1
