# generated using pymatgen
data_Ba2YCl7
_symmetry_space_group_name_H-M   'P 1'
_cell_length_a   16.64888000
_cell_length_b   8.18549600
_cell_length_c   10.39104952
_cell_angle_alpha   90.00000000
_cell_angle_beta   128.13839840
_cell_angle_gamma   90.00000000
_symmetry_Int_Tables_number   1
_chemical_formula_structural   Ba2YCl7
_chemical_formula_sum   'Ba8 Y4 Cl28'
_cell_volume   1113.78134219
_cell_formula_units_Z   4
loop_
 _symmetry_equiv_pos_site_id
 _symmetry_equiv_pos_as_xyz
  1  'x, y, z'
loop_
 _atom_site_type_symbol
 _atom_site_label
 _atom_site_symmetry_multiplicity
 _atom_site_fract_x
 _atom_site_fract_y
 _atom_site_fract_z
 _atom_site_occupancy
  Ba  Ba0  1  0.81136600  0.49159100  0.71853200  1
  Ba  Ba1  1  0.31136600  0.00840900  0.21853200  1
  Ba  Ba2  1  0.68863400  0.99159100  0.78146800  1
  Ba  Ba3  1  0.18863400  0.50840900  0.28146800  1
  Ba  Ba4  1  0.31136600  0.99159100  0.71853200  1
  Ba  Ba5  1  0.81136600  0.50840900  0.21853200  1
  Ba  Ba6  1  0.18863400  0.49159100  0.78146800  1
  Ba  Ba7  1  0.68863400  0.00840900  0.28146800  1
  Y  Y8  1  0.50000000  0.46616200  0.75000000  1
  Y  Y9  1  0.50000000  0.53383800  0.25000000  1
  Y  Y10  1  0.00000000  0.96616200  0.75000000  1
  Y  Y11  1  0.00000000  0.03383800  0.25000000  1
  Cl  Cl12  1  0.68955900  0.37896000  0.84867200  1
  Cl  Cl13  1  0.18955900  0.12104000  0.34867200  1
  Cl  Cl14  1  0.91232100  0.15317200  0.93698200  1
  Cl  Cl15  1  0.37557250  0.73278750  0.55246300  1
  Cl  Cl16  1  0.50000000  0.11158200  0.75000000  1
  Cl  Cl17  1  0.41232100  0.34682800  0.43698200  1
  Cl  Cl18  1  0.62442750  0.73278750  0.94753700  1
  Cl  Cl19  1  0.37557250  0.26721250  0.05246300  1
  Cl  Cl20  1  0.58767900  0.65317200  0.56301800  1
  Cl  Cl21  1  0.50000000  0.88841800  0.25000000  1
  Cl  Cl22  1  0.62442750  0.26721250  0.44753700  1
  Cl  Cl23  1  0.08767900  0.84682800  0.06301800  1
  Cl  Cl24  1  0.81044100  0.87896000  0.65132800  1
  Cl  Cl25  1  0.31044100  0.62104000  0.15132800  1
  Cl  Cl26  1  0.18955900  0.87896000  0.84867200  1
  Cl  Cl27  1  0.68955900  0.62104000  0.34867200  1
  Cl  Cl28  1  0.41232100  0.65317200  0.93698200  1
  Cl  Cl29  1  0.87557250  0.23278750  0.55246300  1
  Cl  Cl30  1  0.00000000  0.61158200  0.75000000  1
  Cl  Cl31  1  0.91232100  0.84682800  0.43698200  1
  Cl  Cl32  1  0.12442750  0.23278750  0.94753700  1
  Cl  Cl33  1  0.87557250  0.76721250  0.05246300  1
  Cl  Cl34  1  0.08767900  0.15317200  0.56301800  1
  Cl  Cl35  1  0.00000000  0.38841800  0.25000000  1
  Cl  Cl36  1  0.12442750  0.76721250  0.44753700  1
  Cl  Cl37  1  0.58767900  0.34682800  0.06301800  1
  Cl  Cl38  1  0.31044100  0.37896000  0.65132800  1
  Cl  Cl39  1  0.81044100  0.12104000  0.15132800  1
