# generated using pymatgen
data_Na4Al3Si3ClO16
_symmetry_space_group_name_H-M   'P 1'
_cell_length_a   9.19587500
_cell_length_b   9.13087300
_cell_length_c   9.20327670
_cell_angle_alpha   90.00000000
_cell_angle_beta   90.06914136
_cell_angle_gamma   90.00000000
_symmetry_Int_Tables_number   1
_chemical_formula_structural   Na4Al3Si3ClO16
_chemical_formula_sum   'Na8 Al6 Si6 Cl2 O32'
_cell_volume   772.76514411
_cell_formula_units_Z   2
loop_
 _symmetry_equiv_pos_site_id
 _symmetry_equiv_pos_as_xyz
  1  'x, y, z'
loop_
 _atom_site_type_symbol
 _atom_site_label
 _atom_site_symmetry_multiplicity
 _atom_site_fract_x
 _atom_site_fract_y
 _atom_site_fract_z
 _atom_site_occupancy
  Na  Na0  1  0.21691600  0.21036800  0.21781300  1
  Na  Na1  1  0.78308400  0.21036800  0.78218700  1
  Na  Na2  1  0.28843700  0.28712500  0.71321600  1
  Na  Na3  1  0.71156300  0.28712500  0.28678400  1
  Na  Na4  1  0.71696100  0.71629300  0.71698000  1
  Na  Na5  1  0.28303900  0.71629300  0.28302000  1
  Na  Na6  1  0.21184200  0.78876400  0.78367900  1
  Na  Na7  1  0.78815800  0.78876400  0.21632100  1
  Al  Al8  1  0.49963900  0.99945800  0.74959500  1
  Al  Al9  1  0.00000000  0.24930000  0.50000000  1
  Al  Al10  1  0.24969600  0.49909700  0.00054600  1
  Al  Al11  1  0.75030400  0.49909700  0.99945400  1
  Al  Al12  1  0.00000000  0.75021300  0.50000000  1
  Al  Al13  1  0.50036100  0.99945800  0.25040500  1
  Si  Si14  1  0.74907400  0.00022300  0.50124200  1
  Si  Si15  1  0.25092600  0.00022300  0.49875800  1
  Si  Si16  1  0.50000000  0.24866300  0.00000000  1
  Si  Si17  1  0.99926600  0.49945200  0.24964600  1
  Si  Si18  1  0.00073400  0.49945200  0.75035400  1
  Si  Si19  1  0.50000000  0.74934000  0.00000000  1
  Cl  Cl20  1  0.00000000  0.01503400  0.00000000  1
  Cl  Cl21  1  0.50000000  0.51513700  0.50000000  1
  O  O22  1  0.64854200  0.04555000  0.36125400  1
  O  O23  1  0.35145800  0.04555000  0.63874600  1
  O  O24  1  0.84491200  0.14614100  0.54440800  1
  O  O25  1  0.15508800  0.14614100  0.45559200  1
  O  O26  1  0.54491700  0.15098100  0.85798300  1
  O  O27  1  0.45508300  0.15098100  0.14201700  1
  O  O28  1  0.35509700  0.34437600  0.95712400  1
  O  O29  1  0.64490300  0.34437600  0.04287600  1
  O  O30  1  0.04463400  0.35589700  0.65289400  1
  O  O31  1  0.95536600  0.35589700  0.34710600  1
  O  O32  1  0.50086100  0.42336400  0.63080800  1
  O  O33  1  0.49913900  0.42336400  0.36919200  1
  O  O34  1  0.85875600  0.45257800  0.84841100  1
  O  O35  1  0.14124400  0.45257800  0.15158900  1
  O  O36  1  0.14313600  0.54304100  0.84837100  1
  O  O37  1  0.85686400  0.54304100  0.15162900  1
  O  O38  1  0.63031500  0.60631400  0.49887200  1
  O  O39  1  0.36968500  0.60631400  0.50112800  1
  O  O40  1  0.95777200  0.64303800  0.65373500  1
  O  O41  1  0.04222800  0.64303800  0.34626500  1
  O  O42  1  0.64263700  0.65134700  0.95512200  1
  O  O43  1  0.35736300  0.65134700  0.04487800  1
  O  O44  1  0.45642900  0.84620000  0.85653300  1
  O  O45  1  0.54357100  0.84620000  0.14346700  1
  O  O46  1  0.84628600  0.85683100  0.46038000  1
  O  O47  1  0.15371400  0.85683100  0.53962000  1
  O  O48  1  0.13264100  0.92333600  0.04151500  1
  O  O49  1  0.86735900  0.92333600  0.95848500  1
  O  O50  1  0.65336300  0.95755100  0.64528600  1
  O  O51  1  0.34663700  0.95755100  0.35471400  1
  O  O52  1  0.06885100  0.99983100  0.82585400  1
  O  O53  1  0.93114900  0.99983100  0.17414600  1
