# generated using pymatgen
data_Li4Ti2V3Fe3O16
_symmetry_space_group_name_H-M   'P 1'
_cell_length_a   10.26429990
_cell_length_b   5.95100129
_cell_length_c   9.60162427
_cell_angle_alpha   90.00000000
_cell_angle_beta   90.84186119
_cell_angle_gamma   90.00000000
_symmetry_Int_Tables_number   1
_chemical_formula_structural   Li4Ti2V3Fe3O16
_chemical_formula_sum   'Li8 Ti4 V6 Fe6 O32'
_cell_volume   586.43138128
_cell_formula_units_Z   2
loop_
 _symmetry_equiv_pos_site_id
 _symmetry_equiv_pos_as_xyz
  1  'x, y, z'
loop_
 _atom_site_type_symbol
 _atom_site_label
 _atom_site_symmetry_multiplicity
 _atom_site_fract_x
 _atom_site_fract_y
 _atom_site_fract_z
 _atom_site_occupancy
  Li  Li0  1  0.66618000  0.00000000  0.10189400  1
  Li  Li1  1  0.99745900  0.00000000  0.00445000  1
  Li  Li2  1  0.99780050  0.00000000  0.50866600  1
  Li  Li3  1  0.33405600  0.00000000  0.60256400  1
  Li  Li4  1  0.16618000  0.50000000  0.10189400  1
  Li  Li5  1  0.49745900  0.50000000  0.00445000  1
  Li  Li6  1  0.49780050  0.50000000  0.50866600  1
  Li  Li7  1  0.83405600  0.50000000  0.60256400  1
  Ti  Ti8  1  0.66081400  0.00000000  0.51767700  1
  Ti  Ti9  1  0.33935600  0.00000000  0.99946600  1
  Ti  Ti10  1  0.16081400  0.50000000  0.51767700  1
  Ti  Ti11  1  0.83935600  0.50000000  0.99946600  1
  V  V12  1  0.40935850  0.24807350  0.28411700  1
  V  V13  1  0.82793050  0.00000000  0.78114700  1
  V  V14  1  0.40935850  0.75192650  0.28411700  1
  V  V15  1  0.90935850  0.74807350  0.28411700  1
  V  V16  1  0.32793050  0.50000000  0.78114700  1
  V  V17  1  0.90935850  0.25192650  0.28411700  1
  Fe  Fe18  1  0.58729350  0.24585950  0.78644500  1
  Fe  Fe19  1  0.58729350  0.75414050  0.78644500  1
  Fe  Fe20  1  0.16687100  0.00000000  0.29144900  1
  Fe  Fe21  1  0.08729350  0.74585950  0.78644500  1
  Fe  Fe22  1  0.08729350  0.25414050  0.78644500  1
  Fe  Fe23  1  0.66687100  0.50000000  0.29144900  1
  O  O24  1  0.57439650  0.24718650  0.39996700  1
  O  O25  1  0.52015900  0.00000000  0.65236100  1
  O  O26  1  0.66983100  0.00000000  0.89542000  1
  O  O27  1  0.99974550  0.00000000  0.69602100  1
  O  O28  1  0.99717850  0.00000000  0.19175700  1
  O  O29  1  0.57439650  0.75281350  0.39996700  1
  O  O30  1  0.73967050  0.21994750  0.64868900  1
  O  O31  1  0.73967050  0.78005250  0.64868900  1
  O  O32  1  0.17005850  0.00000000  0.91142200  1
  O  O33  1  0.83324700  0.00000000  0.39794500  1
  O  O34  1  0.26591950  0.22706550  0.16601300  1
  O  O35  1  0.26591950  0.77293450  0.16601300  1
  O  O36  1  0.33730700  0.00000000  0.39731900  1
  O  O37  1  0.41504350  0.24439950  0.90668000  1
  O  O38  1  0.47977800  0.00000000  0.16167800  1
  O  O39  1  0.41504350  0.75560050  0.90668000  1
  O  O40  1  0.07439650  0.74718650  0.39996700  1
  O  O41  1  0.02015900  0.50000000  0.65236100  1
  O  O42  1  0.16983100  0.50000000  0.89542000  1
  O  O43  1  0.49974550  0.50000000  0.69602100  1
  O  O44  1  0.49717850  0.50000000  0.19175700  1
  O  O45  1  0.07439650  0.25281350  0.39996700  1
  O  O46  1  0.23967050  0.71994750  0.64868900  1
  O  O47  1  0.23967050  0.28005250  0.64868900  1
  O  O48  1  0.67005850  0.50000000  0.91142200  1
  O  O49  1  0.33324700  0.50000000  0.39794500  1
  O  O50  1  0.76591950  0.72706550  0.16601300  1
  O  O51  1  0.76591950  0.27293450  0.16601300  1
  O  O52  1  0.83730700  0.50000000  0.39731900  1
  O  O53  1  0.91504350  0.74439950  0.90668000  1
  O  O54  1  0.97977800  0.50000000  0.16167800  1
  O  O55  1  0.91504350  0.25560050  0.90668000  1
