# generated using pymatgen
data_NaH8SeNO6
_symmetry_space_group_name_H-M   'P 1'
_cell_length_a   6.42719700
_cell_length_b   8.47090700
_cell_length_c   13.22522000
_cell_angle_alpha   90.00000000
_cell_angle_beta   90.00000000
_cell_angle_gamma   90.00000000
_symmetry_Int_Tables_number   1
_chemical_formula_structural   NaH8SeNO6
_chemical_formula_sum   'Na4 H32 Se4 N4 O24'
_cell_volume   720.03636478
_cell_formula_units_Z   4
loop_
 _symmetry_equiv_pos_site_id
 _symmetry_equiv_pos_as_xyz
  1  'x, y, z'
loop_
 _atom_site_type_symbol
 _atom_site_label
 _atom_site_symmetry_multiplicity
 _atom_site_fract_x
 _atom_site_fract_y
 _atom_site_fract_z
 _atom_site_occupancy
  Na  Na0  1  0.59520900  0.73914800  0.98923200  1
  Na  Na1  1  0.09520900  0.76085200  0.01076800  1
  Na  Na2  1  0.40479100  0.23914800  0.51076800  1
  Na  Na3  1  0.90479100  0.26085200  0.48923200  1
  H  H4  1  0.30750200  0.77701900  0.81086200  1
  H  H5  1  0.80750200  0.72298100  0.18913800  1
  H  H6  1  0.69249800  0.27701900  0.68913800  1
  H  H7  1  0.19249800  0.22298100  0.31086200  1
  H  H8  1  0.26179300  0.60188900  0.84624500  1
  H  H9  1  0.76179300  0.89811100  0.15375500  1
  H  H10  1  0.73820700  0.10188900  0.65375500  1
  H  H11  1  0.23820700  0.39811100  0.34624500  1
  H  H12  1  0.14328600  0.52812100  0.58489500  1
  H  H13  1  0.64328600  0.97187900  0.41510500  1
  H  H14  1  0.85671400  0.02812100  0.91510500  1
  H  H15  1  0.35671400  0.47187900  0.08489500  1
  H  H16  1  0.87303000  0.90384500  0.82973400  1
  H  H17  1  0.37303000  0.59615500  0.17026600  1
  H  H18  1  0.12697000  0.40384500  0.67026600  1
  H  H19  1  0.62697000  0.09615500  0.32973400  1
  H  H20  1  0.73126500  0.74316200  0.64963200  1
  H  H21  1  0.23126500  0.75683800  0.35036800  1
  H  H22  1  0.26873500  0.24316200  0.85036800  1
  H  H23  1  0.76873500  0.25683800  0.14963200  1
  H  H24  1  0.63246800  0.57737900  0.70560800  1
  H  H25  1  0.13246800  0.92262100  0.29439200  1
  H  H26  1  0.36753200  0.07737900  0.79439200  1
  H  H27  1  0.86753200  0.42262100  0.20560800  1
  H  H28  1  0.63892400  0.59103000  0.57732600  1
  H  H29  1  0.13892400  0.90897000  0.42267400  1
  H  H30  1  0.36107600  0.09103000  0.92267400  1
  H  H31  1  0.86107600  0.40897000  0.07732600  1
  H  H32  1  0.47625200  0.70955400  0.64356100  1
  H  H33  1  0.97625200  0.79044600  0.35643900  1
  H  H34  1  0.52374800  0.20955400  0.85643900  1
  H  H35  1  0.02374800  0.29044600  0.14356100  1
  Se  Se36  1  0.11585300  0.90438500  0.62874900  1
  Se  Se37  1  0.61585300  0.59561500  0.37125100  1
  Se  Se38  1  0.88414700  0.40438500  0.87125100  1
  Se  Se39  1  0.38414700  0.09561500  0.12874900  1
  N  N40  1  0.11947000  0.84555300  0.35597700  1
  N  N41  1  0.61947000  0.65444700  0.64402300  1
  N  N42  1  0.88053000  0.34555300  0.14402300  1
  N  N43  1  0.38053000  0.15444700  0.85597700  1
  O  O44  1  0.31374000  0.91843600  0.71178000  1
  O  O45  1  0.81374000  0.58156400  0.28822000  1
  O  O46  1  0.68626000  0.41843600  0.78822000  1
  O  O47  1  0.18626000  0.08156400  0.21178000  1
  O  O48  1  0.88571900  0.92393800  0.68947500  1
  O  O49  1  0.38571900  0.57606200  0.31052500  1
  O  O50  1  0.11428100  0.42393800  0.81052500  1
  O  O51  1  0.61428100  0.07606200  0.18947500  1
  O  O52  1  0.12850500  0.72915100  0.57295400  1
  O  O53  1  0.62850500  0.77084900  0.42704600  1
  O  O54  1  0.87149500  0.22915100  0.92704600  1
  O  O55  1  0.37149500  0.27084900  0.07295400  1
  O  O56  1  0.36188600  0.95659600  0.03924700  1
  O  O57  1  0.86188600  0.54340400  0.96075300  1
  O  O58  1  0.63811400  0.45659600  0.46075300  1
  O  O59  1  0.13811400  0.04340400  0.53924700  1
  O  O60  1  0.82264200  0.79661000  0.13128800  1
  O  O61  1  0.32264200  0.70339000  0.86871200  1
  O  O62  1  0.17735800  0.29661000  0.36871200  1
  O  O63  1  0.67735800  0.20339000  0.63128800  1
  O  O64  1  0.85036800  0.91235700  0.90342100  1
  O  O65  1  0.35036800  0.58764300  0.09657900  1
  O  O66  1  0.14963200  0.41235700  0.59657900  1
  O  O67  1  0.64963200  0.08764300  0.40342100  1
