# generated using pymatgen
data_LiFeH12(SO7)2
_symmetry_space_group_name_H-M   'P 1'
_cell_length_a   6.02515700
_cell_length_b   11.89535800
_cell_length_c   8.99011282
_cell_angle_alpha   90.00000000
_cell_angle_beta   105.67922335
_cell_angle_gamma   90.00000000
_symmetry_Int_Tables_number   1
_chemical_formula_structural   LiFeH12(SO7)2
_chemical_formula_sum   'Li2 Fe2 H24 S4 O28'
_cell_volume   620.35817731
_cell_formula_units_Z   2
loop_
 _symmetry_equiv_pos_site_id
 _symmetry_equiv_pos_as_xyz
  1  'x, y, z'
loop_
 _atom_site_type_symbol
 _atom_site_label
 _atom_site_symmetry_multiplicity
 _atom_site_fract_x
 _atom_site_fract_y
 _atom_site_fract_z
 _atom_site_occupancy
  Li  Li0  1  0.35189200  0.89456100  0.35160000  1
  Li  Li1  1  0.64810800  0.39456100  0.64840000  1
  Fe  Fe2  1  0.00330800  0.99965500  0.75303800  1
  Fe  Fe3  1  0.99669200  0.49965500  0.24696200  1
  H  H4  1  0.66802600  0.93350100  0.86155600  1
  H  H5  1  0.34839100  0.14382800  0.78443000  1
  H  H6  1  0.93671200  0.59819100  0.96708300  1
  H  H7  1  0.90695100  0.36455400  0.00046100  1
  H  H8  1  0.00517700  0.69050200  0.10528400  1
  H  H9  1  0.33696100  0.89782200  0.96393200  1
  H  H10  1  0.66303900  0.39782200  0.03606800  1
  H  H11  1  0.99482300  0.19050200  0.89471600  1
  H  H12  1  0.09304900  0.86455400  0.99953900  1
  H  H13  1  0.06328800  0.09819100  0.03291700  1
  H  H14  1  0.65160900  0.64382800  0.21557000  1
  H  H15  1  0.33197400  0.43350100  0.13844400  1
  H  H16  1  0.65851200  0.55614400  0.35650700  1
  H  H17  1  0.34215900  0.35210300  0.28728600  1
  H  H18  1  0.93035100  0.90767100  0.47171300  1
  H  H19  1  0.90968000  0.13180800  0.50730900  1
  H  H20  1  0.00954200  0.80909300  0.60011000  1
  H  H21  1  0.33245300  0.59127800  0.46162700  1
  H  H22  1  0.66754700  0.09127800  0.53837300  1
  H  H23  1  0.99045800  0.30909300  0.39989000  1
  H  H24  1  0.09032000  0.63180800  0.49269100  1
  H  H25  1  0.06964900  0.40767100  0.52828700  1
  H  H26  1  0.65784100  0.85210300  0.71271400  1
  H  H27  1  0.34148800  0.05614400  0.64349300  1
  S  S28  1  0.26336400  0.36423200  0.83065400  1
  S  S29  1  0.73663600  0.86423200  0.16934600  1
  S  S30  1  0.26893700  0.13643700  0.35626100  1
  S  S31  1  0.73106300  0.63643700  0.64373900  1
  O  O32  1  0.70464200  0.92882100  0.75839400  1
  O  O33  1  0.78062500  0.57976800  0.79471300  1
  O  O34  1  0.97818100  0.10948200  0.92046500  1
  O  O35  1  0.41495700  0.26932000  0.81003100  1
  O  O36  1  0.03133100  0.32317600  0.84397600  1
  O  O37  1  0.16622900  0.88635600  0.91719200  1
  O  O38  1  0.61515000  0.92489600  0.02452500  1
  O  O39  1  0.38485000  0.42489600  0.97547500  1
  O  O40  1  0.83377100  0.38635600  0.08280800  1
  O  O41  1  0.96866900  0.82317600  0.15602400  1
  O  O42  1  0.58504300  0.76932000  0.18996900  1
  O  O43  1  0.02181900  0.60948200  0.07953500  1
  O  O44  1  0.69676200  0.56459000  0.25467500  1
  O  O45  1  0.77094400  0.94031400  0.30400200  1
  O  O46  1  0.21937500  0.07976800  0.20528700  1
  O  O47  1  0.29535800  0.42882100  0.24160600  1
  O  O48  1  0.96784200  0.39100100  0.42044800  1
  O  O49  1  0.42909800  0.23358600  0.37128700  1
  O  O50  1  0.05427600  0.17517300  0.39328100  1
  O  O51  1  0.16850000  0.61145500  0.41015800  1
  O  O52  1  0.61329700  0.54643900  0.52714100  1
  O  O53  1  0.38670300  0.04643900  0.47285900  1
  O  O54  1  0.83150000  0.11145500  0.58984200  1
  O  O55  1  0.94572400  0.67517300  0.60671900  1
  O  O56  1  0.57090200  0.73358600  0.62871300  1
  O  O57  1  0.03215800  0.89100100  0.57955200  1
  O  O58  1  0.22905600  0.44031400  0.69599800  1
  O  O59  1  0.30323800  0.06459000  0.74532500  1
