# generated using pymatgen
data_SbTe
_symmetry_space_group_name_H-M   'P 1'
_cell_length_a   4.35154654
_cell_length_b   4.35154654
_cell_length_c   24.49222800
_cell_angle_alpha   90.00000000
_cell_angle_beta   90.00000000
_cell_angle_gamma   120.00000000
_symmetry_Int_Tables_number   1
_chemical_formula_structural   SbTe
_chemical_formula_sum   'Sb6 Te6'
_cell_volume   401.64853739
_cell_formula_units_Z   6
loop_
 _symmetry_equiv_pos_site_id
 _symmetry_equiv_pos_as_xyz
  1  'x, y, z'
loop_
 _atom_site_type_symbol
 _atom_site_label
 _atom_site_symmetry_multiplicity
 _atom_site_fract_x
 _atom_site_fract_y
 _atom_site_fract_z
 _atom_site_occupancy
  Sb  Sb0  1  0.00000000  0.00000000  0.13131600  1
  Sb  Sb1  1  0.00000000  0.00000000  0.86868400  1
  Sb  Sb2  1  0.33333333  0.66666667  0.29276700  1
  Sb  Sb3  1  0.66666667  0.33333333  0.70723300  1
  Sb  Sb4  1  0.33333333  0.66666667  0.53175500  1
  Sb  Sb5  1  0.66666667  0.33333333  0.46824500  1
  Te  Te6  1  0.33333333  0.66666667  0.06215300  1
  Te  Te7  1  0.66666667  0.33333333  0.93784700  1
  Te  Te8  1  0.33333333  0.66666667  0.78766700  1
  Te  Te9  1  0.66666667  0.33333333  0.21233300  1
  Te  Te10  1  0.00000000  0.00000000  0.36270800  1
  Te  Te11  1  0.00000000  0.00000000  0.63729200  1
