# generated using pymatgen
data_Y(BO2)3
_symmetry_space_group_name_H-M   'P 1'
_cell_length_a   4.26953200
_cell_length_b   4.44450500
_cell_length_c   18.39919600
_cell_angle_alpha   90.00000000
_cell_angle_beta   90.00000000
_cell_angle_gamma   90.00000000
_symmetry_Int_Tables_number   1
_chemical_formula_structural   Y(BO2)3
_chemical_formula_sum   'Y4 B12 O24'
_cell_volume   349.14233965
_cell_formula_units_Z   4
loop_
 _symmetry_equiv_pos_site_id
 _symmetry_equiv_pos_as_xyz
  1  'x, y, z'
loop_
 _atom_site_type_symbol
 _atom_site_label
 _atom_site_symmetry_multiplicity
 _atom_site_fract_x
 _atom_site_fract_y
 _atom_site_fract_z
 _atom_site_occupancy
  Y  Y0  1  0.60086600  0.82137900  0.83465200  1
  Y  Y1  1  0.10086600  0.82137900  0.66534800  1
  Y  Y2  1  0.60086600  0.17862100  0.33465200  1
  Y  Y3  1  0.10086600  0.17862100  0.16534800  1
  B  B4  1  0.69698900  0.17487900  0.99873400  1
  B  B5  1  0.16909100  0.32945800  0.92631600  1
  B  B6  1  0.12598100  0.35477900  0.78741100  1
  B  B7  1  0.62598100  0.35477900  0.71258900  1
  B  B8  1  0.66909100  0.32945800  0.57368400  1
  B  B9  1  0.19698900  0.17487900  0.50126600  1
  B  B10  1  0.69698900  0.82512100  0.49873400  1
  B  B11  1  0.16909100  0.67054200  0.42631600  1
  B  B12  1  0.12598100  0.64522100  0.28741100  1
  B  B13  1  0.62598100  0.64522100  0.21258900  1
  B  B14  1  0.66909100  0.67054200  0.07368400  1
  B  B15  1  0.19698900  0.82512100  0.00126600  1
  O  O16  1  0.33916500  0.13396000  0.98403300  1
  O  O17  1  0.25523200  0.64428200  0.93730100  1
  O  O18  1  0.83427500  0.26901100  0.93138600  1
  O  O19  1  0.27544700  0.23544800  0.85415800  1
  O  O20  1  0.11775700  0.68176800  0.79041300  1
  O  O21  1  0.80663800  0.24054300  0.77672000  1
  O  O22  1  0.30663800  0.24054300  0.72328000  1
  O  O23  1  0.61775700  0.68176800  0.70958700  1
  O  O24  1  0.77544700  0.23544800  0.64584200  1
  O  O25  1  0.33427500  0.26901100  0.56861400  1
  O  O26  1  0.75523200  0.64428200  0.56269900  1
  O  O27  1  0.83916500  0.13396000  0.51596700  1
  O  O28  1  0.33916500  0.86604000  0.48403300  1
  O  O29  1  0.25523200  0.35571800  0.43730100  1
  O  O30  1  0.83427500  0.73098900  0.43138600  1
  O  O31  1  0.27544700  0.76455200  0.35415800  1
  O  O32  1  0.11775700  0.31823200  0.29041300  1
  O  O33  1  0.80663800  0.75945700  0.27672000  1
  O  O34  1  0.30663800  0.75945700  0.22328000  1
  O  O35  1  0.61775700  0.31823200  0.20958700  1
  O  O36  1  0.77544700  0.76455200  0.14584200  1
  O  O37  1  0.33427500  0.73098900  0.06861400  1
  O  O38  1  0.75523200  0.35571800  0.06269900  1
  O  O39  1  0.83916500  0.86604000  0.01596700  1
