# generated using pymatgen
data_Ce4ThO10
_symmetry_space_group_name_H-M   'P 1'
_cell_length_a   31.81647200
_cell_length_b   3.89106000
_cell_length_c   6.73582269
_cell_angle_alpha   90.00000000
_cell_angle_beta   94.03176981
_cell_angle_gamma   90.00000000
_symmetry_Int_Tables_number   1
_chemical_formula_structural   Ce4ThO10
_chemical_formula_sum   'Ce16 Th4 O40'
_cell_volume   831.82980792
_cell_formula_units_Z   4
loop_
 _symmetry_equiv_pos_site_id
 _symmetry_equiv_pos_as_xyz
  1  'x, y, z'
loop_
 _atom_site_type_symbol
 _atom_site_label
 _atom_site_symmetry_multiplicity
 _atom_site_fract_x
 _atom_site_fract_y
 _atom_site_fract_z
 _atom_site_occupancy
  Ce  Ce0  1  0.00000000  0.00000000  0.50000000  1
  Ce  Ce1  1  0.70037300  0.00000000  0.39943700  1
  Ce  Ce2  1  0.00000000  0.50000000  0.00000000  1
  Ce  Ce3  1  0.79962700  0.50000000  0.60056300  1
  Ce  Ce4  1  0.60001500  0.50000000  0.19991500  1
  Ce  Ce5  1  0.70062500  0.50000000  0.90091300  1
  Ce  Ce6  1  0.79937500  0.00000000  0.09908700  1
  Ce  Ce7  1  0.89998500  0.00000000  0.80008500  1
  Ce  Ce8  1  0.50000000  0.50000000  0.50000000  1
  Ce  Ce9  1  0.20037300  0.50000000  0.39943700  1
  Ce  Ce10  1  0.50000000  0.00000000  0.00000000  1
  Ce  Ce11  1  0.29962700  0.00000000  0.60056300  1
  Ce  Ce12  1  0.10001500  0.00000000  0.19991500  1
  Ce  Ce13  1  0.20062500  0.00000000  0.90091300  1
  Ce  Ce14  1  0.29937500  0.50000000  0.09908700  1
  Ce  Ce15  1  0.39998500  0.50000000  0.80008500  1
  Th  Th16  1  0.60015300  0.00000000  0.70019200  1
  Th  Th17  1  0.89984700  0.50000000  0.29980800  1
  Th  Th18  1  0.10015300  0.50000000  0.70019200  1
  Th  Th19  1  0.39984700  0.00000000  0.29980800  1
  O  O20  1  0.97585000  0.50000000  0.32467000  1
  O  O21  1  0.92550600  0.00000000  0.47884400  1
  O  O22  1  0.57449400  0.50000000  0.52115600  1
  O  O23  1  0.97509900  0.00000000  0.82584400  1
  O  O24  1  0.92541500  0.50000000  0.97144500  1
  O  O25  1  0.52415000  0.00000000  0.67533000  1
  O  O26  1  0.62559900  0.00000000  0.37146100  1
  O  O27  1  0.72509600  0.50000000  0.57497300  1
  O  O28  1  0.67615700  0.00000000  0.72526400  1
  O  O29  1  0.77490400  0.00000000  0.42502700  1
  O  O30  1  0.62568500  0.50000000  0.87911400  1
  O  O31  1  0.52490100  0.50000000  0.17415600  1
  O  O32  1  0.57458500  0.00000000  0.02855500  1
  O  O33  1  0.72516100  0.00000000  0.07514700  1
  O  O34  1  0.67540300  0.50000000  0.22549200  1
  O  O35  1  0.77483900  0.50000000  0.92485300  1
  O  O36  1  0.82459700  0.00000000  0.77450800  1
  O  O37  1  0.87440100  0.50000000  0.62853900  1
  O  O38  1  0.87431500  0.00000000  0.12088600  1
  O  O39  1  0.82384300  0.50000000  0.27473600  1
  O  O40  1  0.47585000  0.00000000  0.32467000  1
  O  O41  1  0.42550600  0.50000000  0.47884400  1
  O  O42  1  0.07449400  0.00000000  0.52115600  1
  O  O43  1  0.47509900  0.50000000  0.82584400  1
  O  O44  1  0.42541500  0.00000000  0.97144500  1
  O  O45  1  0.02415000  0.50000000  0.67533000  1
  O  O46  1  0.12559900  0.50000000  0.37146100  1
  O  O47  1  0.22509600  0.00000000  0.57497300  1
  O  O48  1  0.17615700  0.50000000  0.72526400  1
  O  O49  1  0.27490400  0.50000000  0.42502700  1
  O  O50  1  0.12568500  0.00000000  0.87911400  1
  O  O51  1  0.02490100  0.00000000  0.17415600  1
  O  O52  1  0.07458500  0.50000000  0.02855500  1
  O  O53  1  0.22516100  0.50000000  0.07514700  1
  O  O54  1  0.17540300  0.00000000  0.22549200  1
  O  O55  1  0.27483900  0.00000000  0.92485300  1
  O  O56  1  0.32459700  0.50000000  0.77450800  1
  O  O57  1  0.37440100  0.00000000  0.62853900  1
  O  O58  1  0.37431500  0.50000000  0.12088600  1
  O  O59  1  0.32384300  0.00000000  0.27473600  1
