# generated using pymatgen
data_Na2SiBSbO7
_symmetry_space_group_name_H-M   'P 1'
_cell_length_a   5.44211200
_cell_length_b   6.63995100
_cell_length_c   9.38537847
_cell_angle_alpha   90.00000000
_cell_angle_beta   93.12390421
_cell_angle_gamma   90.00000000
_symmetry_Int_Tables_number   1
_chemical_formula_structural   Na2SiBSbO7
_chemical_formula_sum   'Na4 Si2 B2 Sb2 O14'
_cell_volume   338.64004108
_cell_formula_units_Z   2
loop_
 _symmetry_equiv_pos_site_id
 _symmetry_equiv_pos_as_xyz
  1  'x, y, z'
loop_
 _atom_site_type_symbol
 _atom_site_label
 _atom_site_symmetry_multiplicity
 _atom_site_fract_x
 _atom_site_fract_y
 _atom_site_fract_z
 _atom_site_occupancy
  Na  Na0  1  0.76211400  0.99474100  0.19601100  1
  Na  Na1  1  0.76211400  0.50525900  0.19601100  1
  Na  Na2  1  0.23788600  0.49474100  0.80398900  1
  Na  Na3  1  0.23788600  0.00525900  0.80398900  1
  Si  Si4  1  0.26877900  0.25000000  0.43612500  1
  Si  Si5  1  0.73122100  0.75000000  0.56387500  1
  B  B6  1  0.27866600  0.75000000  0.07900900  1
  B  B7  1  0.72133400  0.25000000  0.92099100  1
  Sb  Sb8  1  0.21689900  0.75000000  0.34465200  1
  Sb  Sb9  1  0.78310100  0.25000000  0.65534800  1
  O  O10  1  0.68233900  0.25000000  0.05666800  1
  O  O11  1  0.04843800  0.75000000  0.14661500  1
  O  O12  1  0.46834700  0.75000000  0.19486900  1
  O  O13  1  0.19366200  0.05249800  0.33872800  1
  O  O14  1  0.19366200  0.44750200  0.33872800  1
  O  O15  1  0.87664500  0.75000000  0.41439400  1
  O  O16  1  0.57097800  0.25000000  0.47650900  1
  O  O17  1  0.42902200  0.75000000  0.52349100  1
  O  O18  1  0.12335500  0.25000000  0.58560600  1
  O  O19  1  0.80633800  0.55249800  0.66127200  1
  O  O20  1  0.80633800  0.94750200  0.66127200  1
  O  O21  1  0.53165300  0.25000000  0.80513100  1
  O  O22  1  0.95156200  0.25000000  0.85338500  1
  O  O23  1  0.31766100  0.75000000  0.94333200  1
