# generated using pymatgen
data_Li2TiNi2O5
_symmetry_space_group_name_H-M   'P 1'
_cell_length_a   5.15154400
_cell_length_b   14.55523800
_cell_length_c   5.18299826
_cell_angle_alpha   90.00000000
_cell_angle_beta   111.23645864
_cell_angle_gamma   90.00000000
_symmetry_Int_Tables_number   1
_chemical_formula_structural   Li2TiNi2O5
_chemical_formula_sum   'Li8 Ti4 Ni8 O20'
_cell_volume   362.24071985
_cell_formula_units_Z   4
loop_
 _symmetry_equiv_pos_site_id
 _symmetry_equiv_pos_as_xyz
  1  'x, y, z'
loop_
 _atom_site_type_symbol
 _atom_site_label
 _atom_site_symmetry_multiplicity
 _atom_site_fract_x
 _atom_site_fract_y
 _atom_site_fract_z
 _atom_site_occupancy
  Li  Li0  1  0.50000000  0.19848200  0.00000000  1
  Li  Li1  1  0.50000000  0.29825000  0.50000000  1
  Li  Li2  1  0.00000000  0.10251200  0.00000000  1
  Li  Li3  1  0.00000000  0.40021500  0.50000000  1
  Li  Li4  1  0.00000000  0.69848200  0.00000000  1
  Li  Li5  1  0.00000000  0.79825000  0.50000000  1
  Li  Li6  1  0.50000000  0.60251200  0.00000000  1
  Li  Li7  1  0.50000000  0.90021500  0.50000000  1
  Ti  Ti8  1  0.50000000  0.40020300  0.00000000  1
  Ti  Ti9  1  0.00000000  0.20095300  0.50000000  1
  Ti  Ti10  1  0.00000000  0.90020300  0.00000000  1
  Ti  Ti11  1  0.50000000  0.70095300  0.50000000  1
  Ni  Ni12  1  0.50000000  0.10000000  0.50000000  1
  Ni  Ni13  1  0.00000000  0.29844700  0.00000000  1
  Ni  Ni14  1  0.50000000  0.00388300  0.00000000  1
  Ni  Ni15  1  0.50000000  0.49900500  0.50000000  1
  Ni  Ni16  1  0.00000000  0.60000000  0.50000000  1
  Ni  Ni17  1  0.50000000  0.79844700  0.00000000  1
  Ni  Ni18  1  0.00000000  0.50388300  0.00000000  1
  Ni  Ni19  1  0.00000000  0.99900500  0.50000000  1
  O  O20  1  0.24847750  0.10301350  0.73514200  1
  O  O21  1  0.22759800  0.20006100  0.27347700  1
  O  O22  1  0.73552700  0.40149200  0.77161000  1
  O  O23  1  0.77240200  0.20006100  0.72652300  1
  O  O24  1  0.75152250  0.10301350  0.26485800  1
  O  O25  1  0.74111100  0.49458700  0.24144300  1
  O  O26  1  0.75162500  0.29986500  0.24418200  1
  O  O27  1  0.25888900  0.49458700  0.75855700  1
  O  O28  1  0.24837500  0.29986500  0.75581800  1
  O  O29  1  0.26447300  0.40149200  0.22839000  1
  O  O30  1  0.74847750  0.60301350  0.73514200  1
  O  O31  1  0.72759800  0.70006100  0.27347700  1
  O  O32  1  0.23552700  0.90149200  0.77161000  1
  O  O33  1  0.27240200  0.70006100  0.72652300  1
  O  O34  1  0.25152250  0.60301350  0.26485800  1
  O  O35  1  0.24111100  0.99458700  0.24144300  1
  O  O36  1  0.25162500  0.79986500  0.24418200  1
  O  O37  1  0.75888900  0.99458700  0.75855700  1
  O  O38  1  0.74837500  0.79986500  0.75581800  1
  O  O39  1  0.76447300  0.90149200  0.22839000  1
