# generated using pymatgen
data_TePHO5
_symmetry_space_group_name_H-M   'P 1'
_cell_length_a   5.42154564
_cell_length_b   5.48601991
_cell_length_c   7.81219035
_cell_angle_alpha   109.57180242
_cell_angle_beta   104.59900496
_cell_angle_gamma   96.34663420
_symmetry_Int_Tables_number   1
_chemical_formula_structural   TePHO5
_chemical_formula_sum   'Te2 P2 H2 O10'
_cell_volume   206.96168769
_cell_formula_units_Z   2
loop_
 _symmetry_equiv_pos_site_id
 _symmetry_equiv_pos_as_xyz
  1  'x, y, z'
loop_
 _atom_site_type_symbol
 _atom_site_label
 _atom_site_symmetry_multiplicity
 _atom_site_fract_x
 _atom_site_fract_y
 _atom_site_fract_z
 _atom_site_occupancy
  Te  Te0  1  0.50000000  0.00000000  0.50000000  1
  Te  Te1  1  0.00000000  0.00000000  0.00000000  1
  P  P2  1  0.56308832  0.64392542  0.22648679  1
  P  P3  1  0.43691168  0.35607458  0.77351321  1
  H  H4  1  0.96966467  0.96156098  0.33788580  1
  H  H5  1  0.03033533  0.03843902  0.66211420  1
  O  O6  1  0.88681925  0.95133851  0.71766215  1
  O  O7  1  0.67625164  0.80870808  0.36205019  1
  O  O8  1  0.34884479  0.64478998  0.66011070  1
  O  O9  1  0.68029150  0.75081058  0.05791489  1
  O  O10  1  0.26185494  0.66083984  0.15012488  1
  O  O11  1  0.73814506  0.33916016  0.84987512  1
  O  O12  1  0.31970850  0.24918942  0.94208511  1
  O  O13  1  0.65115521  0.35521002  0.33988930  1
  O  O14  1  0.32374836  0.19129192  0.63794981  1
  O  O15  1  0.11318075  0.04866149  0.28233785  1
