# generated using pymatgen
data_Tm2GeO5
_symmetry_space_group_name_H-M   'P 1'
_cell_length_a   3.66023700
_cell_length_b   10.23691300
_cell_length_c   11.03297900
_cell_angle_alpha   90.00000000
_cell_angle_beta   90.00000000
_cell_angle_gamma   90.00000000
_symmetry_Int_Tables_number   1
_chemical_formula_structural   Tm2GeO5
_chemical_formula_sum   'Tm8 Ge4 O20'
_cell_volume   413.40051257
_cell_formula_units_Z   4
loop_
 _symmetry_equiv_pos_site_id
 _symmetry_equiv_pos_as_xyz
  1  'x, y, z'
loop_
 _atom_site_type_symbol
 _atom_site_label
 _atom_site_symmetry_multiplicity
 _atom_site_fract_x
 _atom_site_fract_y
 _atom_site_fract_z
 _atom_site_occupancy
  Tm  Tm0  1  0.25000000  0.60922300  0.27619500  1
  Tm  Tm1  1  0.25000000  0.63514900  0.94011700  1
  Tm  Tm2  1  0.75000000  0.86485100  0.44011700  1
  Tm  Tm3  1  0.75000000  0.89077700  0.77619500  1
  Tm  Tm4  1  0.25000000  0.10922300  0.22380500  1
  Tm  Tm5  1  0.25000000  0.13514900  0.55988300  1
  Tm  Tm6  1  0.75000000  0.36485100  0.05988300  1
  Tm  Tm7  1  0.75000000  0.39077700  0.72380500  1
  Ge  Ge8  1  0.25000000  0.67668400  0.61706600  1
  Ge  Ge9  1  0.75000000  0.82331600  0.11706600  1
  Ge  Ge10  1  0.25000000  0.17668400  0.88293400  1
  Ge  Ge11  1  0.75000000  0.32331600  0.38293400  1
  O  O12  1  0.25000000  0.49056900  0.10401600  1
  O  O13  1  0.25000000  0.50996000  0.65752800  1
  O  O14  1  0.75000000  0.73885000  0.61360100  1
  O  O15  1  0.75000000  0.74029400  0.26664300  1
  O  O16  1  0.25000000  0.72153900  0.45680800  1
  O  O17  1  0.75000000  0.77846100  0.95680800  1
  O  O18  1  0.25000000  0.75970600  0.76664300  1
  O  O19  1  0.25000000  0.76115000  0.11360100  1
  O  O20  1  0.75000000  0.99004000  0.15752800  1
  O  O21  1  0.75000000  0.00943100  0.60401600  1
  O  O22  1  0.25000000  0.99056900  0.39598400  1
  O  O23  1  0.25000000  0.00996000  0.84247200  1
  O  O24  1  0.75000000  0.23885000  0.88639900  1
  O  O25  1  0.75000000  0.24029400  0.23335700  1
  O  O26  1  0.25000000  0.22153900  0.04319200  1
  O  O27  1  0.75000000  0.27846100  0.54319200  1
  O  O28  1  0.25000000  0.25970600  0.73335700  1
  O  O29  1  0.25000000  0.26115000  0.38639900  1
  O  O30  1  0.75000000  0.49004000  0.34247200  1
  O  O31  1  0.75000000  0.50943100  0.89598400  1
