# generated using pymatgen
data_Ho3Fe5O12
_symmetry_space_group_name_H-M   'P 1'
_cell_length_a   12.49023400
_cell_length_b   12.49023400
_cell_length_c   12.49023400
_cell_angle_alpha   90.00000000
_cell_angle_beta   90.00000000
_cell_angle_gamma   90.00000000
_symmetry_Int_Tables_number   1
_chemical_formula_structural   Ho3Fe5O12
_chemical_formula_sum   'Ho24 Fe40 O96'
_cell_volume   1948.55076312
_cell_formula_units_Z   8
loop_
 _symmetry_equiv_pos_site_id
 _symmetry_equiv_pos_as_xyz
  1  'x, y, z'
loop_
 _atom_site_type_symbol
 _atom_site_label
 _atom_site_symmetry_multiplicity
 _atom_site_fract_x
 _atom_site_fract_y
 _atom_site_fract_z
 _atom_site_occupancy
  Ho  Ho0  1  0.87500000  0.50000000  0.25000000  1
  Ho  Ho1  1  0.00000000  0.25000000  0.12500000  1
  Ho  Ho2  1  0.00000000  0.25000000  0.62500000  1
  Ho  Ho3  1  0.12500000  0.00000000  0.25000000  1
  Ho  Ho4  1  0.25000000  0.62500000  0.00000000  1
  Ho  Ho5  1  0.25000000  0.87500000  0.50000000  1
  Ho  Ho6  1  0.25000000  0.12500000  0.00000000  1
  Ho  Ho7  1  0.25000000  0.37500000  0.50000000  1
  Ho  Ho8  1  0.37500000  0.50000000  0.25000000  1
  Ho  Ho9  1  0.50000000  0.25000000  0.37500000  1
  Ho  Ho10  1  0.50000000  0.25000000  0.87500000  1
  Ho  Ho11  1  0.62500000  0.00000000  0.25000000  1
  Ho  Ho12  1  0.37500000  0.00000000  0.75000000  1
  Ho  Ho13  1  0.50000000  0.75000000  0.62500000  1
  Ho  Ho14  1  0.50000000  0.75000000  0.12500000  1
  Ho  Ho15  1  0.62500000  0.50000000  0.75000000  1
  Ho  Ho16  1  0.75000000  0.12500000  0.50000000  1
  Ho  Ho17  1  0.75000000  0.37500000  0.00000000  1
  Ho  Ho18  1  0.75000000  0.62500000  0.50000000  1
  Ho  Ho19  1  0.75000000  0.87500000  0.00000000  1
  Ho  Ho20  1  0.87500000  0.00000000  0.75000000  1
  Ho  Ho21  1  0.00000000  0.75000000  0.87500000  1
  Ho  Ho22  1  0.00000000  0.75000000  0.37500000  1
  Ho  Ho23  1  0.12500000  0.50000000  0.75000000  1
  Fe  Fe24  1  0.75000000  0.37500000  0.50000000  1
  Fe  Fe25  1  0.75000000  0.25000000  0.25000000  1
  Fe  Fe26  1  0.00000000  0.00000000  0.00000000  1
  Fe  Fe27  1  0.00000000  0.25000000  0.37500000  1
  Fe  Fe28  1  0.00000000  0.50000000  0.00000000  1
  Fe  Fe29  1  0.00000000  0.00000000  0.50000000  1
  Fe  Fe30  1  0.00000000  0.75000000  0.12500000  1
  Fe  Fe31  1  0.12500000  0.00000000  0.75000000  1
  Fe  Fe32  1  0.12500000  0.50000000  0.25000000  1
  Fe  Fe33  1  0.25000000  0.12500000  0.50000000  1
  Fe  Fe34  1  0.25000000  0.25000000  0.25000000  1
  Fe  Fe35  1  0.25000000  0.75000000  0.25000000  1
  Fe  Fe36  1  0.25000000  0.25000000  0.75000000  1
  Fe  Fe37  1  0.25000000  0.37500000  0.00000000  1
  Fe  Fe38  1  0.37500000  0.00000000  0.25000000  1
  Fe  Fe39  1  0.37500000  0.50000000  0.75000000  1
  Fe  Fe40  1  0.50000000  0.25000000  0.12500000  1
  Fe  Fe41  1  0.50000000  0.75000000  0.37500000  1
  Fe  Fe42  1  0.50000000  0.00000000  0.00000000  1
  Fe  Fe43  1  0.75000000  0.12500000  0.00000000  1
  Fe  Fe44  1  0.25000000  0.87500000  0.00000000  1
  Fe  Fe45  1  0.25000000  0.75000000  0.75000000  1
  Fe  Fe46  1  0.50000000  0.50000000  0.50000000  1
  Fe  Fe47  1  0.50000000  0.75000000  0.87500000  1
  Fe  Fe48  1  0.50000000  0.00000000  0.50000000  1
  Fe  Fe49  1  0.50000000  0.50000000  0.00000000  1
  Fe  Fe50  1  0.50000000  0.25000000  0.62500000  1
  Fe  Fe51  1  0.62500000  0.50000000  0.25000000  1
  Fe  Fe52  1  0.62500000  0.00000000  0.75000000  1
  Fe  Fe53  1  0.75000000  0.62500000  0.00000000  1
  Fe  Fe54  1  0.75000000  0.75000000  0.75000000  1
  Fe  Fe55  1  0.75000000  0.25000000  0.75000000  1
  Fe  Fe56  1  0.75000000  0.75000000  0.25000000  1
  Fe  Fe57  1  0.75000000  0.87500000  0.50000000  1
  Fe  Fe58  1  0.87500000  0.50000000  0.75000000  1
  Fe  Fe59  1  0.87500000  0.00000000  0.25000000  1
  Fe  Fe60  1  0.00000000  0.75000000  0.62500000  1
  Fe  Fe61  1  0.00000000  0.25000000  0.87500000  1
  Fe  Fe62  1  0.00000000  0.50000000  0.50000000  1
  Fe  Fe63  1  0.25000000  0.62500000  0.50000000  1
  O  O64  1  0.72430600  0.59872700  0.30830800  1
  O  O65  1  0.80830800  0.27569400  0.59872700  1
  O  O66  1  0.84872700  0.47430600  0.44169200  1
  O  O67  1  0.90127300  0.69169200  0.22430600  1
  O  O68  1  0.90127300  0.19169200  0.77569400  1
  O  O69  1  0.90127300  0.30830800  0.27569400  1
  O  O70  1  0.94169200  0.15127300  0.47430600  1
  O  O71  1  0.97430600  0.05830800  0.15127300  1
  O  O72  1  0.02569400  0.05830800  0.65127300  1
  O  O73  1  0.02569400  0.44169200  0.15127300  1
  O  O74  1  0.02569400  0.55830800  0.34872700  1
  O  O75  1  0.05830800  0.15127300  0.97430600  1
  O  O76  1  0.05830800  0.34872700  0.47430600  1
  O  O77  1  0.05830800  0.65127300  0.02569400  1
  O  O78  1  0.09872700  0.19169200  0.27569400  1
  O  O79  1  0.15127300  0.02569400  0.44169200  1
  O  O80  1  0.15127300  0.47430600  0.94169200  1
  O  O81  1  0.15127300  0.97430600  0.05830800  1
  O  O82  1  0.19169200  0.22430600  0.59872700  1
  O  O83  1  0.19169200  0.27569400  0.09872700  1
  O  O84  1  0.19169200  0.77569400  0.90127300  1
  O  O85  1  0.22430600  0.40127300  0.30830800  1
  O  O86  1  0.22430600  0.59872700  0.19169200  1
  O  O87  1  0.22430600  0.90127300  0.69169200  1
  O  O88  1  0.27569400  0.09872700  0.19169200  1
  O  O89  1  0.27569400  0.59872700  0.80830800  1
  O  O90  1  0.27569400  0.90127300  0.30830800  1
  O  O91  1  0.30830800  0.27569400  0.90127300  1
  O  O92  1  0.30830800  0.22430600  0.40127300  1
  O  O93  1  0.30830800  0.72430600  0.59872700  1
  O  O94  1  0.34872700  0.02569400  0.55830800  1
  O  O95  1  0.34872700  0.47430600  0.05830800  1
  O  O96  1  0.34872700  0.52569400  0.44169200  1
  O  O97  1  0.40127300  0.30830800  0.22430600  1
  O  O98  1  0.44169200  0.84872700  0.47430600  1
  O  O99  1  0.44169200  0.15127300  0.02569400  1
  O  O100  1  0.44169200  0.34872700  0.52569400  1
  O  O101  1  0.47430600  0.05830800  0.34872700  1
  O  O102  1  0.47430600  0.44169200  0.84872700  1
  O  O103  1  0.47430600  0.94169200  0.15127300  1
  O  O104  1  0.52569400  0.44169200  0.34872700  1
  O  O105  1  0.55830800  0.34872700  0.02569400  1
  O  O106  1  0.59872700  0.19169200  0.22430600  1
  O  O107  1  0.59872700  0.30830800  0.72430600  1
  O  O108  1  0.59872700  0.80830800  0.27569400  1
  O  O109  1  0.65127300  0.02569400  0.05830800  1
  O  O110  1  0.69169200  0.22430600  0.90127300  1
  O  O111  1  0.77569400  0.90127300  0.19169200  1
  O  O112  1  0.22430600  0.09872700  0.80830800  1
  O  O113  1  0.30830800  0.77569400  0.09872700  1
  O  O114  1  0.34872700  0.97430600  0.94169200  1
  O  O115  1  0.40127300  0.19169200  0.72430600  1
  O  O116  1  0.40127300  0.69169200  0.27569400  1
  O  O117  1  0.40127300  0.80830800  0.77569400  1
  O  O118  1  0.44169200  0.65127300  0.97430600  1
  O  O119  1  0.47430600  0.55830800  0.65127300  1
  O  O120  1  0.52569400  0.55830800  0.15127300  1
  O  O121  1  0.52569400  0.94169200  0.65127300  1
  O  O122  1  0.52569400  0.05830800  0.84872700  1
  O  O123  1  0.55830800  0.65127300  0.47430600  1
  O  O124  1  0.55830800  0.84872700  0.97430600  1
  O  O125  1  0.55830800  0.15127300  0.52569400  1
  O  O126  1  0.59872700  0.69169200  0.77569400  1
  O  O127  1  0.65127300  0.52569400  0.94169200  1
  O  O128  1  0.65127300  0.97430600  0.44169200  1
  O  O129  1  0.65127300  0.47430600  0.55830800  1
  O  O130  1  0.69169200  0.72430600  0.09872700  1
  O  O131  1  0.69169200  0.77569400  0.59872700  1
  O  O132  1  0.69169200  0.27569400  0.40127300  1
  O  O133  1  0.72430600  0.90127300  0.80830800  1
  O  O134  1  0.72430600  0.09872700  0.69169200  1
  O  O135  1  0.72430600  0.40127300  0.19169200  1
  O  O136  1  0.77569400  0.59872700  0.69169200  1
  O  O137  1  0.77569400  0.09872700  0.30830800  1
  O  O138  1  0.77569400  0.40127300  0.80830800  1
  O  O139  1  0.80830800  0.77569400  0.40127300  1
  O  O140  1  0.80830800  0.72430600  0.90127300  1
  O  O141  1  0.80830800  0.22430600  0.09872700  1
  O  O142  1  0.84872700  0.52569400  0.05830800  1
  O  O143  1  0.84872700  0.97430600  0.55830800  1
  O  O144  1  0.84872700  0.02569400  0.94169200  1
  O  O145  1  0.90127300  0.80830800  0.72430600  1
  O  O146  1  0.94169200  0.34872700  0.97430600  1
  O  O147  1  0.94169200  0.65127300  0.52569400  1
  O  O148  1  0.94169200  0.84872700  0.02569400  1
  O  O149  1  0.97430600  0.55830800  0.84872700  1
  O  O150  1  0.97430600  0.94169200  0.34872700  1
  O  O151  1  0.97430600  0.44169200  0.65127300  1
  O  O152  1  0.02569400  0.94169200  0.84872700  1
  O  O153  1  0.05830800  0.84872700  0.52569400  1
  O  O154  1  0.09872700  0.69169200  0.72430600  1
  O  O155  1  0.09872700  0.80830800  0.22430600  1
  O  O156  1  0.09872700  0.30830800  0.77569400  1
  O  O157  1  0.15127300  0.52569400  0.55830800  1
  O  O158  1  0.19169200  0.72430600  0.40127300  1
  O  O159  1  0.27569400  0.40127300  0.69169200  1
