# generated using pymatgen
data_Li3Fe3TeO8
_symmetry_space_group_name_H-M   'P 1'
_cell_length_a   10.52292400
_cell_length_b   6.12935400
_cell_length_c   6.10394822
_cell_angle_alpha   90.00000000
_cell_angle_beta   123.75536330
_cell_angle_gamma   90.00000000
_symmetry_Int_Tables_number   1
_chemical_formula_structural   Li3Fe3TeO8
_chemical_formula_sum   'Li6 Fe6 Te2 O16'
_cell_volume   327.32652112
_cell_formula_units_Z   2
loop_
 _symmetry_equiv_pos_site_id
 _symmetry_equiv_pos_as_xyz
  1  'x, y, z'
loop_
 _atom_site_type_symbol
 _atom_site_label
 _atom_site_symmetry_multiplicity
 _atom_site_fract_x
 _atom_site_fract_y
 _atom_site_fract_z
 _atom_site_occupancy
  Li  Li0  1  0.25000000  0.25000000  0.50000000  1
  Li  Li1  1  0.25000000  0.75000000  0.50000000  1
  Li  Li2  1  0.00000000  0.00000000  0.00000000  1
  Li  Li3  1  0.75000000  0.75000000  0.50000000  1
  Li  Li4  1  0.75000000  0.25000000  0.50000000  1
  Li  Li5  1  0.50000000  0.50000000  0.00000000  1
  Fe  Fe6  1  0.25000000  0.75000000  0.00000000  1
  Fe  Fe7  1  0.25000000  0.25000000  0.00000000  1
  Fe  Fe8  1  0.50000000  0.00000000  0.50000000  1
  Fe  Fe9  1  0.75000000  0.25000000  0.00000000  1
  Fe  Fe10  1  0.75000000  0.75000000  0.00000000  1
  Fe  Fe11  1  0.00000000  0.50000000  0.50000000  1
  Te  Te12  1  0.00000000  0.00000000  0.50000000  1
  Te  Te13  1  0.50000000  0.50000000  0.50000000  1
  O  O14  1  0.72888400  0.00000000  0.74656500  1
  O  O15  1  0.50337250  0.26854150  0.27964900  1
  O  O16  1  0.50337250  0.73145850  0.27964900  1
  O  O17  1  0.27111600  0.00000000  0.25343500  1
  O  O18  1  0.22184200  0.00000000  0.71978200  1
  O  O19  1  0.49662750  0.73145850  0.72035100  1
  O  O20  1  0.49662750  0.26854150  0.72035100  1
  O  O21  1  0.77815800  0.00000000  0.28021800  1
  O  O22  1  0.22888400  0.50000000  0.74656500  1
  O  O23  1  0.00337250  0.76854150  0.27964900  1
  O  O24  1  0.00337250  0.23145850  0.27964900  1
  O  O25  1  0.77111600  0.50000000  0.25343500  1
  O  O26  1  0.72184200  0.50000000  0.71978200  1
  O  O27  1  0.99662750  0.23145850  0.72035100  1
  O  O28  1  0.99662750  0.76854150  0.72035100  1
  O  O29  1  0.27815800  0.50000000  0.28021800  1
