# generated using pymatgen
data_ErTa7O19
_symmetry_space_group_name_H-M   'P 1'
_cell_length_a   6.25786743
_cell_length_b   6.25786743
_cell_length_c   20.06707400
_cell_angle_alpha   90.00000000
_cell_angle_beta   90.00000000
_cell_angle_gamma   120.00000000
_symmetry_Int_Tables_number   1
_chemical_formula_structural   ErTa7O19
_chemical_formula_sum   'Er2 Ta14 O38'
_cell_volume   680.56153705
_cell_formula_units_Z   2
loop_
 _symmetry_equiv_pos_site_id
 _symmetry_equiv_pos_as_xyz
  1  'x, y, z'
loop_
 _atom_site_type_symbol
 _atom_site_label
 _atom_site_symmetry_multiplicity
 _atom_site_fract_x
 _atom_site_fract_y
 _atom_site_fract_z
 _atom_site_occupancy
  Er  Er0  1  0.66666667  0.33333333  0.50000000  1
  Er  Er1  1  0.66666667  0.33333333  0.00000000  1
  Ta  Ta2  1  0.69377467  0.02720433  0.65525100  1
  Ta  Ta3  1  0.69377467  0.02720433  0.84474900  1
  Ta  Ta4  1  0.97279567  0.30622533  0.34474900  1
  Ta  Ta5  1  0.97279567  0.30622533  0.15525100  1
  Ta  Ta6  1  0.69377467  0.66657033  0.15525100  1
  Ta  Ta7  1  0.69377467  0.66657033  0.34474900  1
  Ta  Ta8  1  0.00000000  0.00000000  0.00000000  1
  Ta  Ta9  1  0.00000000  0.00000000  0.50000000  1
  Ta  Ta10  1  0.97279567  0.66657033  0.65525100  1
  Ta  Ta11  1  0.97279567  0.66657033  0.84474900  1
  Ta  Ta12  1  0.33342967  0.30622533  0.65525100  1
  Ta  Ta13  1  0.33342967  0.30622533  0.84474900  1
  Ta  Ta14  1  0.33342967  0.02720433  0.34474900  1
  Ta  Ta15  1  0.33342967  0.02720433  0.15525100  1
  O  O16  1  0.33302567  0.41918733  0.34697200  1
  O  O17  1  0.33302567  0.41918733  0.15302800  1
  O  O18  1  0.37603267  0.29312933  0.75000000  1
  O  O19  1  0.58081267  0.66697433  0.84697200  1
  O  O20  1  0.58081267  0.66697433  0.65302800  1
  O  O21  1  0.37603267  0.08290333  0.25000000  1
  O  O22  1  0.33302567  0.91383833  0.65302800  1
  O  O23  1  0.33302567  0.91383833  0.84697200  1
  O  O24  1  0.70687067  0.62396733  0.25000000  1
  O  O25  1  0.66666667  0.33333333  0.63059700  1
  O  O26  1  0.66666667  0.33333333  0.36940300  1
  O  O27  1  0.66666667  0.33333333  0.13059700  1
  O  O28  1  0.66666667  0.33333333  0.86940300  1
  O  O29  1  0.91709667  0.62396733  0.75000000  1
  O  O30  1  0.58081267  0.91383833  0.15302800  1
  O  O31  1  0.58081267  0.91383833  0.34697200  1
  O  O32  1  0.70687067  0.08290333  0.75000000  1
  O  O33  1  0.76046067  0.05123333  0.55525600  1
  O  O34  1  0.76046067  0.05123333  0.94474400  1
  O  O35  1  0.08616167  0.66697433  0.34697200  1
  O  O36  1  0.08616167  0.66697433  0.15302800  1
  O  O37  1  0.91709667  0.29312933  0.25000000  1
  O  O38  1  0.94876667  0.23953933  0.05525600  1
  O  O39  1  0.94876667  0.23953933  0.44474400  1
  O  O40  1  0.08616167  0.41918733  0.65302800  1
  O  O41  1  0.08616167  0.41918733  0.84697200  1
  O  O42  1  0.76046067  0.70922733  0.05525600  1
  O  O43  1  0.76046067  0.70922733  0.44474400  1
  O  O44  1  0.00000000  0.00000000  0.83398600  1
  O  O45  1  0.00000000  0.00000000  0.16601400  1
  O  O46  1  0.00000000  0.00000000  0.33398600  1
  O  O47  1  0.00000000  0.00000000  0.66601400  1
  O  O48  1  0.94876667  0.70922733  0.55525600  1
  O  O49  1  0.94876667  0.70922733  0.94474400  1
  O  O50  1  0.29077267  0.23953933  0.55525600  1
  O  O51  1  0.29077267  0.23953933  0.94474400  1
  O  O52  1  0.29077267  0.05123333  0.44474400  1
  O  O53  1  0.29077267  0.05123333  0.05525600  1
