# generated using pymatgen
data_Y7HoO12
_symmetry_space_group_name_H-M   'P 1'
_cell_length_a   10.68441600
_cell_length_b   10.68488800
_cell_length_c   10.68596800
_cell_angle_alpha   90.00000000
_cell_angle_beta   90.00000000
_cell_angle_gamma   90.00000000
_symmetry_Int_Tables_number   1
_chemical_formula_structural   Y7HoO12
_chemical_formula_sum   'Y28 Ho4 O48'
_cell_volume   1219.92921665
_cell_formula_units_Z   4
loop_
 _symmetry_equiv_pos_site_id
 _symmetry_equiv_pos_as_xyz
  1  'x, y, z'
loop_
 _atom_site_type_symbol
 _atom_site_label
 _atom_site_symmetry_multiplicity
 _atom_site_fract_x
 _atom_site_fract_y
 _atom_site_fract_z
 _atom_site_occupancy
  Y  Y0  1  0.25000000  0.21734100  0.00000000  1
  Y  Y1  1  0.00003300  0.49937100  0.49982600  1
  Y  Y2  1  0.21719000  0.00000000  0.75000000  1
  Y  Y3  1  0.28281000  0.00000000  0.25000000  1
  Y  Y4  1  0.50000000  0.25000000  0.28327600  1
  Y  Y5  1  0.50000000  0.25000000  0.78210300  1
  Y  Y6  1  0.99996700  0.99937100  0.00017400  1
  Y  Y7  1  0.00003300  0.50062900  0.00017400  1
  Y  Y8  1  0.99996700  0.00062900  0.49982600  1
  Y  Y9  1  0.25000000  0.78265900  0.50000000  1
  Y  Y10  1  0.00000000  0.25000000  0.21789700  1
  Y  Y11  1  0.00000000  0.25000000  0.71672400  1
  Y  Y12  1  0.21783000  0.50000000  0.25000000  1
  Y  Y13  1  0.28217000  0.50000000  0.75000000  1
  Y  Y14  1  0.75000000  0.71734100  0.50000000  1
  Y  Y15  1  0.50003300  0.99937100  0.99982600  1
  Y  Y16  1  0.71719000  0.50000000  0.25000000  1
  Y  Y17  1  0.78281000  0.50000000  0.75000000  1
  Y  Y18  1  0.00000000  0.75000000  0.78327600  1
  Y  Y19  1  0.00000000  0.75000000  0.28210300  1
  Y  Y20  1  0.49996700  0.49937100  0.50017400  1
  Y  Y21  1  0.50003300  0.00062900  0.50017400  1
  Y  Y22  1  0.49996700  0.50062900  0.99982600  1
  Y  Y23  1  0.75000000  0.28265900  0.00000000  1
  Y  Y24  1  0.50000000  0.75000000  0.71789700  1
  Y  Y25  1  0.50000000  0.75000000  0.21672400  1
  Y  Y26  1  0.71783000  0.00000000  0.75000000  1
  Y  Y27  1  0.78217000  0.00000000  0.25000000  1
  Ho  Ho28  1  0.25000000  0.71706700  0.00000000  1
  Ho  Ho29  1  0.25000000  0.28293300  0.50000000  1
  Ho  Ho30  1  0.75000000  0.21706700  0.50000000  1
  Ho  Ho31  1  0.75000000  0.78293300  0.00000000  1
  O  O32  1  0.59822800  0.35943000  0.12988600  1
  O  O33  1  0.40177200  0.14057000  0.12988600  1
  O  O34  1  0.63002850  0.90132150  0.14023850  1
  O  O35  1  0.12974750  0.09835750  0.14101950  1
  O  O36  1  0.12974750  0.90164250  0.35898050  1
  O  O37  1  0.63002850  0.09867850  0.35976150  1
  O  O38  1  0.40177200  0.85943000  0.37011400  1
  O  O39  1  0.59822800  0.64057000  0.37011400  1
  O  O40  1  0.64084950  0.12982650  0.90150750  1
  O  O41  1  0.64158150  0.36952150  0.40224750  1
  O  O42  1  0.35915050  0.37017350  0.90150750  1
  O  O43  1  0.35841850  0.13047850  0.40224750  1
  O  O44  1  0.14084950  0.37017350  0.09849250  1
  O  O45  1  0.85915050  0.12982650  0.09849250  1
  O  O46  1  0.14158150  0.13047850  0.59775250  1
  O  O47  1  0.85841850  0.36952150  0.59775250  1
  O  O48  1  0.90045950  0.85827850  0.12926450  1
  O  O49  1  0.09954050  0.64172150  0.12926450  1
  O  O50  1  0.87025250  0.40164250  0.14101950  1
  O  O51  1  0.36997150  0.59867850  0.14023850  1
  O  O52  1  0.36997150  0.40132150  0.35976150  1
  O  O53  1  0.87025250  0.59835750  0.35898050  1
  O  O54  1  0.09954050  0.35827850  0.37073550  1
  O  O55  1  0.90045950  0.14172150  0.37073550  1
  O  O56  1  0.09822800  0.85943000  0.62988600  1
  O  O57  1  0.90177200  0.64057000  0.62988600  1
  O  O58  1  0.13002850  0.40132150  0.64023850  1
  O  O59  1  0.62974750  0.59835750  0.64101950  1
  O  O60  1  0.62974750  0.40164250  0.85898050  1
  O  O61  1  0.13002850  0.59867850  0.85976150  1
  O  O62  1  0.90177200  0.35943000  0.87011400  1
  O  O63  1  0.09822800  0.14057000  0.87011400  1
  O  O64  1  0.14084950  0.62982650  0.40150750  1
  O  O65  1  0.14158150  0.86952150  0.90224750  1
  O  O66  1  0.85915050  0.87017350  0.40150750  1
  O  O67  1  0.85841850  0.63047850  0.90224750  1
  O  O68  1  0.64084950  0.87017350  0.59849250  1
  O  O69  1  0.35915050  0.62982650  0.59849250  1
  O  O70  1  0.64158150  0.63047850  0.09775250  1
  O  O71  1  0.35841850  0.86952150  0.09775250  1
  O  O72  1  0.40045950  0.35827850  0.62926450  1
  O  O73  1  0.59954050  0.14172150  0.62926450  1
  O  O74  1  0.37025250  0.90164250  0.64101950  1
  O  O75  1  0.86997150  0.09867850  0.64023850  1
  O  O76  1  0.86997150  0.90132150  0.85976150  1
  O  O77  1  0.37025250  0.09835750  0.85898050  1
  O  O78  1  0.59954050  0.85827850  0.87073550  1
  O  O79  1  0.40045950  0.64172150  0.87073550  1
