# generated using pymatgen
data_Zr2N2O
_symmetry_space_group_name_H-M   'P 1'
_cell_length_a   8.86138900
_cell_length_b   8.86917957
_cell_length_c   8.88677238
_cell_angle_alpha   109.45604626
_cell_angle_beta   109.54543120
_cell_angle_gamma   109.31487095
_symmetry_Int_Tables_number   1
_chemical_formula_structural   Zr2N2O
_chemical_formula_sum   'Zr16 N16 O8'
_cell_volume   538.30270097
_cell_formula_units_Z   8
loop_
 _symmetry_equiv_pos_site_id
 _symmetry_equiv_pos_as_xyz
  1  'x, y, z'
loop_
 _atom_site_type_symbol
 _atom_site_label
 _atom_site_symmetry_multiplicity
 _atom_site_fract_x
 _atom_site_fract_y
 _atom_site_fract_z
 _atom_site_occupancy
  Zr  Zr0  1  0.48832100  0.49952400  0.50050900  1
  Zr  Zr1  1  0.79230200  0.54195100  0.25048300  1
  Zr  Zr2  1  0.52891500  0.75205100  0.27984900  1
  Zr  Zr3  1  0.03209200  0.74348500  0.78295700  1
  Zr  Zr4  1  0.70392200  0.96348700  0.75033100  1
  Zr  Zr5  1  0.99846100  0.51056100  0.00240900  1
  Zr  Zr6  1  0.25201200  0.29282900  0.03398200  1
  Zr  Zr7  1  0.50972900  0.00017400  0.00163400  1
  Zr  Zr8  1  0.00691400  0.99587300  0.49706600  1
  Zr  Zr9  1  0.75855800  0.21620200  0.46671800  1
  Zr  Zr10  1  0.74665200  0.71206900  0.97074800  1
  Zr  Zr11  1  0.24730700  0.78598900  0.53064200  1
  Zr  Zr12  1  0.28217400  0.03046500  0.24785500  1
  Zr  Zr13  1  0.46265800  0.25145100  0.71763700  1
  Zr  Zr14  1  0.97479500  0.25068300  0.22007700  1
  Zr  Zr15  1  0.21315900  0.45611600  0.74958500  1
  N  N16  1  0.23150600  0.26215600  0.26955200  1
  N  N17  1  0.46115400  0.72690500  0.48968000  1
  N  N18  1  0.75742900  0.77185100  0.22974600  1
  N  N19  1  0.49260000  0.96055500  0.23038400  1
  N  N20  1  0.04398300  0.52826600  0.27091700  1
  N  N21  1  0.99065900  0.76239200  0.53779900  1
  N  N22  1  0.27260100  0.54153300  0.03599900  1
  N  N23  1  0.23842500  0.22501100  0.77349700  1
  N  N24  1  0.03301500  0.77412100  0.04331100  1
  N  N25  1  0.95143700  0.46764800  0.72456400  1
  N  N26  1  0.00521600  0.23535600  0.46267300  1
  N  N27  1  0.73928200  0.96984100  0.01028800  1
  N  N28  1  0.51025400  0.04308800  0.77376300  1
  N  N29  1  0.22786800  0.98795700  0.45290600  1
  N  N30  1  0.72681300  0.45383000  0.96585700  1
  N  N31  1  0.46243200  0.51278200  0.73282400  1
  O  O32  1  0.53592300  0.48042300  0.25965900  1
  O  O33  1  0.72028700  0.27329200  0.23736500  1
  O  O34  1  0.77291300  0.73642900  0.72620500  1
  O  O35  1  0.96645800  0.22156600  0.94679700  1
  O  O36  1  0.77529200  0.02001200  0.55379600  1
  O  O37  1  0.54792000  0.27601500  0.51225900  1
  O  O38  1  0.27623300  0.73326700  0.77200700  1
  O  O39  1  0.26232900  0.03279400  0.98567400  1
