# generated using pymatgen
data_Li7CuAs4ClO14
_symmetry_space_group_name_H-M   'P 1'
_cell_length_a   10.25202200
_cell_length_b   8.49373600
_cell_length_c   15.15804081
_cell_angle_alpha   90.00000000
_cell_angle_beta   95.52950699
_cell_angle_gamma   90.00000000
_symmetry_Int_Tables_number   1
_chemical_formula_structural   Li7CuAs4ClO14
_chemical_formula_sum   'Li28 Cu4 As16 Cl4 O56'
_cell_volume   1313.78936971
_cell_formula_units_Z   4
loop_
 _symmetry_equiv_pos_site_id
 _symmetry_equiv_pos_as_xyz
  1  'x, y, z'
loop_
 _atom_site_type_symbol
 _atom_site_label
 _atom_site_symmetry_multiplicity
 _atom_site_fract_x
 _atom_site_fract_y
 _atom_site_fract_z
 _atom_site_occupancy
  Li  Li0  1  0.29617350  0.70993750  0.81938300  1
  Li  Li1  1  0.40847400  0.20886800  0.82256100  1
  Li  Li2  1  0.29617350  0.29006250  0.31938300  1
  Li  Li3  1  0.40847400  0.79113200  0.32256100  1
  Li  Li4  1  0.46435000  0.42491400  0.49536700  1
  Li  Li5  1  0.57516350  0.94065650  0.80864100  1
  Li  Li6  1  0.46435000  0.57508600  0.99536700  1
  Li  Li7  1  0.64932650  0.23087250  0.97353900  1
  Li  Li8  1  0.57516350  0.05934350  0.30864100  1
  Li  Li9  1  0.64932650  0.76912750  0.47353900  1
  Li  Li10  1  0.73616500  0.75966100  0.00432000  1
  Li  Li11  1  0.73616500  0.24033900  0.50432000  1
  Li  Li12  1  0.77901950  0.91060550  0.65837700  1
  Li  Li13  1  0.77901950  0.08939450  0.15837700  1
  Li  Li14  1  0.79617350  0.20993750  0.81938300  1
  Li  Li15  1  0.90847400  0.70886800  0.82256100  1
  Li  Li16  1  0.79617350  0.79006250  0.31938300  1
  Li  Li17  1  0.90847400  0.29113200  0.32256100  1
  Li  Li18  1  0.96435000  0.92491400  0.49536700  1
  Li  Li19  1  0.07516350  0.44065650  0.80864100  1
  Li  Li20  1  0.96435000  0.07508600  0.99536700  1
  Li  Li21  1  0.14932650  0.73087250  0.97353900  1
  Li  Li22  1  0.07516350  0.55934350  0.30864100  1
  Li  Li23  1  0.14932650  0.26912750  0.47353900  1
  Li  Li24  1  0.23616500  0.25966100  0.00432000  1
  Li  Li25  1  0.23616500  0.74033900  0.50432000  1
  Li  Li26  1  0.27901950  0.41060550  0.65837700  1
  Li  Li27  1  0.27901950  0.58939450  0.15837700  1
  Cu  Cu28  1  0.28350850  0.00433150  0.65991600  1
  Cu  Cu29  1  0.28350850  0.99566850  0.15991600  1
  Cu  Cu30  1  0.78350850  0.50433150  0.65991600  1
  Cu  Cu31  1  0.78350850  0.49566850  0.15991600  1
  As  As32  1  0.11411200  0.01576000  0.82983800  1
  As  As33  1  0.11411200  0.98424000  0.32983800  1
  As  As34  1  0.42627600  0.94572800  0.98294700  1
  As  As35  1  0.42627600  0.05427200  0.48294700  1
  As  As36  1  0.48329400  0.68607600  0.65508300  1
  As  As37  1  0.48329400  0.31392400  0.15508300  1
  As  As38  1  0.57081400  0.19159700  0.65716600  1
  As  As39  1  0.57081400  0.80840300  0.15716600  1
  As  As40  1  0.61411200  0.51576000  0.82983800  1
  As  As41  1  0.61411200  0.48424000  0.32983800  1
  As  As42  1  0.92627600  0.44572800  0.98294700  1
  As  As43  1  0.92627600  0.55427200  0.48294700  1
  As  As44  1  0.98329400  0.18607600  0.65508300  1
  As  As45  1  0.98329400  0.81392400  0.15508300  1
  As  As46  1  0.07081400  0.69159700  0.65716600  1
  As  As47  1  0.07081400  0.30840300  0.15716600  1
  Cl  Cl48  1  0.79896350  0.92555450  0.88462500  1
  Cl  Cl49  1  0.79896350  0.07444550  0.38462500  1
  Cl  Cl50  1  0.29896350  0.42555450  0.88462500  1
  Cl  Cl51  1  0.29896350  0.57444550  0.38462500  1
  O  O52  1  0.25592050  0.05635650  0.78221800  1
  O  O53  1  0.25592050  0.94364350  0.28221800  1
  O  O54  1  0.35182500  0.76860400  0.95954500  1
  O  O55  1  0.33060000  0.93828000  0.54251800  1
  O  O56  1  0.35182500  0.23139600  0.45954500  1
  O  O57  1  0.33060000  0.06172000  0.04251800  1
  O  O58  1  0.41031250  0.20197250  0.68132900  1
  O  O59  1  0.43488250  0.83548250  0.72124100  1
  O  O60  1  0.49283950  0.04909950  0.90341400  1
  O  O61  1  0.48767300  0.53474700  0.74109200  1
  O  O62  1  0.41031250  0.79802750  0.18132900  1
  O  O63  1  0.43488250  0.16451750  0.22124100  1
  O  O64  1  0.49283950  0.95090050  0.40341400  1
  O  O65  1  0.48767300  0.46525300  0.24109200  1
  O  O66  1  0.60400700  0.32114700  0.85536700  1
  O  O67  1  0.59308950  0.64306150  0.91290800  1
  O  O68  1  0.57453950  0.08252150  0.55501900  1
  O  O69  1  0.62526200  0.36634800  0.61934100  1
  O  O70  1  0.60400700  0.67885300  0.35536700  1
  O  O71  1  0.62705500  0.72668800  0.61029900  1
  O  O72  1  0.59308950  0.35693850  0.41290800  1
  O  O73  1  0.57453950  0.91747850  0.05501900  1
  O  O74  1  0.67255800  0.08262700  0.72816200  1
  O  O75  1  0.62526200  0.63365200  0.11934100  1
  O  O76  1  0.62705500  0.27331200  0.11029900  1
  O  O77  1  0.67255800  0.91737300  0.22816200  1
  O  O78  1  0.87126250  0.09056150  0.58321800  1
  O  O79  1  0.87126250  0.90943850  0.08321800  1
  O  O80  1  0.75592050  0.55635650  0.78221800  1
  O  O81  1  0.75592050  0.44364350  0.28221800  1
  O  O82  1  0.85182500  0.26860400  0.95954500  1
  O  O83  1  0.83060000  0.43828000  0.54251800  1
  O  O84  1  0.85182500  0.73139600  0.45954500  1
  O  O85  1  0.83060000  0.56172000  0.04251800  1
  O  O86  1  0.91031250  0.70197250  0.68132900  1
  O  O87  1  0.93488250  0.33548250  0.72124100  1
  O  O88  1  0.99283950  0.54909950  0.90341400  1
  O  O89  1  0.98767300  0.03474700  0.74109200  1
  O  O90  1  0.91031250  0.29802750  0.18132900  1
  O  O91  1  0.93488250  0.66451750  0.22124100  1
  O  O92  1  0.99283950  0.45090050  0.40341400  1
  O  O93  1  0.98767300  0.96525300  0.24109200  1
  O  O94  1  0.10400700  0.82114700  0.85536700  1
  O  O95  1  0.09308950  0.14306150  0.91290800  1
  O  O96  1  0.07453950  0.58252150  0.55501900  1
  O  O97  1  0.12526200  0.86634800  0.61934100  1
  O  O98  1  0.10400700  0.17885300  0.35536700  1
  O  O99  1  0.12705500  0.22668800  0.61029900  1
  O  O100  1  0.09308950  0.85693850  0.41290800  1
  O  O101  1  0.07453950  0.41747850  0.05501900  1
  O  O102  1  0.17255800  0.58262700  0.72816200  1
  O  O103  1  0.12526200  0.13365200  0.11934100  1
  O  O104  1  0.12705500  0.77331200  0.11029900  1
  O  O105  1  0.17255800  0.41737300  0.22816200  1
  O  O106  1  0.37126250  0.59056150  0.58321800  1
  O  O107  1  0.37126250  0.40943850  0.08321800  1
