# generated using pymatgen
data_Li3MnV(PO4)3
_symmetry_space_group_name_H-M   'P 1'
_cell_length_a   11.65839400
_cell_length_b   12.80470400
_cell_length_c   6.32692517
_cell_angle_alpha   90.00000000
_cell_angle_beta   113.83373631
_cell_angle_gamma   90.00000000
_symmetry_Int_Tables_number   1
_chemical_formula_structural   Li3MnV(PO4)3
_chemical_formula_sum   'Li12 Mn4 V4 P12 O48'
_cell_volume   863.95285858
_cell_formula_units_Z   4
loop_
 _symmetry_equiv_pos_site_id
 _symmetry_equiv_pos_as_xyz
  1  'x, y, z'
loop_
 _atom_site_type_symbol
 _atom_site_label
 _atom_site_symmetry_multiplicity
 _atom_site_fract_x
 _atom_site_fract_y
 _atom_site_fract_z
 _atom_site_occupancy
  Li  Li0  1  0.49936100  0.50400000  0.75110200  1
  Li  Li1  1  0.49906900  0.78834600  0.25074800  1
  Li  Li2  1  0.49991300  0.99987100  0.49958800  1
  Li  Li3  1  0.49991300  0.00012900  0.99958800  1
  Li  Li4  1  0.49906900  0.21165400  0.75074800  1
  Li  Li5  1  0.49936100  0.49600000  0.25110200  1
  Li  Li6  1  0.99936100  0.00400000  0.75110200  1
  Li  Li7  1  0.99906900  0.28834600  0.25074800  1
  Li  Li8  1  0.99991300  0.49987100  0.49958800  1
  Li  Li9  1  0.99991300  0.50012900  0.99958800  1
  Li  Li10  1  0.99906900  0.71165400  0.75074800  1
  Li  Li11  1  0.99936100  0.99600000  0.25110200  1
  Mn  Mn12  1  0.78423500  0.84045600  0.86926200  1
  Mn  Mn13  1  0.78423500  0.15954400  0.36926200  1
  Mn  Mn14  1  0.28423500  0.34045600  0.86926200  1
  Mn  Mn15  1  0.28423500  0.65954400  0.36926200  1
  V  V16  1  0.21728550  0.84100850  0.63958700  1
  V  V17  1  0.21728550  0.15899150  0.13958700  1
  V  V18  1  0.71728550  0.34100850  0.63958700  1
  V  V19  1  0.71728550  0.65899150  0.13958700  1
  P  P20  1  0.50054100  0.78632900  0.75068300  1
  P  P21  1  0.23683650  0.90224950  0.13663900  1
  P  P22  1  0.23683650  0.09775050  0.63663900  1
  P  P23  1  0.76345600  0.89720300  0.36542300  1
  P  P24  1  0.76345600  0.10279700  0.86542300  1
  P  P25  1  0.50054100  0.21367100  0.25068300  1
  P  P26  1  0.00054100  0.28632900  0.75068300  1
  P  P27  1  0.73683650  0.40224950  0.13663900  1
  P  P28  1  0.73683650  0.59775050  0.63663900  1
  P  P29  1  0.26345600  0.39720300  0.36542300  1
  P  P30  1  0.26345600  0.60279700  0.86542300  1
  P  P31  1  0.00054100  0.71367100  0.25068300  1
  O  O32  1  0.17579250  0.83748650  0.91011000  1
  O  O33  1  0.21991650  0.83389150  0.32680300  1
  O  O34  1  0.54191700  0.71603100  0.96727000  1
  O  O35  1  0.45420850  0.71778150  0.52628100  1
  O  O36  1  0.15486450  0.99630350  0.59903800  1
  O  O37  1  0.40219450  0.86363650  0.76803000  1
  O  O38  1  0.15486450  0.00369650  0.09903800  1
  O  O39  1  0.37627900  0.92159900  0.20460700  1
  O  O40  1  0.21991650  0.16610850  0.82680300  1
  O  O41  1  0.17579250  0.16251350  0.41011000  1
  O  O42  1  0.60212050  0.86006550  0.72889500  1
  O  O43  1  0.37627900  0.07840100  0.70460700  1
  O  O44  1  0.62502800  0.92123300  0.29465700  1
  O  O45  1  0.40219450  0.13636350  0.26803000  1
  O  O46  1  0.82330150  0.83509350  0.59675300  1
  O  O47  1  0.77431450  0.82094850  0.17411800  1
  O  O48  1  0.62502800  0.07876700  0.79465700  1
  O  O49  1  0.84936500  0.00609900  0.89040400  1
  O  O50  1  0.60212050  0.13993450  0.22889500  1
  O  O51  1  0.84936500  0.99390100  0.39040400  1
  O  O52  1  0.54191700  0.28396900  0.46727000  1
  O  O53  1  0.45420850  0.28221850  0.02628100  1
  O  O54  1  0.77431450  0.17905150  0.67411800  1
  O  O55  1  0.82330150  0.16490650  0.09675300  1
  O  O56  1  0.67579250  0.33748650  0.91011000  1
  O  O57  1  0.71991650  0.33389150  0.32680300  1
  O  O58  1  0.04191700  0.21603100  0.96727000  1
  O  O59  1  0.95420850  0.21778150  0.52628100  1
  O  O60  1  0.65486450  0.49630350  0.59903800  1
  O  O61  1  0.90219450  0.36363650  0.76803000  1
  O  O62  1  0.65486450  0.50369650  0.09903800  1
  O  O63  1  0.87627900  0.42159900  0.20460700  1
  O  O64  1  0.71991650  0.66610850  0.82680300  1
  O  O65  1  0.67579250  0.66251350  0.41011000  1
  O  O66  1  0.10212050  0.36006550  0.72889500  1
  O  O67  1  0.87627900  0.57840100  0.70460700  1
  O  O68  1  0.12502800  0.42123300  0.29465700  1
  O  O69  1  0.90219450  0.63636350  0.26803000  1
  O  O70  1  0.32330150  0.33509350  0.59675300  1
  O  O71  1  0.27431450  0.32094850  0.17411800  1
  O  O72  1  0.12502800  0.57876700  0.79465700  1
  O  O73  1  0.34936500  0.50609900  0.89040400  1
  O  O74  1  0.10212050  0.63993450  0.22889500  1
  O  O75  1  0.34936500  0.49390100  0.39040400  1
  O  O76  1  0.04191700  0.78396900  0.46727000  1
  O  O77  1  0.95420850  0.78221850  0.02628100  1
  O  O78  1  0.27431450  0.67905150  0.67411800  1
  O  O79  1  0.32330150  0.66490650  0.09675300  1
