# generated using pymatgen
data_LiNiPO4
_symmetry_space_group_name_H-M   'P 1'
_cell_length_a   4.72372600
_cell_length_b   10.17909100
_cell_length_c   5.91542501
_cell_angle_alpha   90.00000000
_cell_angle_beta   90.13739358
_cell_angle_gamma   90.00000000
_symmetry_Int_Tables_number   1
_chemical_formula_structural   LiNiPO4
_chemical_formula_sum   'Li4 Ni4 P4 O16'
_cell_volume   284.43196371
_cell_formula_units_Z   4
loop_
 _symmetry_equiv_pos_site_id
 _symmetry_equiv_pos_as_xyz
  1  'x, y, z'
loop_
 _atom_site_type_symbol
 _atom_site_label
 _atom_site_symmetry_multiplicity
 _atom_site_fract_x
 _atom_site_fract_y
 _atom_site_fract_z
 _atom_site_occupancy
  Li  Li0  1  0.25468600  0.70427700  0.25138400  1
  Li  Li1  1  0.74924000  0.19897000  0.24564300  1
  Li  Li2  1  0.25076000  0.69897000  0.75435700  1
  Li  Li3  1  0.74531400  0.20427700  0.74861600  1
  Ni  Ni4  1  0.26210200  0.97865500  0.99341600  1
  Ni  Ni5  1  0.76216300  0.92760300  0.49541600  1
  Ni  Ni6  1  0.23783700  0.42760300  0.50458400  1
  Ni  Ni7  1  0.73789800  0.47865500  0.00658400  1
  P  P8  1  0.83016800  0.79782400  0.99718600  1
  P  P9  1  0.32597000  0.10849600  0.49637200  1
  P  P10  1  0.67403000  0.60849600  0.50362800  1
  P  P11  1  0.16983200  0.29782400  0.00281400  1
  O  O12  1  0.95225600  0.65591300  0.00707000  1
  O  O13  1  0.50547500  0.80194000  0.99637100  1
  O  O14  1  0.02903600  0.36572400  0.21394500  1
  O  O15  1  0.96921800  0.87346000  0.20157900  1
  O  O16  1  0.46657200  0.03872900  0.28693500  1
  O  O17  1  0.55274400  0.75046100  0.49775900  1
  O  O18  1  0.00135300  0.10387100  0.49541500  1
  O  O19  1  0.53240800  0.53515800  0.29766800  1
  O  O20  1  0.46759200  0.03515800  0.70233200  1
  O  O21  1  0.99864700  0.60387100  0.50458500  1
  O  O22  1  0.44725600  0.25046100  0.50224100  1
  O  O23  1  0.53342800  0.53872900  0.71306500  1
  O  O24  1  0.03078200  0.37346000  0.79842100  1
  O  O25  1  0.97096400  0.86572400  0.78605500  1
  O  O26  1  0.49452500  0.30194000  0.00362900  1
  O  O27  1  0.04774400  0.15591300  0.99293000  1
