# generated using pymatgen
data_Hf3Tl10Mo12PbO48
_symmetry_space_group_name_H-M   'P 1'
_cell_length_a   10.93258607
_cell_length_b   10.93258607
_cell_length_c   39.52394516
_cell_angle_alpha   90.00000000
_cell_angle_beta   90.00000000
_cell_angle_gamma   120.00000000
_symmetry_Int_Tables_number   1
_chemical_formula_structural   Hf3Tl10Mo12PbO48
_chemical_formula_sum   'Hf9 Tl30 Mo36 Pb3 O144'
_cell_volume   4091.06829764
_cell_formula_units_Z   3
loop_
 _symmetry_equiv_pos_site_id
 _symmetry_equiv_pos_as_xyz
  1  'x, y, z'
loop_
 _atom_site_type_symbol
 _atom_site_label
 _atom_site_symmetry_multiplicity
 _atom_site_fract_x
 _atom_site_fract_y
 _atom_site_fract_z
 _atom_site_occupancy
  Hf  Hf0  1  0.00000000  0.00000000  0.00000000  1
  Hf  Hf1  1  0.66666667  0.33333333  0.08252033  1
  Hf  Hf2  1  0.00000000  0.00000000  0.25081300  1
  Hf  Hf3  1  0.66666667  0.33333333  0.33333333  1
  Hf  Hf4  1  0.33333333  0.66666667  0.41585367  1
  Hf  Hf5  1  0.66666667  0.33333333  0.58414633  1
  Hf  Hf6  1  0.33333333  0.66666667  0.66666667  1
  Hf  Hf7  1  0.00000000  0.00000000  0.74918700  1
  Hf  Hf8  1  0.33333333  0.66666667  0.91747967  1
  Tl  Tl9  1  0.66666667  0.33333333  0.18657733  1
  Tl  Tl10  1  0.33333333  0.66666667  0.29308467  1
  Tl  Tl11  1  0.99615633  0.60645567  0.24593867  1
  Tl  Tl12  1  0.61029933  0.00384367  0.24593867  1
  Tl  Tl13  1  0.39354433  0.38970067  0.24593867  1
  Tl  Tl14  1  0.27312233  0.94363267  0.08739467  1
  Tl  Tl15  1  0.05636733  0.32948967  0.08739467  1
  Tl  Tl16  1  0.67051033  0.72687767  0.08739467  1
  Tl  Tl17  1  0.33333333  0.66666667  0.04024867  1
  Tl  Tl18  1  0.00000000  0.00000000  0.14675600  1
  Tl  Tl19  1  0.33333333  0.66666667  0.51991067  1
  Tl  Tl20  1  0.00000000  0.00000000  0.62641800  1
  Tl  Tl21  1  0.66282300  0.93978900  0.57927200  1
  Tl  Tl22  1  0.27696600  0.33717700  0.57927200  1
  Tl  Tl23  1  0.06021100  0.72303400  0.57927200  1
  Tl  Tl24  1  0.93978900  0.27696600  0.42072800  1
  Tl  Tl25  1  0.72303400  0.66282300  0.42072800  1
  Tl  Tl26  1  0.33717700  0.06021100  0.42072800  1
  Tl  Tl27  1  0.00000000  0.00000000  0.37358200  1
  Tl  Tl28  1  0.66666667  0.33333333  0.48008933  1
  Tl  Tl29  1  0.00000000  0.00000000  0.85324400  1
  Tl  Tl30  1  0.66666667  0.33333333  0.95975133  1
  Tl  Tl31  1  0.32948967  0.27312233  0.91260533  1
  Tl  Tl32  1  0.94363267  0.67051033  0.91260533  1
  Tl  Tl33  1  0.72687767  0.05636733  0.91260533  1
  Tl  Tl34  1  0.60645567  0.61029933  0.75406133  1
  Tl  Tl35  1  0.38970067  0.99615633  0.75406133  1
  Tl  Tl36  1  0.00384367  0.39354433  0.75406133  1
  Tl  Tl37  1  0.66666667  0.33333333  0.70691533  1
  Tl  Tl38  1  0.33333333  0.66666667  0.81342267  1
  Mo  Mo39  1  0.35432100  0.28147500  0.03150400  1
  Mo  Mo40  1  0.92715400  0.64567900  0.03150400  1
  Mo  Mo41  1  0.71852500  0.07284600  0.03150400  1
  Mo  Mo42  1  0.28041733  0.96972767  0.20231767  1
  Mo  Mo43  1  0.03027233  0.31068967  0.20231767  1
  Mo  Mo44  1  0.68931033  0.71958267  0.20231767  1
  Mo  Mo45  1  0.97735633  0.61375067  0.13101567  1
  Mo  Mo46  1  0.63639433  0.02264367  0.13101567  1
  Mo  Mo47  1  0.38624933  0.36360567  0.13101567  1
  Mo  Mo48  1  0.94814167  0.26048733  0.30182933  1
  Mo  Mo49  1  0.73951267  0.68765433  0.30182933  1
  Mo  Mo50  1  0.31234567  0.05185833  0.30182933  1
  Mo  Mo51  1  0.02098767  0.61480833  0.36483733  1
  Mo  Mo52  1  0.59382067  0.97901233  0.36483733  1
  Mo  Mo53  1  0.38519167  0.40617933  0.36483733  1
  Mo  Mo54  1  0.94708400  0.30306100  0.53565100  1
  Mo  Mo55  1  0.69693900  0.64402300  0.53565100  1
  Mo  Mo56  1  0.35597700  0.05291600  0.53565100  1
  Mo  Mo57  1  0.64402300  0.94708400  0.46434900  1
  Mo  Mo58  1  0.30306100  0.35597700  0.46434900  1
  Mo  Mo59  1  0.05291600  0.69693900  0.46434900  1
  Mo  Mo60  1  0.61480833  0.59382067  0.63516267  1
  Mo  Mo61  1  0.40617933  0.02098767  0.63516267  1
  Mo  Mo62  1  0.97901233  0.38519167  0.63516267  1
  Mo  Mo63  1  0.68765433  0.94814167  0.69817067  1
  Mo  Mo64  1  0.26048733  0.31234567  0.69817067  1
  Mo  Mo65  1  0.05185833  0.73951267  0.69817067  1
  Mo  Mo66  1  0.61375067  0.63639433  0.86898433  1
  Mo  Mo67  1  0.36360567  0.97735633  0.86898433  1
  Mo  Mo68  1  0.02264367  0.38624933  0.86898433  1
  Mo  Mo69  1  0.31068967  0.28041733  0.79768233  1
  Mo  Mo70  1  0.96972767  0.68931033  0.79768233  1
  Mo  Mo71  1  0.71958267  0.03027233  0.79768233  1
  Mo  Mo72  1  0.28147500  0.92715400  0.96849600  1
  Mo  Mo73  1  0.07284600  0.35432100  0.96849600  1
  Mo  Mo74  1  0.64567900  0.71852500  0.96849600  1
  Pb  Pb75  1  0.33333333  0.66666667  0.16666667  1
  Pb  Pb76  1  1.00000000  0.00000000  0.50000000  1
  Pb  Pb77  1  0.66666667  0.33333333  0.83333333  1
  O  O78  1  0.56034567  0.40359133  0.11284333  1
  O  O79  1  0.84324567  0.43965433  0.11284333  1
  O  O80  1  0.59640867  0.15675433  0.11284333  1
  O  O81  1  0.17369567  0.12671733  0.03052133  1
  O  O82  1  0.48460600  0.24517600  0.05240000  1
  O  O83  1  0.76057000  0.51539400  0.05240000  1
  O  O84  1  0.95302167  0.82630433  0.03052133  1
  O  O85  1  0.75482400  0.23943000  0.05240000  1
  O  O86  1  0.07273733  0.66310267  0.32278067  1
  O  O87  1  0.59036533  0.92726267  0.32278067  1
  O  O88  1  0.31399900  0.91027500  0.28104700  1
  O  O89  1  0.87328267  0.04697833  0.03052133  1
  O  O90  1  0.33689733  0.40963467  0.32278067  1
  O  O91  1  0.08972500  0.40372400  0.28104700  1
  O  O92  1  0.42599167  0.12140633  0.22107433  1
  O  O93  1  0.59627600  0.68600100  0.28104700  1
  O  O94  1  0.87859367  0.30458533  0.22107433  1
  O  O95  1  0.30588967  0.82174133  0.20870033  1
  O  O96  1  0.94927933  0.61106067  0.17520767  1
  O  O97  1  0.17825867  0.48414833  0.20870033  1
  O  O98  1  0.27772733  0.99511467  0.15812567  1
  O  O99  1  0.51585167  0.69411033  0.20870033  1
  O  O100  1  0.66178133  0.05072067  0.17520767  1
  O  O101  1  0.69541467  0.57400833  0.22107433  1
  O  O102  1  0.97125200  0.75932500  0.11225900  1
  O  O103  1  0.00488533  0.28261267  0.15812567  1
  O  O104  1  0.15081500  0.63922300  0.12463300  1
  O  O105  1  0.38893933  0.33821867  0.17520767  1
  O  O106  1  0.48840800  0.84918500  0.12463300  1
  O  O107  1  0.71738733  0.72227267  0.15812567  1
  O  O108  1  0.36077700  0.51159200  0.12463300  1
  O  O109  1  0.78807300  0.02874800  0.11225900  1
  O  O110  1  0.07039067  0.64733233  0.05228633  1
  O  O111  1  0.24067500  0.21192700  0.11225900  1
  O  O112  1  0.57694167  0.92960933  0.05228633  1
  O  O113  1  0.32976933  0.92369867  0.01055267  1
  O  O114  1  0.79338400  0.28635500  0.30281200  1
  O  O115  1  0.35266767  0.42305833  0.05228633  1
  O  O116  1  0.07630133  0.40607067  0.01055267  1
  O  O117  1  0.59392933  0.67023067  0.01055267  1
  O  O118  1  0.91184267  0.09390333  0.28093333  1
  O  O119  1  0.71364500  0.50702900  0.30281200  1
  O  O120  1  0.90609667  0.81793933  0.28093333  1
  O  O121  1  0.18206067  0.08815733  0.28093333  1
  O  O122  1  0.49297100  0.20661600  0.30281200  1
  O  O123  1  0.07025800  0.17657900  0.22049000  1
  O  O124  1  0.82342100  0.89367900  0.22049000  1
  O  O125  1  0.10632100  0.92974200  0.22049000  1
  O  O126  1  0.22701233  0.73692467  0.44617667  1
  O  O127  1  0.50991233  0.77298767  0.44617667  1
  O  O128  1  0.26307533  0.49008767  0.44617667  1
  O  O129  1  0.84036233  0.46005067  0.36385467  1
  O  O130  1  0.15127267  0.57850933  0.38573333  1
  O  O131  1  0.42723667  0.84872733  0.38573333  1
  O  O132  1  0.61968833  0.15963767  0.36385467  1
  O  O133  1  0.42149067  0.57276333  0.38573333  1
  O  O134  1  0.73940400  0.99643600  0.65611400  1
  O  O135  1  0.25703200  0.26059600  0.65611400  1
  O  O136  1  0.98066567  0.24360833  0.61438033  1
  O  O137  1  0.53994933  0.38031167  0.36385467  1
  O  O138  1  0.00356400  0.74296800  0.65611400  1
  O  O139  1  0.75639167  0.73705733  0.61438033  1
  O  O140  1  0.09265833  0.45473967  0.55440767  1
  O  O141  1  0.26294267  0.01933433  0.61438033  1
  O  O142  1  0.54526033  0.63791867  0.55440767  1
  O  O143  1  0.97255633  0.15507467  0.54203367  1
  O  O144  1  0.61594600  0.94439400  0.50854100  1
  O  O145  1  0.84492533  0.81748167  0.54203367  1
  O  O146  1  0.94439400  0.32844800  0.49145900  1
  O  O147  1  0.18251833  0.02744367  0.54203367  1
  O  O148  1  0.32844800  0.38405400  0.50854100  1
  O  O149  1  0.36208133  0.90734167  0.55440767  1
  O  O150  1  0.63791867  0.09265833  0.44559233  1
  O  O151  1  0.67155200  0.61594600  0.49145900  1
  O  O152  1  0.81748167  0.97255633  0.45796633  1
  O  O153  1  0.05560600  0.67155200  0.50854100  1
  O  O154  1  0.15507467  0.18251833  0.45796633  1
  O  O155  1  0.38405400  0.05560600  0.49145900  1
  O  O156  1  0.02744367  0.84492533  0.45796633  1
  O  O157  1  0.45473967  0.36208133  0.44559233  1
  O  O158  1  0.73705733  0.98066567  0.38561967  1
  O  O159  1  0.90734167  0.54526033  0.44559233  1
  O  O160  1  0.24360833  0.26294267  0.38561967  1
  O  O161  1  0.99643600  0.25703200  0.34388600  1
  O  O162  1  0.46005067  0.61968833  0.63614533  1
  O  O163  1  0.01933433  0.75639167  0.38561967  1
  O  O164  1  0.74296800  0.73940400  0.34388600  1
  O  O165  1  0.26059600  0.00356400  0.34388600  1
  O  O166  1  0.57850933  0.42723667  0.61426667  1
  O  O167  1  0.38031167  0.84036233  0.63614533  1
  O  O168  1  0.57276333  0.15127267  0.61426667  1
  O  O169  1  0.84872733  0.42149067  0.61426667  1
  O  O170  1  0.15963767  0.53994933  0.63614533  1
  O  O171  1  0.73692467  0.50991233  0.55382333  1
  O  O172  1  0.49008767  0.22701233  0.55382333  1
  O  O173  1  0.77298767  0.26307533  0.55382333  1
  O  O174  1  0.89367900  0.07025800  0.77951000  1
  O  O175  1  0.17657900  0.10632100  0.77951000  1
  O  O176  1  0.92974200  0.82342100  0.77951000  1
  O  O177  1  0.50702900  0.79338400  0.69718800  1
  O  O178  1  0.81793933  0.91184267  0.71906667  1
  O  O179  1  0.09390333  0.18206067  0.71906667  1
  O  O180  1  0.28635500  0.49297100  0.69718800  1
  O  O181  1  0.08815733  0.90609667  0.71906667  1
  O  O182  1  0.40607067  0.32976933  0.98944733  1
  O  O183  1  0.92369867  0.59392933  0.98944733  1
  O  O184  1  0.64733233  0.57694167  0.94771367  1
  O  O185  1  0.20661600  0.71364500  0.69718800  1
  O  O186  1  0.67023067  0.07630133  0.98944733  1
  O  O187  1  0.42305833  0.07039067  0.94771367  1
  O  O188  1  0.75932500  0.78807300  0.88774100  1
  O  O189  1  0.92960933  0.35266767  0.94771367  1
  O  O190  1  0.21192700  0.97125200  0.88774100  1
  O  O191  1  0.63922300  0.48840800  0.87536700  1
  O  O192  1  0.28261267  0.27772733  0.84187433  1
  O  O193  1  0.51159200  0.15081500  0.87536700  1
  O  O194  1  0.61106067  0.66178133  0.82479233  1
  O  O195  1  0.84918500  0.36077700  0.87536700  1
  O  O196  1  0.99511467  0.71738733  0.84187433  1
  O  O197  1  0.02874800  0.24067500  0.88774100  1
  O  O198  1  0.30458533  0.42599167  0.77892567  1
  O  O199  1  0.33821867  0.94927933  0.82479233  1
  O  O200  1  0.48414833  0.30588967  0.79129967  1
  O  O201  1  0.72227267  0.00488533  0.84187433  1
  O  O202  1  0.82174133  0.51585167  0.79129967  1
  O  O203  1  0.05072067  0.38893933  0.82479233  1
  O  O204  1  0.69411033  0.17825867  0.79129967  1
  O  O205  1  0.12140633  0.69541467  0.77892567  1
  O  O206  1  0.40372400  0.31399900  0.71895300  1
  O  O207  1  0.57400833  0.87859367  0.77892567  1
  O  O208  1  0.91027500  0.59627600  0.71895300  1
  O  O209  1  0.66310267  0.59036533  0.67721933  1
  O  O210  1  0.12671733  0.95302167  0.96947867  1
  O  O211  1  0.68600100  0.08972500  0.71895300  1
  O  O212  1  0.40963467  0.07273733  0.67721933  1
  O  O213  1  0.92726267  0.33689733  0.67721933  1
  O  O214  1  0.24517600  0.76057000  0.94760000  1
  O  O215  1  0.04697833  0.17369567  0.96947867  1
  O  O216  1  0.23943000  0.48460600  0.94760000  1
  O  O217  1  0.51539400  0.75482400  0.94760000  1
  O  O218  1  0.82630433  0.87328267  0.96947867  1
  O  O219  1  0.40359133  0.84324567  0.88715667  1
  O  O220  1  0.15675433  0.56034567  0.88715667  1
  O  O221  1  0.43965433  0.59640867  0.88715667  1
