# generated using pymatgen
data_Ti2N2O
_symmetry_space_group_name_H-M   'P 1'
_cell_length_a   8.21096376
_cell_length_b   8.22249641
_cell_length_c   8.22237637
_cell_angle_alpha   109.60630486
_cell_angle_beta   109.31778634
_cell_angle_gamma   109.41158192
_symmetry_Int_Tables_number   1
_chemical_formula_structural   Ti2N2O
_chemical_formula_sum   'Ti16 N16 O8'
_cell_volume   427.74844378
_cell_formula_units_Z   8
loop_
 _symmetry_equiv_pos_site_id
 _symmetry_equiv_pos_as_xyz
  1  'x, y, z'
loop_
 _atom_site_type_symbol
 _atom_site_label
 _atom_site_symmetry_multiplicity
 _atom_site_fract_x
 _atom_site_fract_y
 _atom_site_fract_z
 _atom_site_occupancy
  Ti  Ti0  1  0.24226227  0.95319344  0.80016224  1
  Ti  Ti1  1  0.01132883  0.51004115  0.00037103  1
  Ti  Ti2  1  0.04324034  0.79812180  0.23994225  1
  Ti  Ti3  1  0.45649544  0.69520941  0.76364259  1
  Ti  Ti4  1  0.28933502  0.74612146  0.46883828  1
  Ti  Ti5  1  0.78402567  0.75178144  0.95942828  1
  Ti  Ti6  1  0.50978225  0.00766233  0.00496201  1
  Ti  Ti7  1  0.99711484  0.00610282  0.49036969  1
  Ti  Ti8  1  0.49768348  0.49861499  0.49753862  1
  Ti  Ti9  1  0.25384359  0.45313470  0.29171434  1
  Ti  Ti10  1  0.73998703  0.53709720  0.70315136  1
  Ti  Ti11  1  0.71593098  0.25725144  0.53683929  1
  Ti  Ti12  1  0.21075264  0.24470450  0.04845161  1
  Ti  Ti13  1  0.54915571  0.29355821  0.24510179  1
  Ti  Ti14  1  0.95505414  0.21646054  0.74138397  1
  Ti  Ti15  1  0.75252452  0.04694087  0.20621642  1
  N  N16  1  0.22588159  0.73314815  0.72439758  1
  N  N17  1  0.22373055  0.46185109  0.55242489  1
  N  N18  1  0.72461225  0.77330213  0.73856717  1
  N  N19  1  0.45976324  0.45127518  0.77266800  1
  N  N20  1  0.27335697  0.04758519  0.98782273  1
  N  N21  1  0.23566022  0.51234085  0.04145227  1
  N  N22  1  0.94648238  0.98795682  0.27869743  1
  N  N23  1  0.73454861  0.27563967  0.77757925  1
  N  N24  1  0.72749340  0.95268897  0.00575272  1
  N  N25  1  0.54164309  0.54747915  0.22602118  1
  N  N26  1  0.27441839  0.22261262  0.26593994  1
  N  N27  1  0.77409148  0.53748526  0.45084929  1
  N  N28  1  0.48811748  0.03711850  0.23666257  1
  N  N29  1  0.98933382  0.72348083  0.04928777  1
  N  N30  1  0.77330426  0.26513532  0.27402338  1
  N  N31  1  0.95779109  0.23005277  0.49401453  1
  O  O32  1  0.04314140  0.76648459  0.50490883  1
  O  O33  1  0.50855457  0.96498467  0.75933823  1
  O  O34  1  0.00825498  0.27256298  0.95379696  1
  O  O35  1  0.05578931  0.01051748  0.72338992  1
  O  O36  1  0.26321568  0.72484107  0.22671922  1
  O  O37  1  0.55119045  0.77375235  0.45521501  1
  O  O38  1  0.76343672  0.48685459  0.96036124  1
  O  O39  1  0.44766931  0.22485448  0.54199612  1
