# generated using pymatgen
data_Na2CuO2
_symmetry_space_group_name_H-M   'P 1'
_cell_length_a   8.76589200
_cell_length_b   5.70763000
_cell_length_c   11.49088948
_cell_angle_alpha   90.00000000
_cell_angle_beta   92.48241424
_cell_angle_gamma   90.00000000
_symmetry_Int_Tables_number   1
_chemical_formula_structural   Na2CuO2
_chemical_formula_sum   'Na16 Cu8 O16'
_cell_volume   574.37803787
_cell_formula_units_Z   8
loop_
 _symmetry_equiv_pos_site_id
 _symmetry_equiv_pos_as_xyz
  1  'x, y, z'
loop_
 _atom_site_type_symbol
 _atom_site_label
 _atom_site_symmetry_multiplicity
 _atom_site_fract_x
 _atom_site_fract_y
 _atom_site_fract_z
 _atom_site_occupancy
  Na  Na0  1  0.14620500  0.96934400  0.97487300  1
  Na  Na1  1  0.48586200  0.60570100  0.92682100  1
  Na  Na2  1  0.80796300  0.92638900  0.86594800  1
  Na  Na3  1  0.43585700  0.14714200  0.78929000  1
  Na  Na4  1  0.05428700  0.85036700  0.70798700  1
  Na  Na5  1  0.68505900  0.05258000  0.62778000  1
  Na  Na6  1  0.33780500  0.04974600  0.51444400  1
  Na  Na7  1  0.00902000  0.40273300  0.57522400  1
  Na  Na8  1  0.99098000  0.90273300  0.42477600  1
  Na  Na9  1  0.66219500  0.54974600  0.48555600  1
  Na  Na10  1  0.31494100  0.55258000  0.37222000  1
  Na  Na11  1  0.94571300  0.35036700  0.29201300  1
  Na  Na12  1  0.56414300  0.64714200  0.21071000  1
  Na  Na13  1  0.19203700  0.42638900  0.13405200  1
  Na  Na14  1  0.51413800  0.10570100  0.07317900  1
  Na  Na15  1  0.85379500  0.46934400  0.02512700  1
  Cu  Cu16  1  0.16669500  0.41823900  0.88214300  1
  Cu  Cu17  1  0.88617600  0.44486300  0.78527400  1
  Cu  Cu18  1  0.61276600  0.53213000  0.71649900  1
  Cu  Cu19  1  0.33498000  0.60438200  0.62454800  1
  Cu  Cu20  1  0.66502000  0.10438200  0.37545200  1
  Cu  Cu21  1  0.38723400  0.03213000  0.28350100  1
  Cu  Cu22  1  0.11382400  0.94486300  0.21472600  1
  Cu  Cu23  1  0.83330500  0.91823900  0.11785700  1
  O  O24  1  0.33341100  0.27797500  0.95868800  1
  O  O25  1  0.02152300  0.66172700  0.88783700  1
  O  O26  1  0.04621800  0.21671500  0.77767400  1
  O  O27  1  0.69980200  0.27840300  0.80711800  1
  O  O28  1  0.46279500  0.77930500  0.73421200  1
  O  O29  1  0.80624500  0.69546400  0.67259600  1
  O  O30  1  0.46966400  0.34599000  0.61256400  1
  O  O31  1  0.16832600  0.72103800  0.54135500  1
  O  O32  1  0.83167400  0.22103800  0.45864500  1
  O  O33  1  0.53033600  0.84599000  0.38743600  1
  O  O34  1  0.19375500  0.19546400  0.32740400  1
  O  O35  1  0.53720500  0.27930500  0.26578800  1
  O  O36  1  0.30019800  0.77840300  0.19288200  1
  O  O37  1  0.95378200  0.71671500  0.22232600  1
  O  O38  1  0.97847700  0.16172700  0.11216300  1
  O  O39  1  0.66658900  0.77797500  0.04131200  1
