# generated using pymatgen
data_Hf2N2O
_symmetry_space_group_name_H-M   'P 1'
_cell_length_a   8.70498125
_cell_length_b   8.72064381
_cell_length_c   8.75062944
_cell_angle_alpha   109.60956810
_cell_angle_beta   109.34003017
_cell_angle_gamma   109.25589297
_symmetry_Int_Tables_number   1
_chemical_formula_structural   Hf2N2O
_chemical_formula_sum   'Hf16 N16 O8'
_cell_volume   512.67383283
_cell_formula_units_Z   8
loop_
 _symmetry_equiv_pos_site_id
 _symmetry_equiv_pos_as_xyz
  1  'x, y, z'
loop_
 _atom_site_type_symbol
 _atom_site_label
 _atom_site_symmetry_multiplicity
 _atom_site_fract_x
 _atom_site_fract_y
 _atom_site_fract_z
 _atom_site_occupancy
  Hf  Hf0  1  0.00110209  0.98985146  0.49923629  1
  Hf  Hf1  1  0.74912427  0.29289094  0.46349598  1
  Hf  Hf2  1  0.22233124  0.47150265  0.24928663  1
  Hf  Hf3  1  0.70449020  0.95405162  0.25838342  1
  Hf  Hf4  1  0.25892819  0.21493183  0.03532058  1
  Hf  Hf5  1  0.04213510  0.26580625  0.70626253  1
  Hf  Hf6  1  0.51296692  0.50940358  0.48721093  1
  Hf  Hf7  1  0.99645969  0.50927037  0.99417846  1
  Hf  Hf8  1  0.48998792  0.99834702  0.01187567  1
  Hf  Hf9  1  0.96698316  0.74071319  0.28545040  1
  Hf  Hf10  1  0.52818151  0.25017023  0.21585083  1
  Hf  Hf11  1  0.46599814  0.74870979  0.78527205  1
  Hf  Hf12  1  0.74196527  0.77826236  0.96596006  1
  Hf  Hf13  1  0.28608267  0.03133525  0.74954458  1
  Hf  Hf14  1  0.78589494  0.53727916  0.74909608  1
  Hf  Hf15  1  0.25093446  0.71469122  0.53671866  1
  N  N16  1  0.26682147  0.23890598  0.27180556  1
  N  N17  1  0.01109982  0.53670236  0.22980724  1
  N  N18  1  0.48796166  0.25559857  0.47025365  1
  N  N19  1  0.46022005  0.96792404  0.26825660  1
  N  N20  1  0.46503913  0.72740197  0.04357670  1
  N  N21  1  0.73218684  0.76806012  0.72437512  1
  N  N22  1  0.74150558  0.73236722  0.22587931  1
  N  N23  1  0.27012476  0.50612722  0.45714032  1
  N  N24  1  0.51412711  0.73936255  0.53433404  1
  N  N25  1  0.98754002  0.45014790  0.77807383  1
  N  N26  1  0.76019668  0.53323677  0.01577594  1
  N  N27  1  0.22495017  0.77368082  0.76681949  1
  N  N28  1  0.22754037  0.95853644  0.03167510  1
  N  N29  1  0.53238900  0.27325852  0.95175703  1
  N  N30  1  0.72653111  0.48469306  0.54686498  1
  N  N31  1  0.04935698  0.77750829  0.48450937  1
  O  O32  1  0.03823814  0.99677256  0.73379979  1
  O  O33  1  0.96090923  0.01454260  0.26740042  1
  O  O34  1  0.54910530  0.03431255  0.72585744  1
  O  O35  1  0.94202697  0.21831238  0.52557999  1
  O  O36  1  0.77863609  0.22470312  0.23611558  1
  O  O37  1  0.25104431  0.26991938  0.77885109  1
  O  O38  1  0.24406452  0.46619361  0.97789672  1
  O  O39  1  0.77482191  0.04451605  0.96044956  1
