# generated using pymatgen
data_RbHoHS2O9
_symmetry_space_group_name_H-M   'P 1'
_cell_length_a   10.26530600
_cell_length_b   8.38557800
_cell_length_c   10.51102959
_cell_angle_alpha   90.00000000
_cell_angle_beta   119.01336158
_cell_angle_gamma   90.00000000
_symmetry_Int_Tables_number   1
_chemical_formula_structural   RbHoHS2O9
_chemical_formula_sum   'Rb4 Ho4 H4 S8 O36'
_cell_volume   791.24916523
_cell_formula_units_Z   4
loop_
 _symmetry_equiv_pos_site_id
 _symmetry_equiv_pos_as_xyz
  1  'x, y, z'
loop_
 _atom_site_type_symbol
 _atom_site_label
 _atom_site_symmetry_multiplicity
 _atom_site_fract_x
 _atom_site_fract_y
 _atom_site_fract_z
 _atom_site_occupancy
  Rb  Rb0  1  0.21380500  0.15674200  0.68007200  1
  Rb  Rb1  1  0.78619500  0.65674200  0.81992800  1
  Rb  Rb2  1  0.21380500  0.34325800  0.18007200  1
  Rb  Rb3  1  0.78619500  0.84325800  0.31992800  1
  Ho  Ho4  1  0.25746600  0.64294400  0.53733100  1
  Ho  Ho5  1  0.74253400  0.14294400  0.96266900  1
  Ho  Ho6  1  0.25746600  0.85705600  0.03733100  1
  Ho  Ho7  1  0.74253400  0.35705600  0.46266900  1
  H  H8  1  0.67793000  0.46729900  0.03832700  1
  H  H9  1  0.67793000  0.03270100  0.53832700  1
  H  H10  1  0.32207000  0.96729900  0.46167300  1
  H  H11  1  0.32207000  0.53270100  0.96167300  1
  S  S12  1  0.49997200  0.79862500  0.89703600  1
  S  S13  1  0.50002800  0.29862500  0.60296400  1
  S  S14  1  0.94275000  0.36412800  0.31903900  1
  S  S15  1  0.05725000  0.86412800  0.18096100  1
  S  S16  1  0.94275000  0.13587200  0.81903900  1
  S  S17  1  0.05725000  0.63587200  0.68096100  1
  S  S18  1  0.49997200  0.70137500  0.39703600  1
  S  S19  1  0.50002800  0.20137500  0.10296400  1
  O  O20  1  0.31306200  0.90580800  0.53661300  1
  O  O21  1  0.44375700  0.68740900  0.77068300  1
  O  O22  1  0.58346700  0.71035000  0.03424400  1
  O  O23  1  0.62981400  0.11646200  0.10624100  1
  O  O24  1  0.39968500  0.41403000  0.62028300  1
  O  O25  1  0.60031500  0.91403000  0.87971700  1
  O  O26  1  0.82635700  0.48534800  0.29111100  1
  O  O27  1  0.55624300  0.18740900  0.72931700  1
  O  O28  1  0.68693800  0.40580800  0.96338700  1
  O  O29  1  0.92992300  0.24253400  0.41755600  1
  O  O30  1  0.58346700  0.78965000  0.53424400  1
  O  O31  1  0.62981400  0.38353800  0.60624100  1
  O  O32  1  0.92044400  0.28553300  0.18261300  1
  O  O33  1  0.90568200  0.93607100  0.10912600  1
  O  O34  1  0.09431800  0.43607100  0.39087400  1
  O  O35  1  0.07955600  0.78553300  0.31738700  1
  O  O36  1  0.82635700  0.01465200  0.79111100  1
  O  O37  1  0.92992300  0.25746600  0.91755600  1
  O  O38  1  0.07007700  0.74253400  0.08244400  1
  O  O39  1  0.17364300  0.98534800  0.20888900  1
  O  O40  1  0.92044400  0.21446700  0.68261300  1
  O  O41  1  0.90568200  0.56392900  0.60912600  1
  O  O42  1  0.09431800  0.06392900  0.89087400  1
  O  O43  1  0.07955600  0.71446700  0.81738700  1
  O  O44  1  0.37018600  0.61646200  0.39375900  1
  O  O45  1  0.41653300  0.21035000  0.46575600  1
  O  O46  1  0.07007700  0.75746600  0.58244400  1
  O  O47  1  0.31306200  0.59419200  0.03661300  1
  O  O48  1  0.44375700  0.81259100  0.27068300  1
  O  O49  1  0.17364300  0.51465200  0.70888900  1
  O  O50  1  0.39968500  0.08597000  0.12028300  1
  O  O51  1  0.60031500  0.58597000  0.37971700  1
  O  O52  1  0.37018600  0.88353800  0.89375900  1
  O  O53  1  0.41653300  0.28965000  0.96575600  1
  O  O54  1  0.55624300  0.31259100  0.22931700  1
  O  O55  1  0.68693800  0.09419200  0.46338700  1
