# generated using pymatgen
data_Li2VFeP2(O4F)2
_symmetry_space_group_name_H-M   'P 1'
_cell_length_a   5.24306159
_cell_length_b   7.42833059
_cell_length_c   10.56637457
_cell_angle_alpha   104.15957284
_cell_angle_beta   97.63737310
_cell_angle_gamma   108.85012148
_symmetry_Int_Tables_number   1
_chemical_formula_structural   Li2VFeP2(O4F)2
_chemical_formula_sum   'Li4 V2 Fe2 P4 O16 F4'
_cell_volume   367.41608292
_cell_formula_units_Z   2
loop_
 _symmetry_equiv_pos_site_id
 _symmetry_equiv_pos_as_xyz
  1  'x, y, z'
loop_
 _atom_site_type_symbol
 _atom_site_label
 _atom_site_symmetry_multiplicity
 _atom_site_fract_x
 _atom_site_fract_y
 _atom_site_fract_z
 _atom_site_occupancy
  Li  Li0  1  0.53628300  0.61987300  0.80885400  1
  Li  Li1  1  0.03559300  0.11607000  0.30779300  1
  Li  Li2  1  0.96440700  0.88393000  0.69220700  1
  Li  Li3  1  0.46371700  0.38012700  0.19114600  1
  V  V4  1  0.50000000  0.50000000  0.50000000  1
  V  V5  1  0.00000000  0.50000000  0.00000000  1
  Fe  Fe6  1  0.00000000  0.00000000  0.00000000  1
  Fe  Fe7  1  0.50000000  0.00000000  0.50000000  1
  P  P8  1  0.49792000  0.05741800  0.82072800  1
  P  P9  1  0.99784400  0.55917200  0.32107700  1
  P  P10  1  0.00215600  0.44082800  0.67892300  1
  P  P11  1  0.50208000  0.94258200  0.17927200  1
  O  O12  1  0.70364500  0.94501100  0.83406100  1
  O  O13  1  0.20059800  0.44502100  0.33490600  1
  O  O14  1  0.64418600  0.28247500  0.89311000  1
  O  O15  1  0.36532300  0.01190700  0.67070100  1
  O  O16  1  0.14521500  0.78347300  0.39364500  1
  O  O17  1  0.86476700  0.51410800  0.17096200  1
  O  O18  1  0.24414900  0.96567200  0.87748400  1
  O  O19  1  0.74222600  0.46487700  0.37541900  1
  O  O20  1  0.25777400  0.53512300  0.62458100  1
  O  O21  1  0.75585100  0.03432800  0.12251600  1
  O  O22  1  0.13523300  0.48589200  0.82903800  1
  O  O23  1  0.85478500  0.21652700  0.60635500  1
  O  O24  1  0.63467700  0.98809300  0.32929900  1
  O  O25  1  0.35581400  0.71752500  0.10689000  1
  O  O26  1  0.79940200  0.55497900  0.66509400  1
  O  O27  1  0.29635500  0.05498900  0.16593900  1
  F  F28  1  0.83611000  0.70348700  0.96306800  1
  F  F29  1  0.33569900  0.19737100  0.46303000  1
  F  F30  1  0.66430100  0.80262900  0.53697000  1
  F  F31  1  0.16389000  0.29651300  0.03693200  1
