# generated using pymatgen
data_Cs5YO4
_symmetry_space_group_name_H-M   'P 1'
_cell_length_a   7.00746800
_cell_length_b   8.61926100
_cell_length_c   9.94427200
_cell_angle_alpha   90.00000000
_cell_angle_beta   90.00000000
_cell_angle_gamma   90.00000000
_symmetry_Int_Tables_number   1
_chemical_formula_structural   Cs5YO4
_chemical_formula_sum   'Cs10 Y2 O8'
_cell_volume   600.62603004
_cell_formula_units_Z   2
loop_
 _symmetry_equiv_pos_site_id
 _symmetry_equiv_pos_as_xyz
  1  'x, y, z'
loop_
 _atom_site_type_symbol
 _atom_site_label
 _atom_site_symmetry_multiplicity
 _atom_site_fract_x
 _atom_site_fract_y
 _atom_site_fract_z
 _atom_site_occupancy
  Cs  Cs0  1  0.25503800  0.76300800  0.81285500  1
  Cs  Cs1  1  0.25503800  0.23699200  0.81285500  1
  Cs  Cs2  1  0.81682300  0.50000000  0.00000000  1
  Cs  Cs3  1  0.25503800  0.76300800  0.18714500  1
  Cs  Cs4  1  0.25503800  0.23699200  0.18714500  1
  Cs  Cs5  1  0.74496200  0.73699200  0.31285500  1
  Cs  Cs6  1  0.74496200  0.26300800  0.31285500  1
  Cs  Cs7  1  0.18317700  0.00000000  0.50000000  1
  Cs  Cs8  1  0.74496200  0.73699200  0.68714500  1
  Cs  Cs9  1  0.74496200  0.26300800  0.68714500  1
  Y  Y10  1  0.77757800  0.00000000  0.00000000  1
  Y  Y11  1  0.22242200  0.50000000  0.50000000  1
  O  O12  1  0.94639100  0.00000000  0.81342600  1
  O  O13  1  0.61303100  0.78504700  0.00000000  1
  O  O14  1  0.61303100  0.21495300  0.00000000  1
  O  O15  1  0.94639100  0.00000000  0.18657400  1
  O  O16  1  0.05360900  0.50000000  0.31342600  1
  O  O17  1  0.38696900  0.71495300  0.50000000  1
  O  O18  1  0.38696900  0.28504700  0.50000000  1
  O  O19  1  0.05360900  0.50000000  0.68657400  1
