# generated using pymatgen
data_Na2FeO3
_symmetry_space_group_name_H-M   'P 1'
_cell_length_a   6.44207471
_cell_length_b   9.29162112
_cell_length_c   18.07688440
_cell_angle_alpha   90.00000000
_cell_angle_beta   90.00000000
_cell_angle_gamma   90.00000000
_symmetry_Int_Tables_number   1
_chemical_formula_structural   Na2FeO3
_chemical_formula_sum   'Na32 Fe16 O48'
_cell_volume   1082.03380783
_cell_formula_units_Z   16
loop_
 _symmetry_equiv_pos_site_id
 _symmetry_equiv_pos_as_xyz
  1  'x, y, z'
loop_
 _atom_site_type_symbol
 _atom_site_label
 _atom_site_symmetry_multiplicity
 _atom_site_fract_x
 _atom_site_fract_y
 _atom_site_fract_z
 _atom_site_occupancy
  Na  Na0  1  0.24644898  0.74993857  0.49232689  1
  Na  Na1  1  0.49699848  0.49953369  0.41911522  1
  Na  Na2  1  0.24699848  0.74953369  0.33088478  1
  Na  Na3  1  0.49644898  0.49993857  0.25767311  1
  Na  Na4  1  0.99644898  0.50006143  0.24232689  1
  Na  Na5  1  0.24699848  0.75046631  0.16911522  1
  Na  Na6  1  0.99699848  0.50046631  0.08088478  1
  Na  Na7  1  0.24644898  0.75006143  0.00767311  1
  Na  Na8  1  0.74644898  0.74993857  0.99232689  1
  Na  Na9  1  0.99699848  0.49953369  0.91911522  1
  Na  Na10  1  0.74699848  0.74953369  0.83088478  1
  Na  Na11  1  0.99644898  0.49993857  0.75767311  1
  Na  Na12  1  0.49644898  0.50006143  0.74232689  1
  Na  Na13  1  0.74699848  0.75046631  0.66911522  1
  Na  Na14  1  0.49699848  0.50046631  0.58088478  1
  Na  Na15  1  0.74644898  0.75006143  0.50767311  1
  Na  Na16  1  0.74644898  0.24993857  0.49232689  1
  Na  Na17  1  0.99699848  0.99953369  0.41911522  1
  Na  Na18  1  0.74699848  0.24953369  0.33088478  1
  Na  Na19  1  0.99644898  0.99993857  0.25767311  1
  Na  Na20  1  0.49644898  0.00006143  0.24232689  1
  Na  Na21  1  0.74699848  0.25046631  0.16911522  1
  Na  Na22  1  0.49699848  0.00046631  0.08088478  1
  Na  Na23  1  0.74644898  0.25006143  0.00767311  1
  Na  Na24  1  0.24644898  0.24993857  0.99232689  1
  Na  Na25  1  0.49699848  0.99953369  0.91911522  1
  Na  Na26  1  0.24699848  0.24953369  0.83088478  1
  Na  Na27  1  0.49644898  0.99993857  0.75767311  1
  Na  Na28  1  0.99644898  0.00006143  0.74232689  1
  Na  Na29  1  0.24699848  0.25046631  0.66911522  1
  Na  Na30  1  0.99699848  0.00046631  0.58088478  1
  Na  Na31  1  0.24644898  0.25006143  0.50767311  1
  Fe  Fe32  1  0.99576537  0.50152500  0.41265959  1
  Fe  Fe33  1  0.24576537  0.25152500  0.33734041  1
  Fe  Fe34  1  0.24576537  0.24847500  0.16265959  1
  Fe  Fe35  1  0.49576537  0.49847500  0.08734041  1
  Fe  Fe36  1  0.49576537  0.50152500  0.91265959  1
  Fe  Fe37  1  0.74576537  0.25152500  0.83734041  1
  Fe  Fe38  1  0.74576537  0.24847500  0.66265959  1
  Fe  Fe39  1  0.99576537  0.49847500  0.58734041  1
  Fe  Fe40  1  0.49576537  0.00152500  0.41265959  1
  Fe  Fe41  1  0.74576537  0.75152500  0.33734041  1
  Fe  Fe42  1  0.74576537  0.74847500  0.16265959  1
  Fe  Fe43  1  0.99576537  0.99847500  0.08734041  1
  Fe  Fe44  1  0.99576537  0.00152500  0.91265959  1
  Fe  Fe45  1  0.24576537  0.75152500  0.83734041  1
  Fe  Fe46  1  0.24576537  0.74847500  0.66265959  1
  Fe  Fe47  1  0.49576537  0.99847500  0.58734041  1
  O  O48  1  0.46616017  0.23759510  0.40298412  1
  O  O49  1  0.52837900  0.75953668  0.40323783  1
  O  O50  1  0.77837900  0.50953668  0.34676217  1
  O  O51  1  0.21616017  0.48759510  0.34701588  1
  O  O52  1  0.43626729  0.25000000  0.25000000  1
  O  O53  1  0.05356522  0.25000000  0.25000000  1
  O  O54  1  0.27837900  0.49046332  0.15323783  1
  O  O55  1  0.71616017  0.51240490  0.15298412  1
  O  O56  1  0.96616017  0.76240490  0.09701588  1
  O  O57  1  0.02837900  0.24046332  0.09676217  1
  O  O58  1  0.80356522  0.50000000  0.50000000  1
  O  O59  1  0.18626729  0.50000000  0.50000000  1
  O  O60  1  0.96616017  0.23759510  0.90298412  1
  O  O61  1  0.02837900  0.75953668  0.90323783  1
  O  O62  1  0.27837900  0.50953668  0.84676217  1
  O  O63  1  0.71616017  0.48759510  0.84701588  1
  O  O64  1  0.93626729  0.25000000  0.75000000  1
  O  O65  1  0.55356522  0.25000000  0.75000000  1
  O  O66  1  0.77837900  0.49046332  0.65323783  1
  O  O67  1  0.21616017  0.51240490  0.65298412  1
  O  O68  1  0.46616017  0.76240490  0.59701588  1
  O  O69  1  0.52837900  0.24046332  0.59676217  1
  O  O70  1  0.30356522  0.50000000  0.00000000  1
  O  O71  1  0.68626729  0.50000000  0.00000000  1
  O  O72  1  0.96616017  0.73759510  0.40298412  1
  O  O73  1  0.02837900  0.25953668  0.40323783  1
  O  O74  1  0.27837900  0.00953668  0.34676217  1
  O  O75  1  0.71616017  0.98759510  0.34701588  1
  O  O76  1  0.93626729  0.75000000  0.25000000  1
  O  O77  1  0.55356522  0.75000000  0.25000000  1
  O  O78  1  0.77837900  0.99046332  0.15323783  1
  O  O79  1  0.21616017  0.01240490  0.15298412  1
  O  O80  1  0.46616017  0.26240490  0.09701588  1
  O  O81  1  0.52837900  0.74046332  0.09676217  1
  O  O82  1  0.30356522  0.00000000  0.50000000  1
  O  O83  1  0.68626729  0.00000000  0.50000000  1
  O  O84  1  0.46616017  0.73759510  0.90298412  1
  O  O85  1  0.52837900  0.25953668  0.90323783  1
  O  O86  1  0.77837900  0.00953668  0.84676217  1
  O  O87  1  0.21616017  0.98759510  0.84701588  1
  O  O88  1  0.43626729  0.75000000  0.75000000  1
  O  O89  1  0.05356522  0.75000000  0.75000000  1
  O  O90  1  0.27837900  0.99046332  0.65323783  1
  O  O91  1  0.71616017  0.01240490  0.65298412  1
  O  O92  1  0.96616017  0.26240490  0.59701588  1
  O  O93  1  0.02837900  0.74046332  0.59676217  1
  O  O94  1  0.80356522  0.00000000  0.00000000  1
  O  O95  1  0.18626729  0.00000000  0.00000000  1
