# generated using pymatgen
data_LiNiPO4
_symmetry_space_group_name_H-M   'P 1'
_cell_length_a   5.64278600
_cell_length_b   8.40840000
_cell_length_c   6.15931900
_cell_angle_alpha   90.00000000
_cell_angle_beta   90.00000000
_cell_angle_gamma   90.00000000
_symmetry_Int_Tables_number   1
_chemical_formula_structural   LiNiPO4
_chemical_formula_sum   'Li4 Ni4 P4 O16'
_cell_volume   292.23998783
_cell_formula_units_Z   4
loop_
 _symmetry_equiv_pos_site_id
 _symmetry_equiv_pos_as_xyz
  1  'x, y, z'
loop_
 _atom_site_type_symbol
 _atom_site_label
 _atom_site_symmetry_multiplicity
 _atom_site_fract_x
 _atom_site_fract_y
 _atom_site_fract_z
 _atom_site_occupancy
  Li  Li0  1  0.50000000  0.00000000  0.00000000  1
  Li  Li1  1  0.50000000  0.00000000  0.50000000  1
  Li  Li2  1  0.00000000  0.50000000  0.00000000  1
  Li  Li3  1  0.00000000  0.50000000  0.50000000  1
  Ni  Ni4  1  0.50000000  0.67181600  0.25000000  1
  Ni  Ni5  1  0.50000000  0.32818400  0.75000000  1
  Ni  Ni6  1  0.00000000  0.17181600  0.25000000  1
  Ni  Ni7  1  0.00000000  0.82818400  0.75000000  1
  P  P8  1  0.50000000  0.64064600  0.75000000  1
  P  P9  1  0.50000000  0.35935400  0.25000000  1
  P  P10  1  0.00000000  0.14064600  0.75000000  1
  P  P11  1  0.00000000  0.85935400  0.25000000  1
  O  O12  1  0.21927950  0.02658650  0.75000000  1
  O  O13  1  0.21927950  0.97341350  0.25000000  1
  O  O14  1  0.50000000  0.74964400  0.54875400  1
  O  O15  1  0.50000000  0.25035600  0.04875400  1
  O  O16  1  0.50000000  0.74964400  0.95124600  1
  O  O17  1  0.50000000  0.25035600  0.45124600  1
  O  O18  1  0.78072050  0.97341350  0.25000000  1
  O  O19  1  0.78072050  0.02658650  0.75000000  1
  O  O20  1  0.71927950  0.52658650  0.75000000  1
  O  O21  1  0.71927950  0.47341350  0.25000000  1
  O  O22  1  0.00000000  0.24964400  0.54875400  1
  O  O23  1  0.00000000  0.75035600  0.04875400  1
  O  O24  1  0.00000000  0.24964400  0.95124600  1
  O  O25  1  0.00000000  0.75035600  0.45124600  1
  O  O26  1  0.28072050  0.47341350  0.25000000  1
  O  O27  1  0.28072050  0.52658650  0.75000000  1
