# generated using pymatgen
data_Dy2TiO5
_symmetry_space_group_name_H-M   'P 1'
_cell_length_a   3.63551300
_cell_length_b   7.45812200
_cell_length_c   15.56606500
_cell_angle_alpha   90.00000000
_cell_angle_beta   90.00000000
_cell_angle_gamma   90.00000000
_symmetry_Int_Tables_number   1
_chemical_formula_structural   Dy2TiO5
_chemical_formula_sum   'Dy8 Ti4 O20'
_cell_volume   422.05983502
_cell_formula_units_Z   4
loop_
 _symmetry_equiv_pos_site_id
 _symmetry_equiv_pos_as_xyz
  1  'x, y, z'
loop_
 _atom_site_type_symbol
 _atom_site_label
 _atom_site_symmetry_multiplicity
 _atom_site_fract_x
 _atom_site_fract_y
 _atom_site_fract_z
 _atom_site_occupancy
  Dy  Dy0  1  0.25000000  0.60792800  0.58343800  1
  Dy  Dy1  1  0.25000000  0.64907200  0.23815400  1
  Dy  Dy2  1  0.75000000  0.85092800  0.73815400  1
  Dy  Dy3  1  0.75000000  0.89207200  0.08343800  1
  Dy  Dy4  1  0.25000000  0.10792800  0.91656200  1
  Dy  Dy5  1  0.25000000  0.14907200  0.26184600  1
  Dy  Dy6  1  0.75000000  0.35092800  0.76184600  1
  Dy  Dy7  1  0.75000000  0.39207200  0.41656200  1
  Ti  Ti8  1  0.25000000  0.61993300  0.92355100  1
  Ti  Ti9  1  0.75000000  0.88006700  0.42355100  1
  Ti  Ti10  1  0.25000000  0.11993300  0.57644900  1
  Ti  Ti11  1  0.75000000  0.38006700  0.07644900  1
  O  O12  1  0.75000000  0.58316100  0.67401000  1
  O  O13  1  0.75000000  0.57908900  0.95357500  1
  O  O14  1  0.75000000  0.60968100  0.14917000  1
  O  O15  1  0.75000000  0.65556600  0.49512000  1
  O  O16  1  0.25000000  0.76035600  0.82491300  1
  O  O17  1  0.75000000  0.73964400  0.32491300  1
  O  O18  1  0.25000000  0.84443400  0.99512000  1
  O  O19  1  0.25000000  0.89031900  0.64917000  1
  O  O20  1  0.25000000  0.92091100  0.45357500  1
  O  O21  1  0.25000000  0.91683900  0.17401000  1
  O  O22  1  0.75000000  0.08316100  0.82599000  1
  O  O23  1  0.75000000  0.07908900  0.54642500  1
  O  O24  1  0.75000000  0.10968100  0.35083000  1
  O  O25  1  0.75000000  0.15556600  0.00488000  1
  O  O26  1  0.25000000  0.26035600  0.67508700  1
  O  O27  1  0.75000000  0.23964400  0.17508700  1
  O  O28  1  0.25000000  0.34443400  0.50488000  1
  O  O29  1  0.25000000  0.39031900  0.85083000  1
  O  O30  1  0.25000000  0.42091100  0.04642500  1
  O  O31  1  0.25000000  0.41683900  0.32599000  1
