# generated using pymatgen
data_CaTb2O4
_symmetry_space_group_name_H-M   'P 1'
_cell_length_a   3.34371800
_cell_length_b   11.13511600
_cell_length_c   11.03454900
_cell_angle_alpha   90.00000000
_cell_angle_beta   90.00000000
_cell_angle_gamma   90.00000000
_symmetry_Int_Tables_number   1
_chemical_formula_structural   CaTb2O4
_chemical_formula_sum   'Ca4 Tb8 O16'
_cell_volume   410.84591795
_cell_formula_units_Z   4
loop_
 _symmetry_equiv_pos_site_id
 _symmetry_equiv_pos_as_xyz
  1  'x, y, z'
loop_
 _atom_site_type_symbol
 _atom_site_label
 _atom_site_symmetry_multiplicity
 _atom_site_fract_x
 _atom_site_fract_y
 _atom_site_fract_z
 _atom_site_occupancy
  Ca  Ca0  1  0.00000000  0.11041400  0.75000000  1
  Ca  Ca1  1  0.50000000  0.38958600  0.25000000  1
  Ca  Ca2  1  0.50000000  0.61041400  0.75000000  1
  Ca  Ca3  1  0.00000000  0.88958600  0.25000000  1
  Tb  Tb4  1  0.00000000  0.36747000  0.92537800  1
  Tb  Tb5  1  0.00000000  0.36747000  0.57462200  1
  Tb  Tb6  1  0.50000000  0.13253000  0.07462200  1
  Tb  Tb7  1  0.50000000  0.13253000  0.42537800  1
  Tb  Tb8  1  0.50000000  0.86747000  0.92537800  1
  Tb  Tb9  1  0.50000000  0.86747000  0.57462200  1
  Tb  Tb10  1  0.00000000  0.63253000  0.07462200  1
  Tb  Tb11  1  0.00000000  0.63253000  0.42537800  1
  O  O12  1  0.00000000  0.00000000  0.50000000  1
  O  O13  1  0.00000000  0.00000000  0.00000000  1
  O  O14  1  0.00000000  0.26634900  0.11320500  1
  O  O15  1  0.00000000  0.46837300  0.75000000  1
  O  O16  1  0.50000000  0.03162700  0.25000000  1
  O  O17  1  0.50000000  0.23365100  0.88679500  1
  O  O18  1  0.00000000  0.26634900  0.38679500  1
  O  O19  1  0.50000000  0.23365100  0.61320500  1
  O  O20  1  0.50000000  0.50000000  0.50000000  1
  O  O21  1  0.50000000  0.50000000  0.00000000  1
  O  O22  1  0.50000000  0.76634900  0.11320500  1
  O  O23  1  0.50000000  0.96837300  0.75000000  1
  O  O24  1  0.00000000  0.53162700  0.25000000  1
  O  O25  1  0.00000000  0.73365100  0.88679500  1
  O  O26  1  0.50000000  0.76634900  0.38679500  1
  O  O27  1  0.00000000  0.73365100  0.61320500  1
