# generated using pymatgen
data_LiSb(PO3)4
_symmetry_space_group_name_H-M   'P 1'
_cell_length_a   10.06624400
_cell_length_b   11.14523400
_cell_length_c   17.88539900
_cell_angle_alpha   90.00000000
_cell_angle_beta   90.00000000
_cell_angle_gamma   90.00000000
_symmetry_Int_Tables_number   1
_chemical_formula_structural   LiSb(PO3)4
_chemical_formula_sum   'Li8 Sb8 P32 O96'
_cell_volume   2006.57444777
_cell_formula_units_Z   8
loop_
 _symmetry_equiv_pos_site_id
 _symmetry_equiv_pos_as_xyz
  1  'x, y, z'
loop_
 _atom_site_type_symbol
 _atom_site_label
 _atom_site_symmetry_multiplicity
 _atom_site_fract_x
 _atom_site_fract_y
 _atom_site_fract_z
 _atom_site_occupancy
  Li  Li0  1  0.74064350  0.23161650  0.86441900  1
  Li  Li1  1  0.25935650  0.23161650  0.63558100  1
  Li  Li2  1  0.25935650  0.76838350  0.36441900  1
  Li  Li3  1  0.74064350  0.76838350  0.13558100  1
  Li  Li4  1  0.24064350  0.73161650  0.86441900  1
  Li  Li5  1  0.75935650  0.73161650  0.63558100  1
  Li  Li6  1  0.75935650  0.26838350  0.36441900  1
  Li  Li7  1  0.24064350  0.26838350  0.13558100  1
  Sb  Sb8  1  0.14242300  0.91118600  0.63883600  1
  Sb  Sb9  1  0.85757700  0.91118600  0.86116400  1
  Sb  Sb10  1  0.85757700  0.08881400  0.13883600  1
  Sb  Sb11  1  0.14242300  0.08881400  0.36116400  1
  Sb  Sb12  1  0.64242300  0.41118600  0.63883600  1
  Sb  Sb13  1  0.35757700  0.41118600  0.86116400  1
  Sb  Sb14  1  0.35757700  0.58881400  0.13883600  1
  Sb  Sb15  1  0.64242300  0.58881400  0.36116400  1
  P  P16  1  0.40201150  0.36652150  0.35075700  1
  P  P17  1  0.59798850  0.36652150  0.14924300  1
  P  P18  1  0.53935350  0.25628250  0.99699100  1
  P  P19  1  0.46064650  0.25628250  0.50300900  1
  P  P20  1  0.50000000  0.15460200  0.75000000  1
  P  P21  1  0.68801400  0.03107200  0.30933300  1
  P  P22  1  0.31198600  0.03107200  0.19066700  1
  P  P23  1  0.35962300  0.00000000  0.50000000  1
  P  P24  1  0.64037700  0.00000000  0.00000000  1
  P  P25  1  0.31198600  0.96892800  0.80933300  1
  P  P26  1  0.68801400  0.96892800  0.69066700  1
  P  P27  1  0.50000000  0.84539800  0.25000000  1
  P  P28  1  0.53935350  0.74371750  0.00300900  1
  P  P29  1  0.46064650  0.74371750  0.49699100  1
  P  P30  1  0.40201150  0.63347850  0.64924300  1
  P  P31  1  0.59798850  0.63347850  0.85075700  1
  P  P32  1  0.90201150  0.86652150  0.35075700  1
  P  P33  1  0.09798850  0.86652150  0.14924300  1
  P  P34  1  0.03935350  0.75628250  0.99699100  1
  P  P35  1  0.96064650  0.75628250  0.50300900  1
  P  P36  1  0.00000000  0.65460200  0.75000000  1
  P  P37  1  0.18801400  0.53107200  0.30933300  1
  P  P38  1  0.81198600  0.53107200  0.19066700  1
  P  P39  1  0.85962300  0.50000000  0.50000000  1
  P  P40  1  0.14037700  0.50000000  0.00000000  1
  P  P41  1  0.81198600  0.46892800  0.80933300  1
  P  P42  1  0.18801400  0.46892800  0.69066700  1
  P  P43  1  0.00000000  0.34539800  0.25000000  1
  P  P44  1  0.03935350  0.24371750  0.00300900  1
  P  P45  1  0.96064650  0.24371750  0.49699100  1
  P  P46  1  0.90201150  0.13347850  0.64924300  1
  P  P47  1  0.09798850  0.13347850  0.85075700  1
  O  O48  1  0.53979300  0.43100300  0.35836400  1
  O  O49  1  0.46020700  0.43100300  0.14163600  1
  O  O50  1  0.36764400  0.29680900  0.28430500  1
  O  O51  1  0.63235600  0.29680900  0.21569500  1
  O  O52  1  0.39790800  0.29774200  0.99421600  1
  O  O53  1  0.60209200  0.29774200  0.50578400  1
  O  O54  1  0.38891700  0.28452500  0.42379700  1
  O  O55  1  0.61108300  0.28452500  0.07620300  1
  O  O56  1  0.37064700  0.29377200  0.56372700  1
  O  O57  1  0.62935300  0.29377200  0.93627300  1
  O  O58  1  0.60329500  0.22392400  0.79079000  1
  O  O59  1  0.39670500  0.22392400  0.70921000  1
  O  O60  1  0.64183250  0.14349050  0.34380300  1
  O  O61  1  0.35816750  0.14349050  0.15619700  1
  O  O62  1  0.45948850  0.10747350  0.49715100  1
  O  O63  1  0.54051150  0.10747350  0.00284900  1
  O  O64  1  0.79565950  0.02758250  0.63393700  1
  O  O65  1  0.20434050  0.02758250  0.86606300  1
  O  O66  1  0.56780200  0.06286100  0.69027800  1
  O  O67  1  0.43219800  0.06286100  0.80972200  1
  O  O68  1  0.27587900  0.00653000  0.57205700  1
  O  O69  1  0.72412100  0.00653000  0.92794300  1
  O  O70  1  0.25093650  0.02976150  0.27018000  1
  O  O71  1  0.74906350  0.02976150  0.22982000  1
  O  O72  1  0.25093650  0.97023850  0.72982000  1
  O  O73  1  0.74906350  0.97023850  0.77018000  1
  O  O74  1  0.27587900  0.99347000  0.42794300  1
  O  O75  1  0.72412100  0.99347000  0.07205700  1
  O  O76  1  0.56780200  0.93713900  0.30972200  1
  O  O77  1  0.43219800  0.93713900  0.19027800  1
  O  O78  1  0.20434050  0.97241750  0.13393700  1
  O  O79  1  0.79565950  0.97241750  0.36606300  1
  O  O80  1  0.54051150  0.89252650  0.99715100  1
  O  O81  1  0.45948850  0.89252650  0.50284900  1
  O  O82  1  0.35816750  0.85650950  0.84380300  1
  O  O83  1  0.64183250  0.85650950  0.65619700  1
  O  O84  1  0.60329500  0.77607600  0.20921000  1
  O  O85  1  0.39670500  0.77607600  0.29079000  1
  O  O86  1  0.37064700  0.70622800  0.43627300  1
  O  O87  1  0.62935300  0.70622800  0.06372700  1
  O  O88  1  0.38891700  0.71547500  0.57620300  1
  O  O89  1  0.61108300  0.71547500  0.92379700  1
  O  O90  1  0.60209200  0.70225800  0.49421600  1
  O  O91  1  0.39790800  0.70225800  0.00578400  1
  O  O92  1  0.36764400  0.70319100  0.71569500  1
  O  O93  1  0.63235600  0.70319100  0.78430500  1
  O  O94  1  0.53979300  0.56899700  0.64163600  1
  O  O95  1  0.46020700  0.56899700  0.85836400  1
  O  O96  1  0.03979300  0.93100300  0.35836400  1
  O  O97  1  0.96020700  0.93100300  0.14163600  1
  O  O98  1  0.86764400  0.79680900  0.28430500  1
  O  O99  1  0.13235600  0.79680900  0.21569500  1
  O  O100  1  0.89790800  0.79774200  0.99421600  1
  O  O101  1  0.10209200  0.79774200  0.50578400  1
  O  O102  1  0.88891700  0.78452500  0.42379700  1
  O  O103  1  0.11108300  0.78452500  0.07620300  1
  O  O104  1  0.87064700  0.79377200  0.56372700  1
  O  O105  1  0.12935300  0.79377200  0.93627300  1
  O  O106  1  0.10329500  0.72392400  0.79079000  1
  O  O107  1  0.89670500  0.72392400  0.70921000  1
  O  O108  1  0.14183250  0.64349050  0.34380300  1
  O  O109  1  0.85816750  0.64349050  0.15619700  1
  O  O110  1  0.95948850  0.60747350  0.49715100  1
  O  O111  1  0.04051150  0.60747350  0.00284900  1
  O  O112  1  0.29565950  0.52758250  0.63393700  1
  O  O113  1  0.70434050  0.52758250  0.86606300  1
  O  O114  1  0.06780200  0.56286100  0.69027800  1
  O  O115  1  0.93219800  0.56286100  0.80972200  1
  O  O116  1  0.77587900  0.50653000  0.57205700  1
  O  O117  1  0.22412100  0.50653000  0.92794300  1
  O  O118  1  0.75093650  0.52976150  0.27018000  1
  O  O119  1  0.24906350  0.52976150  0.22982000  1
  O  O120  1  0.75093650  0.47023850  0.72982000  1
  O  O121  1  0.24906350  0.47023850  0.77018000  1
  O  O122  1  0.77587900  0.49347000  0.42794300  1
  O  O123  1  0.22412100  0.49347000  0.07205700  1
  O  O124  1  0.06780200  0.43713900  0.30972200  1
  O  O125  1  0.93219800  0.43713900  0.19027800  1
  O  O126  1  0.70434050  0.47241750  0.13393700  1
  O  O127  1  0.29565950  0.47241750  0.36606300  1
  O  O128  1  0.04051150  0.39252650  0.99715100  1
  O  O129  1  0.95948850  0.39252650  0.50284900  1
  O  O130  1  0.85816750  0.35650950  0.84380300  1
  O  O131  1  0.14183250  0.35650950  0.65619700  1
  O  O132  1  0.10329500  0.27607600  0.20921000  1
  O  O133  1  0.89670500  0.27607600  0.29079000  1
  O  O134  1  0.87064700  0.20622800  0.43627300  1
  O  O135  1  0.12935300  0.20622800  0.06372700  1
  O  O136  1  0.88891700  0.21547500  0.57620300  1
  O  O137  1  0.11108300  0.21547500  0.92379700  1
  O  O138  1  0.10209200  0.20225800  0.49421600  1
  O  O139  1  0.89790800  0.20225800  0.00578400  1
  O  O140  1  0.86764400  0.20319100  0.71569500  1
  O  O141  1  0.13235600  0.20319100  0.78430500  1
  O  O142  1  0.03979300  0.06899700  0.64163600  1
  O  O143  1  0.96020700  0.06899700  0.85836400  1
