# generated using pymatgen
data_Na7NbO6
_symmetry_space_group_name_H-M   'P 1'
_cell_length_a   6.47910353
_cell_length_b   6.47910353
_cell_length_c   15.71553313
_cell_angle_alpha   90.00000000
_cell_angle_beta   90.00000000
_cell_angle_gamma   120.00000000
_symmetry_Int_Tables_number   1
_chemical_formula_structural   Na7NbO6
_chemical_formula_sum   'Na21 Nb3 O18'
_cell_volume   571.33336852
_cell_formula_units_Z   3
loop_
 _symmetry_equiv_pos_site_id
 _symmetry_equiv_pos_as_xyz
  1  'x, y, z'
loop_
 _atom_site_type_symbol
 _atom_site_label
 _atom_site_symmetry_multiplicity
 _atom_site_fract_x
 _atom_site_fract_y
 _atom_site_fract_z
 _atom_site_occupancy
  Na  Na0  1  0.06639067  0.34251833  0.22371233  1
  Na  Na1  1  0.64813067  0.05764633  0.10437333  1
  Na  Na2  1  0.40951567  0.35186933  0.10437333  1
  Na  Na3  1  0.94235367  0.59048433  0.10437333  1
  Na  Na4  1  0.33333333  0.66666667  0.00954567  1
  Na  Na5  1  0.65748167  0.72387233  0.22371233  1
  Na  Na6  1  0.27612767  0.93360933  0.22371233  1
  Na  Na7  1  0.73305733  0.67585167  0.55704567  1
  Na  Na8  1  0.31479733  0.39097967  0.43770667  1
  Na  Na9  1  0.07618233  0.68520267  0.43770667  1
  Na  Na10  1  0.60902033  0.92381767  0.43770667  1
  Na  Na11  1  0.00000000  0.00000000  0.34287900  1
  Na  Na12  1  0.32414833  0.05720567  0.55704567  1
  Na  Na13  1  0.94279433  0.26694267  0.55704567  1
  Na  Na14  1  0.39972400  0.00918500  0.89037900  1
  Na  Na15  1  0.98146400  0.72431300  0.77104000  1
  Na  Na16  1  0.74284900  0.01853600  0.77104000  1
  Na  Na17  1  0.27568700  0.25715100  0.77104000  1
  Na  Na18  1  0.66666667  0.33333333  0.67621233  1
  Na  Na19  1  0.99081500  0.39053900  0.89037900  1
  Na  Na20  1  0.60946100  0.60027600  0.89037900  1
  Nb  Nb21  1  0.33333333  0.66666667  0.66322367  1
  Nb  Nb22  1  0.00000000  0.00000000  0.99655700  1
  Nb  Nb23  1  0.66666667  0.33333333  0.32989033  1
  O  O24  1  0.03751700  0.28721100  0.07142600  1
  O  O25  1  0.67021667  0.07453233  0.25692333  1
  O  O26  1  0.40431567  0.32978333  0.25692333  1
  O  O27  1  0.92546767  0.59568433  0.25692333  1
  O  O28  1  0.71278900  0.75030600  0.07142600  1
  O  O29  1  0.24969400  0.96248300  0.07142600  1
  O  O30  1  0.70418367  0.62054433  0.40475933  1
  O  O31  1  0.33688333  0.40786567  0.59025667  1
  O  O32  1  0.07098233  0.66311667  0.59025667  1
  O  O33  1  0.59213433  0.92901767  0.59025667  1
  O  O34  1  0.37945567  0.08363933  0.40475933  1
  O  O35  1  0.91636067  0.29581633  0.40475933  1
  O  O36  1  0.37085033  0.95387767  0.73809267  1
  O  O37  1  0.00355000  0.74119900  0.92359000  1
  O  O38  1  0.73764900  0.99645000  0.92359000  1
  O  O39  1  0.25880100  0.26235100  0.92359000  1
  O  O40  1  0.04612233  0.41697267  0.73809267  1
  O  O41  1  0.58302733  0.62914967  0.73809267  1
