# generated using pymatgen
data_NaMn3O6
_symmetry_space_group_name_H-M   'P 1'
_cell_length_a   8.41283400
_cell_length_b   8.57806200
_cell_length_c   26.24091200
_cell_angle_alpha   90.00000000
_cell_angle_beta   90.00000000
_cell_angle_gamma   90.00000000
_symmetry_Int_Tables_number   1
_chemical_formula_structural   NaMn3O6
_chemical_formula_sum   'Na16 Mn48 O96'
_cell_volume   1893.69671286
_cell_formula_units_Z   16
loop_
 _symmetry_equiv_pos_site_id
 _symmetry_equiv_pos_as_xyz
  1  'x, y, z'
loop_
 _atom_site_type_symbol
 _atom_site_label
 _atom_site_symmetry_multiplicity
 _atom_site_fract_x
 _atom_site_fract_y
 _atom_site_fract_z
 _atom_site_occupancy
  Na  Na0  1  0.50000000  0.00000000  0.33300800  1
  Na  Na1  1  0.75000000  0.75000000  0.41699200  1
  Na  Na2  1  0.75000000  0.75000000  0.08300800  1
  Na  Na3  1  0.00000000  0.00000000  0.16699200  1
  Na  Na4  1  0.50000000  0.50000000  0.83300800  1
  Na  Na5  1  0.75000000  0.25000000  0.91699200  1
  Na  Na6  1  0.75000000  0.25000000  0.58300800  1
  Na  Na7  1  0.00000000  0.50000000  0.66699200  1
  Na  Na8  1  0.00000000  0.00000000  0.83300800  1
  Na  Na9  1  0.25000000  0.75000000  0.91699200  1
  Na  Na10  1  0.25000000  0.75000000  0.58300800  1
  Na  Na11  1  0.50000000  0.00000000  0.66699200  1
  Na  Na12  1  0.00000000  0.50000000  0.33300800  1
  Na  Na13  1  0.25000000  0.25000000  0.41699200  1
  Na  Na14  1  0.25000000  0.25000000  0.08300800  1
  Na  Na15  1  0.50000000  0.50000000  0.16699200  1
  Mn  Mn16  1  0.61835950  0.87453100  0.21093350  1
  Mn  Mn17  1  0.38164050  0.12546900  0.21093350  1
  Mn  Mn18  1  0.88164050  0.87453100  0.28906650  1
  Mn  Mn19  1  0.11835950  0.12546900  0.28906650  1
  Mn  Mn20  1  0.87500000  0.12500000  0.37500000  1
  Mn  Mn21  1  0.12500000  0.87500000  0.37500000  1
  Mn  Mn22  1  0.86835950  0.37546900  0.46093350  1
  Mn  Mn23  1  0.63164050  0.12453100  0.46093350  1
  Mn  Mn24  1  0.86835950  0.12453100  0.03906650  1
  Mn  Mn25  1  0.63164050  0.37546900  0.03906650  1
  Mn  Mn26  1  0.62500000  0.12500000  0.12500000  1
  Mn  Mn27  1  0.37500000  0.87500000  0.12500000  1
  Mn  Mn28  1  0.61835950  0.37453100  0.71093350  1
  Mn  Mn29  1  0.38164050  0.62546900  0.71093350  1
  Mn  Mn30  1  0.88164050  0.37453100  0.78906650  1
  Mn  Mn31  1  0.11835950  0.62546900  0.78906650  1
  Mn  Mn32  1  0.87500000  0.62500000  0.87500000  1
  Mn  Mn33  1  0.12500000  0.37500000  0.87500000  1
  Mn  Mn34  1  0.86835950  0.87546900  0.96093350  1
  Mn  Mn35  1  0.63164050  0.62453100  0.96093350  1
  Mn  Mn36  1  0.86835950  0.62453100  0.53906650  1
  Mn  Mn37  1  0.63164050  0.87546900  0.53906650  1
  Mn  Mn38  1  0.62500000  0.62500000  0.62500000  1
  Mn  Mn39  1  0.37500000  0.37500000  0.62500000  1
  Mn  Mn40  1  0.11835950  0.87453100  0.71093350  1
  Mn  Mn41  1  0.88164050  0.12546900  0.71093350  1
  Mn  Mn42  1  0.38164050  0.87453100  0.78906650  1
  Mn  Mn43  1  0.61835950  0.12546900  0.78906650  1
  Mn  Mn44  1  0.37500000  0.12500000  0.87500000  1
  Mn  Mn45  1  0.62500000  0.87500000  0.87500000  1
  Mn  Mn46  1  0.36835950  0.37546900  0.96093350  1
  Mn  Mn47  1  0.13164050  0.12453100  0.96093350  1
  Mn  Mn48  1  0.36835950  0.12453100  0.53906650  1
  Mn  Mn49  1  0.13164050  0.37546900  0.53906650  1
  Mn  Mn50  1  0.12500000  0.12500000  0.62500000  1
  Mn  Mn51  1  0.87500000  0.87500000  0.62500000  1
  Mn  Mn52  1  0.11835950  0.37453100  0.21093350  1
  Mn  Mn53  1  0.88164050  0.62546900  0.21093350  1
  Mn  Mn54  1  0.38164050  0.37453100  0.28906650  1
  Mn  Mn55  1  0.61835950  0.62546900  0.28906650  1
  Mn  Mn56  1  0.37500000  0.62500000  0.37500000  1
  Mn  Mn57  1  0.62500000  0.37500000  0.37500000  1
  Mn  Mn58  1  0.36835950  0.87546900  0.46093350  1
  Mn  Mn59  1  0.13164050  0.62453100  0.46093350  1
  Mn  Mn60  1  0.36835950  0.62453100  0.03906650  1
  Mn  Mn61  1  0.13164050  0.87546900  0.03906650  1
  Mn  Mn62  1  0.12500000  0.62500000  0.12500000  1
  Mn  Mn63  1  0.87500000  0.37500000  0.12500000  1
  O  O64  1  0.85494900  0.85087700  0.21509700  1
  O  O65  1  0.64505100  0.64912300  0.21509700  1
  O  O66  1  0.64505100  0.85087700  0.28490300  1
  O  O67  1  0.85494900  0.64912300  0.28490300  1
  O  O68  1  0.89043400  0.09732600  0.29128700  1
  O  O69  1  0.10956600  0.90267400  0.29128700  1
  O  O70  1  0.89426800  0.88121300  0.36328400  1
  O  O71  1  0.10573200  0.11878700  0.36328400  1
  O  O72  1  0.64426800  0.13121300  0.38671600  1
  O  O73  1  0.85573200  0.36878700  0.38671600  1
  O  O74  1  0.85956600  0.15267400  0.45871300  1
  O  O75  1  0.14043400  0.84732600  0.45871300  1
  O  O76  1  0.89505100  0.60087700  0.46509700  1
  O  O77  1  0.60494900  0.89912300  0.46509700  1
  O  O78  1  0.89505100  0.89912300  0.03490300  1
  O  O79  1  0.60494900  0.60087700  0.03490300  1
  O  O80  1  0.35956600  0.84732600  0.04128700  1
  O  O81  1  0.64043400  0.15267400  0.04128700  1
  O  O82  1  0.85573200  0.13121300  0.11328400  1
  O  O83  1  0.64426800  0.36878700  0.11328400  1
  O  O84  1  0.60573200  0.88121300  0.13671600  1
  O  O85  1  0.39426800  0.11878700  0.13671600  1
  O  O86  1  0.39043400  0.90267400  0.20871300  1
  O  O87  1  0.60956600  0.09732600  0.20871300  1
  O  O88  1  0.85494900  0.35087700  0.71509700  1
  O  O89  1  0.64505100  0.14912300  0.71509700  1
  O  O90  1  0.64505100  0.35087700  0.78490300  1
  O  O91  1  0.85494900  0.14912300  0.78490300  1
  O  O92  1  0.89043400  0.59732600  0.79128700  1
  O  O93  1  0.10956600  0.40267400  0.79128700  1
  O  O94  1  0.89426800  0.38121300  0.86328400  1
  O  O95  1  0.10573200  0.61878700  0.86328400  1
  O  O96  1  0.64426800  0.63121300  0.88671600  1
  O  O97  1  0.85573200  0.86878700  0.88671600  1
  O  O98  1  0.85956600  0.65267400  0.95871300  1
  O  O99  1  0.14043400  0.34732600  0.95871300  1
  O  O100  1  0.89505100  0.10087700  0.96509700  1
  O  O101  1  0.60494900  0.39912300  0.96509700  1
  O  O102  1  0.89505100  0.39912300  0.53490300  1
  O  O103  1  0.60494900  0.10087700  0.53490300  1
  O  O104  1  0.35956600  0.34732600  0.54128700  1
  O  O105  1  0.64043400  0.65267400  0.54128700  1
  O  O106  1  0.85573200  0.63121300  0.61328400  1
  O  O107  1  0.64426800  0.86878700  0.61328400  1
  O  O108  1  0.60573200  0.38121300  0.63671600  1
  O  O109  1  0.39426800  0.61878700  0.63671600  1
  O  O110  1  0.39043400  0.40267400  0.70871300  1
  O  O111  1  0.60956600  0.59732600  0.70871300  1
  O  O112  1  0.35494900  0.85087700  0.71509700  1
  O  O113  1  0.14505100  0.64912300  0.71509700  1
  O  O114  1  0.14505100  0.85087700  0.78490300  1
  O  O115  1  0.35494900  0.64912300  0.78490300  1
  O  O116  1  0.39043400  0.09732600  0.79128700  1
  O  O117  1  0.60956600  0.90267400  0.79128700  1
  O  O118  1  0.39426800  0.88121300  0.86328400  1
  O  O119  1  0.60573200  0.11878700  0.86328400  1
  O  O120  1  0.14426800  0.13121300  0.88671600  1
  O  O121  1  0.35573200  0.36878700  0.88671600  1
  O  O122  1  0.35956600  0.15267400  0.95871300  1
  O  O123  1  0.64043400  0.84732600  0.95871300  1
  O  O124  1  0.39505100  0.60087700  0.96509700  1
  O  O125  1  0.10494900  0.89912300  0.96509700  1
  O  O126  1  0.39505100  0.89912300  0.53490300  1
  O  O127  1  0.10494900  0.60087700  0.53490300  1
  O  O128  1  0.85956600  0.84732600  0.54128700  1
  O  O129  1  0.14043400  0.15267400  0.54128700  1
  O  O130  1  0.35573200  0.13121300  0.61328400  1
  O  O131  1  0.14426800  0.36878700  0.61328400  1
  O  O132  1  0.10573200  0.88121300  0.63671600  1
  O  O133  1  0.89426800  0.11878700  0.63671600  1
  O  O134  1  0.89043400  0.90267400  0.70871300  1
  O  O135  1  0.10956600  0.09732600  0.70871300  1
  O  O136  1  0.35494900  0.35087700  0.21509700  1
  O  O137  1  0.14505100  0.14912300  0.21509700  1
  O  O138  1  0.14505100  0.35087700  0.28490300  1
  O  O139  1  0.35494900  0.14912300  0.28490300  1
  O  O140  1  0.39043400  0.59732600  0.29128700  1
  O  O141  1  0.60956600  0.40267400  0.29128700  1
  O  O142  1  0.39426800  0.38121300  0.36328400  1
  O  O143  1  0.60573200  0.61878700  0.36328400  1
  O  O144  1  0.14426800  0.63121300  0.38671600  1
  O  O145  1  0.35573200  0.86878700  0.38671600  1
  O  O146  1  0.35956600  0.65267400  0.45871300  1
  O  O147  1  0.64043400  0.34732600  0.45871300  1
  O  O148  1  0.39505100  0.10087700  0.46509700  1
  O  O149  1  0.10494900  0.39912300  0.46509700  1
  O  O150  1  0.39505100  0.39912300  0.03490300  1
  O  O151  1  0.10494900  0.10087700  0.03490300  1
  O  O152  1  0.85956600  0.34732600  0.04128700  1
  O  O153  1  0.14043400  0.65267400  0.04128700  1
  O  O154  1  0.35573200  0.63121300  0.11328400  1
  O  O155  1  0.14426800  0.86878700  0.11328400  1
  O  O156  1  0.10573200  0.38121300  0.13671600  1
  O  O157  1  0.89426800  0.61878700  0.13671600  1
  O  O158  1  0.89043400  0.40267400  0.20871300  1
  O  O159  1  0.10956600  0.59732600  0.20871300  1
