# generated using pymatgen
data_Na5Bi2P(CO4)4
_symmetry_space_group_name_H-M   'P 1'
_cell_length_a   14.54482800
_cell_length_b   14.62479000
_cell_length_c   14.94968400
_cell_angle_alpha   90.00000000
_cell_angle_beta   90.00000000
_cell_angle_gamma   90.00000000
_symmetry_Int_Tables_number   1
_chemical_formula_structural   Na5Bi2P(CO4)4
_chemical_formula_sum   'Na40 Bi16 P8 C32 O128'
_cell_volume   3180.02285558
_cell_formula_units_Z   8
loop_
 _symmetry_equiv_pos_site_id
 _symmetry_equiv_pos_as_xyz
  1  'x, y, z'
loop_
 _atom_site_type_symbol
 _atom_site_label
 _atom_site_symmetry_multiplicity
 _atom_site_fract_x
 _atom_site_fract_y
 _atom_site_fract_z
 _atom_site_occupancy
  Na  Na0  1  0.50512050  0.69206400  0.37794650  1
  Na  Na1  1  0.05722700  0.75522550  0.12668750  1
  Na  Na2  1  0.74487950  0.44206400  0.12794650  1
  Na  Na3  1  0.94277300  0.24477450  0.12668750  1
  Na  Na4  1  0.69277300  0.50522550  0.37668750  1
  Na  Na5  1  0.49487950  0.30793600  0.37794650  1
  Na  Na6  1  0.30722700  0.49477450  0.37668750  1
  Na  Na7  1  0.25000000  0.75000000  0.31790700  1
  Na  Na8  1  0.25512050  0.55793600  0.12794650  1
  Na  Na9  1  0.00000000  0.50000000  0.06790700  1
  Na  Na10  1  0.50512050  0.19206400  0.87794650  1
  Na  Na11  1  0.05722700  0.25522550  0.62668750  1
  Na  Na12  1  0.74487950  0.94206400  0.62794650  1
  Na  Na13  1  0.94277300  0.74477450  0.62668750  1
  Na  Na14  1  0.69277300  0.00522550  0.87668750  1
  Na  Na15  1  0.49487950  0.80793600  0.87794650  1
  Na  Na16  1  0.30722700  0.99477450  0.87668750  1
  Na  Na17  1  0.25000000  0.25000000  0.81790700  1
  Na  Na18  1  0.25512050  0.05793600  0.62794650  1
  Na  Na19  1  0.00000000  0.00000000  0.56790700  1
  Na  Na20  1  0.00512050  0.69206400  0.87794650  1
  Na  Na21  1  0.55722700  0.75522550  0.62668750  1
  Na  Na22  1  0.24487950  0.44206400  0.62794650  1
  Na  Na23  1  0.44277300  0.24477450  0.62668750  1
  Na  Na24  1  0.19277300  0.50522550  0.87668750  1
  Na  Na25  1  0.99487950  0.30793600  0.87794650  1
  Na  Na26  1  0.80722700  0.49477450  0.87668750  1
  Na  Na27  1  0.75000000  0.75000000  0.81790700  1
  Na  Na28  1  0.75512050  0.55793600  0.62794650  1
  Na  Na29  1  0.50000000  0.50000000  0.56790700  1
  Na  Na30  1  0.00512050  0.19206400  0.37794650  1
  Na  Na31  1  0.55722700  0.25522550  0.12668750  1
  Na  Na32  1  0.24487950  0.94206400  0.12794650  1
  Na  Na33  1  0.44277300  0.74477450  0.12668750  1
  Na  Na34  1  0.19277300  0.00522550  0.37668750  1
  Na  Na35  1  0.99487950  0.80793600  0.37794650  1
  Na  Na36  1  0.80722700  0.99477450  0.37668750  1
  Na  Na37  1  0.75000000  0.25000000  0.31790700  1
  Na  Na38  1  0.75512050  0.05793600  0.12794650  1
  Na  Na39  1  0.50000000  0.00000000  0.06790700  1
  Bi  Bi40  1  0.37752550  0.37863950  0.00251800  1
  Bi  Bi41  1  0.12752550  0.37136050  0.25251800  1
  Bi  Bi42  1  0.12247450  0.12136050  0.00251800  1
  Bi  Bi43  1  0.37247450  0.12863950  0.25251800  1
  Bi  Bi44  1  0.37752550  0.87863950  0.50251800  1
  Bi  Bi45  1  0.12752550  0.87136050  0.75251800  1
  Bi  Bi46  1  0.12247450  0.62136050  0.50251800  1
  Bi  Bi47  1  0.37247450  0.62863950  0.75251800  1
  Bi  Bi48  1  0.87752550  0.37863950  0.50251800  1
  Bi  Bi49  1  0.62752550  0.37136050  0.75251800  1
  Bi  Bi50  1  0.62247450  0.12136050  0.50251800  1
  Bi  Bi51  1  0.87247450  0.12863950  0.75251800  1
  Bi  Bi52  1  0.87752550  0.87863950  0.00251800  1
  Bi  Bi53  1  0.62752550  0.87136050  0.25251800  1
  Bi  Bi54  1  0.62247450  0.62136050  0.00251800  1
  Bi  Bi55  1  0.87247450  0.62863950  0.25251800  1
  P  P56  1  0.25000000  0.75000000  0.12832100  1
  P  P57  1  0.50000000  0.50000000  0.37832100  1
  P  P58  1  0.25000000  0.25000000  0.62832100  1
  P  P59  1  0.50000000  0.00000000  0.87832100  1
  P  P60  1  0.75000000  0.75000000  0.62832100  1
  P  P61  1  0.00000000  0.50000000  0.87832100  1
  P  P62  1  0.75000000  0.25000000  0.12832100  1
  P  P63  1  0.00000000  0.00000000  0.37832100  1
  C  C64  1  0.34918150  0.34760750  0.21902200  1
  C  C65  1  0.15081850  0.15239250  0.21902200  1
  C  C66  1  0.84774600  0.65319300  0.02866800  1
  C  C67  1  0.15225400  0.34680700  0.02866800  1
  C  C68  1  0.09918150  0.40239250  0.46902200  1
  C  C69  1  0.40081850  0.09760750  0.46902200  1
  C  C70  1  0.90225400  0.40319300  0.27866800  1
  C  C71  1  0.09774600  0.59680700  0.27866800  1
  C  C72  1  0.34918150  0.84760750  0.71902200  1
  C  C73  1  0.15081850  0.65239250  0.71902200  1
  C  C74  1  0.84774600  0.15319300  0.52866800  1
  C  C75  1  0.15225400  0.84680700  0.52866800  1
  C  C76  1  0.09918150  0.90239250  0.96902200  1
  C  C77  1  0.40081850  0.59760750  0.96902200  1
  C  C78  1  0.90225400  0.90319300  0.77866800  1
  C  C79  1  0.09774600  0.09680700  0.77866800  1
  C  C80  1  0.84918150  0.34760750  0.71902200  1
  C  C81  1  0.65081850  0.15239250  0.71902200  1
  C  C82  1  0.34774600  0.65319300  0.52866800  1
  C  C83  1  0.65225400  0.34680700  0.52866800  1
  C  C84  1  0.59918150  0.40239250  0.96902200  1
  C  C85  1  0.90081850  0.09760750  0.96902200  1
  C  C86  1  0.40225400  0.40319300  0.77866800  1
  C  C87  1  0.59774600  0.59680700  0.77866800  1
  C  C88  1  0.84918150  0.84760750  0.21902200  1
  C  C89  1  0.65081850  0.65239250  0.21902200  1
  C  C90  1  0.34774600  0.15319300  0.02866800  1
  C  C91  1  0.65225400  0.84680700  0.02866800  1
  C  C92  1  0.59918150  0.90239250  0.46902200  1
  C  C93  1  0.90081850  0.59760750  0.46902200  1
  C  C94  1  0.40225400  0.90319300  0.27866800  1
  C  C95  1  0.59774600  0.09680700  0.27866800  1
  O  O96  1  0.53532450  0.84027550  0.47397100  1
  O  O97  1  0.35675900  0.28677350  0.28180650  1
  O  O98  1  0.14324100  0.21322650  0.28180650  1
  O  O99  1  0.96796800  0.34217800  0.27268300  1
  O  O100  1  0.21467550  0.09027550  0.22397100  1
  O  O101  1  0.31205350  0.68858050  0.19058700  1
  O  O102  1  0.18794650  0.81141950  0.19058700  1
  O  O103  1  0.40524050  0.34491700  0.15141250  1
  O  O104  1  0.09475950  0.15508300  0.15141250  1
  O  O105  1  0.09226050  0.35307650  0.09259800  1
  O  O106  1  0.90773950  0.64692350  0.09259800  1
  O  O107  1  0.18680150  0.68660300  0.07227450  1
  O  O108  1  0.81319850  0.31339700  0.07227450  1
  O  O109  1  0.60675900  0.46322650  0.03180650  1
  O  O110  1  0.39324100  0.53677350  0.03180650  1
  O  O111  1  0.78203200  0.59217800  0.02268300  1
  O  O112  1  0.46467550  0.15972450  0.47397100  1
  O  O113  1  0.64731700  0.28124750  0.47009850  1
  O  O114  1  0.35268300  0.71875250  0.47009850  1
  O  O115  1  0.43794650  0.43858050  0.44058700  1
  O  O116  1  0.56205350  0.56141950  0.44058700  1
  O  O117  1  0.34475950  0.09491700  0.40141250  1
  O  O118  1  0.15524050  0.40508300  0.40141250  1
  O  O119  1  0.34226050  0.89692350  0.34259800  1
  O  O120  1  0.15773950  0.60307650  0.34259800  1
  O  O121  1  0.56319850  0.43660300  0.32227450  1
  O  O122  1  0.43680150  0.56339700  0.32227450  1
  O  O123  1  0.03203200  0.65782200  0.27268300  1
  O  O124  1  0.28532450  0.40972450  0.22397100  1
  O  O125  1  0.10268300  0.53124750  0.22009850  1
  O  O126  1  0.89731700  0.46875250  0.22009850  1
  O  O127  1  0.21796800  0.40782200  0.02268300  1
  O  O128  1  0.53532450  0.34027550  0.97397100  1
  O  O129  1  0.35675900  0.78677350  0.78180650  1
  O  O130  1  0.14324100  0.71322650  0.78180650  1
  O  O131  1  0.96796800  0.84217800  0.77268300  1
  O  O132  1  0.21467550  0.59027550  0.72397100  1
  O  O133  1  0.31205350  0.18858050  0.69058700  1
  O  O134  1  0.18794650  0.31141950  0.69058700  1
  O  O135  1  0.40524050  0.84491700  0.65141250  1
  O  O136  1  0.09475950  0.65508300  0.65141250  1
  O  O137  1  0.09226050  0.85307650  0.59259800  1
  O  O138  1  0.90773950  0.14692350  0.59259800  1
  O  O139  1  0.18680150  0.18660300  0.57227450  1
  O  O140  1  0.81319850  0.81339700  0.57227450  1
  O  O141  1  0.60675900  0.96322650  0.53180650  1
  O  O142  1  0.39324100  0.03677350  0.53180650  1
  O  O143  1  0.78203200  0.09217800  0.52268300  1
  O  O144  1  0.46467550  0.65972450  0.97397100  1
  O  O145  1  0.64731700  0.78124750  0.97009850  1
  O  O146  1  0.35268300  0.21875250  0.97009850  1
  O  O147  1  0.43794650  0.93858050  0.94058700  1
  O  O148  1  0.56205350  0.06141950  0.94058700  1
  O  O149  1  0.34475950  0.59491700  0.90141250  1
  O  O150  1  0.15524050  0.90508300  0.90141250  1
  O  O151  1  0.34226050  0.39692350  0.84259800  1
  O  O152  1  0.15773950  0.10307650  0.84259800  1
  O  O153  1  0.56319850  0.93660300  0.82227450  1
  O  O154  1  0.43680150  0.06339700  0.82227450  1
  O  O155  1  0.03203200  0.15782200  0.77268300  1
  O  O156  1  0.28532450  0.90972450  0.72397100  1
  O  O157  1  0.10268300  0.03124750  0.72009850  1
  O  O158  1  0.89731700  0.96875250  0.72009850  1
  O  O159  1  0.21796800  0.90782200  0.52268300  1
  O  O160  1  0.03532450  0.84027550  0.97397100  1
  O  O161  1  0.85675900  0.28677350  0.78180650  1
  O  O162  1  0.64324100  0.21322650  0.78180650  1
  O  O163  1  0.46796800  0.34217800  0.77268300  1
  O  O164  1  0.71467550  0.09027550  0.72397100  1
  O  O165  1  0.81205350  0.68858050  0.69058700  1
  O  O166  1  0.68794650  0.81141950  0.69058700  1
  O  O167  1  0.90524050  0.34491700  0.65141250  1
  O  O168  1  0.59475950  0.15508300  0.65141250  1
  O  O169  1  0.59226050  0.35307650  0.59259800  1
  O  O170  1  0.40773950  0.64692350  0.59259800  1
  O  O171  1  0.68680150  0.68660300  0.57227450  1
  O  O172  1  0.31319850  0.31339700  0.57227450  1
  O  O173  1  0.10675900  0.46322650  0.53180650  1
  O  O174  1  0.89324100  0.53677350  0.53180650  1
  O  O175  1  0.28203200  0.59217800  0.52268300  1
  O  O176  1  0.96467550  0.15972450  0.97397100  1
  O  O177  1  0.14731700  0.28124750  0.97009850  1
  O  O178  1  0.85268300  0.71875250  0.97009850  1
  O  O179  1  0.93794650  0.43858050  0.94058700  1
  O  O180  1  0.06205350  0.56141950  0.94058700  1
  O  O181  1  0.84475950  0.09491700  0.90141250  1
  O  O182  1  0.65524050  0.40508300  0.90141250  1
  O  O183  1  0.84226050  0.89692350  0.84259800  1
  O  O184  1  0.65773950  0.60307650  0.84259800  1
  O  O185  1  0.06319850  0.43660300  0.82227450  1
  O  O186  1  0.93680150  0.56339700  0.82227450  1
  O  O187  1  0.53203200  0.65782200  0.77268300  1
  O  O188  1  0.78532450  0.40972450  0.72397100  1
  O  O189  1  0.60268300  0.53124750  0.72009850  1
  O  O190  1  0.39731700  0.46875250  0.72009850  1
  O  O191  1  0.71796800  0.40782200  0.52268300  1
  O  O192  1  0.03532450  0.34027550  0.47397100  1
  O  O193  1  0.85675900  0.78677350  0.28180650  1
  O  O194  1  0.64324100  0.71322650  0.28180650  1
  O  O195  1  0.46796800  0.84217800  0.27268300  1
  O  O196  1  0.71467550  0.59027550  0.22397100  1
  O  O197  1  0.81205350  0.18858050  0.19058700  1
  O  O198  1  0.68794650  0.31141950  0.19058700  1
  O  O199  1  0.90524050  0.84491700  0.15141250  1
  O  O200  1  0.59475950  0.65508300  0.15141250  1
  O  O201  1  0.59226050  0.85307650  0.09259800  1
  O  O202  1  0.40773950  0.14692350  0.09259800  1
  O  O203  1  0.68680150  0.18660300  0.07227450  1
  O  O204  1  0.31319850  0.81339700  0.07227450  1
  O  O205  1  0.10675900  0.96322650  0.03180650  1
  O  O206  1  0.89324100  0.03677350  0.03180650  1
  O  O207  1  0.28203200  0.09217800  0.02268300  1
  O  O208  1  0.96467550  0.65972450  0.47397100  1
  O  O209  1  0.14731700  0.78124750  0.47009850  1
  O  O210  1  0.85268300  0.21875250  0.47009850  1
  O  O211  1  0.93794650  0.93858050  0.44058700  1
  O  O212  1  0.06205350  0.06141950  0.44058700  1
  O  O213  1  0.84475950  0.59491700  0.40141250  1
  O  O214  1  0.65524050  0.90508300  0.40141250  1
  O  O215  1  0.84226050  0.39692350  0.34259800  1
  O  O216  1  0.65773950  0.10307650  0.34259800  1
  O  O217  1  0.06319850  0.93660300  0.32227450  1
  O  O218  1  0.93680150  0.06339700  0.32227450  1
  O  O219  1  0.53203200  0.15782200  0.27268300  1
  O  O220  1  0.78532450  0.90972450  0.22397100  1
  O  O221  1  0.60268300  0.03124750  0.22009850  1
  O  O222  1  0.39731700  0.96875250  0.22009850  1
  O  O223  1  0.71796800  0.90782200  0.02268300  1
