# generated using pymatgen
data_MgSO4
_symmetry_space_group_name_H-M   'P 1'
_cell_length_a   5.21959000
_cell_length_b   8.01038800
_cell_length_c   6.61218400
_cell_angle_alpha   90.00000000
_cell_angle_beta   90.00000000
_cell_angle_gamma   90.00000000
_symmetry_Int_Tables_number   1
_chemical_formula_structural   MgSO4
_chemical_formula_sum   'Mg4 S4 O16'
_cell_volume   276.46163577
_cell_formula_units_Z   4
loop_
 _symmetry_equiv_pos_site_id
 _symmetry_equiv_pos_as_xyz
  1  'x, y, z'
loop_
 _atom_site_type_symbol
 _atom_site_label
 _atom_site_symmetry_multiplicity
 _atom_site_fract_x
 _atom_site_fract_y
 _atom_site_fract_z
 _atom_site_occupancy
  Mg  Mg0  1  0.00000000  0.00000000  0.50000000  1
  Mg  Mg1  1  0.00000000  0.00000000  0.00000000  1
  Mg  Mg2  1  0.50000000  0.50000000  0.50000000  1
  Mg  Mg3  1  0.50000000  0.50000000  0.00000000  1
  S  S4  1  0.50000000  0.15159100  0.25000000  1
  S  S5  1  0.50000000  0.84840900  0.75000000  1
  S  S6  1  0.00000000  0.65159100  0.25000000  1
  S  S7  1  0.00000000  0.34840900  0.75000000  1
  O  O8  1  0.26531650  0.04107250  0.25000000  1
  O  O9  1  0.73468350  0.95892750  0.75000000  1
  O  O10  1  0.26531650  0.95892750  0.75000000  1
  O  O11  1  0.73468350  0.04107250  0.25000000  1
  O  O12  1  0.50000000  0.25258000  0.43475700  1
  O  O13  1  0.50000000  0.74742000  0.93475700  1
  O  O14  1  0.50000000  0.74742000  0.56524300  1
  O  O15  1  0.50000000  0.25258000  0.06524300  1
  O  O16  1  0.76531650  0.54107250  0.25000000  1
  O  O17  1  0.23468350  0.45892750  0.75000000  1
  O  O18  1  0.76531650  0.45892750  0.75000000  1
  O  O19  1  0.23468350  0.54107250  0.25000000  1
  O  O20  1  0.00000000  0.75258000  0.43475700  1
  O  O21  1  0.00000000  0.24742000  0.93475700  1
  O  O22  1  0.00000000  0.24742000  0.56524300  1
  O  O23  1  0.00000000  0.75258000  0.06524300  1
