# generated using pymatgen
data_Mn9(PO4)8
_symmetry_space_group_name_H-M   'P 1'
_cell_length_a   8.92342300
_cell_length_b   8.98185149
_cell_length_c   9.28420561
_cell_angle_alpha   112.14769272
_cell_angle_beta   99.83738427
_cell_angle_gamma   102.26705518
_symmetry_Int_Tables_number   1
_chemical_formula_structural   Mn9(PO4)8
_chemical_formula_sum   'Mn9 P8 O32'
_cell_volume   647.07109174
_cell_formula_units_Z   1
loop_
 _symmetry_equiv_pos_site_id
 _symmetry_equiv_pos_as_xyz
  1  'x, y, z'
loop_
 _atom_site_type_symbol
 _atom_site_label
 _atom_site_symmetry_multiplicity
 _atom_site_fract_x
 _atom_site_fract_y
 _atom_site_fract_z
 _atom_site_occupancy
  Mn  Mn0  1  0.67471800  0.30464800  0.54899400  1
  Mn  Mn1  1  0.71727000  0.87495700  0.43993200  1
  Mn  Mn2  1  0.00000000  0.50000000  0.50000000  1
  Mn  Mn3  1  0.28273000  0.12504300  0.56006800  1
  Mn  Mn4  1  0.00000000  0.00000000  0.00000000  1
  Mn  Mn5  1  0.22006800  0.70375400  0.94710500  1
  Mn  Mn6  1  0.77993200  0.29624600  0.05289500  1
  Mn  Mn7  1  0.50000000  0.50000000  0.00000000  1
  Mn  Mn8  1  0.32528200  0.69535200  0.45100600  1
  P  P9  1  0.65851700  0.46157600  0.28074800  1
  P  P10  1  0.85097500  0.62363700  0.90295300  1
  P  P11  1  0.05065300  0.88420600  0.65230100  1
  P  P12  1  0.14902500  0.37636300  0.09704700  1
  P  P13  1  0.34148300  0.53842400  0.71925200  1
  P  P14  1  0.40512000  0.95638800  0.29503100  1
  P  P15  1  0.94934700  0.11579400  0.34769900  1
  P  P16  1  0.59488000  0.04361200  0.70496900  1
  O  O17  1  0.12058700  0.74766800  0.55316900  1
  O  O18  1  0.12506100  0.05813300  0.65878200  1
  O  O19  1  0.13341800  0.16970700  0.41659100  1
  O  O20  1  0.97352700  0.33139500  0.99568300  1
  O  O21  1  0.62607300  0.43346100  0.42362700  1
  O  O22  1  0.16082400  0.52542100  0.71896900  1
  O  O23  1  0.26661500  0.47631900  0.03667300  1
  O  O24  1  0.16542200  0.48255100  0.27873000  1
  O  O25  1  0.86658200  0.83029300  0.58340900  1
  O  O26  1  0.43792100  0.08734900  0.70888200  1
  O  O27  1  0.70918700  0.14313500  0.64088500  1
  O  O28  1  0.82334200  0.79655800  0.92968900  1
  O  O29  1  0.73338500  0.52368100  0.96332700  1
  O  O30  1  0.17665800  0.20344200  0.07031100  1
  O  O31  1  0.42372700  0.68838200  0.89411200  1
  O  O32  1  0.83457800  0.51744900  0.72127000  1
  O  O33  1  0.39155600  0.38737300  0.72804500  1
  O  O34  1  0.87941300  0.25233200  0.44683100  1
  O  O35  1  0.56207900  0.91265100  0.29111800  1
  O  O36  1  0.55821600  0.85533300  0.57586300  1
  O  O37  1  0.37392700  0.56653900  0.57637300  1
  O  O38  1  0.44178400  0.14466700  0.42413700  1
  O  O39  1  0.87493900  0.94186700  0.34121800  1
  O  O40  1  0.91498500  0.11217000  0.17545200  1
  O  O41  1  0.83917600  0.47457900  0.28103100  1
  O  O42  1  0.08501500  0.88783000  0.82454800  1
  O  O43  1  0.60844400  0.61262700  0.27195500  1
  O  O44  1  0.57627300  0.31161800  0.10588800  1
  O  O45  1  0.29081300  0.85686500  0.35911500  1
  O  O46  1  0.02647300  0.66860500  0.00431700  1
  O  O47  1  0.68140800  0.07057300  0.87468300  1
  O  O48  1  0.31859200  0.92942700  0.12531700  1
