# generated using pymatgen
data_Na4Ni2O5
_symmetry_space_group_name_H-M   'P 1'
_cell_length_a   9.07390800
_cell_length_b   5.61991600
_cell_length_c   12.69398516
_cell_angle_alpha   90.00000000
_cell_angle_beta   117.48726383
_cell_angle_gamma   90.00000000
_symmetry_Int_Tables_number   1
_chemical_formula_structural   Na4Ni2O5
_chemical_formula_sum   'Na16 Ni8 O20'
_cell_volume   574.25045404
_cell_formula_units_Z   4
loop_
 _symmetry_equiv_pos_site_id
 _symmetry_equiv_pos_as_xyz
  1  'x, y, z'
loop_
 _atom_site_type_symbol
 _atom_site_label
 _atom_site_symmetry_multiplicity
 _atom_site_fract_x
 _atom_site_fract_y
 _atom_site_fract_z
 _atom_site_occupancy
  Na  Na0  1  0.19920500  0.07202100  0.03734900  1
  Na  Na1  1  0.70228800  0.41210900  0.03992600  1
  Na  Na2  1  0.60903700  0.88139900  0.13015900  1
  Na  Na3  1  0.12487400  0.62663500  0.13872500  1
  Na  Na4  1  0.39096300  0.38139900  0.36984100  1
  Na  Na5  1  0.87512600  0.12663500  0.36127500  1
  Na  Na6  1  0.80079500  0.57202100  0.46265100  1
  Na  Na7  1  0.70228800  0.08789100  0.53992600  1
  Na  Na8  1  0.29771200  0.91210900  0.46007400  1
  Na  Na9  1  0.19920500  0.42797900  0.53734900  1
  Na  Na10  1  0.12487400  0.87336500  0.63872500  1
  Na  Na11  1  0.60903700  0.61860100  0.63015900  1
  Na  Na12  1  0.87512600  0.37336500  0.86127500  1
  Na  Na13  1  0.39096300  0.11860100  0.86984100  1
  Na  Na14  1  0.29771200  0.58789100  0.96007400  1
  Na  Na15  1  0.80079500  0.92797900  0.96265100  1
  Ni  Ni16  1  0.54195800  0.38344500  0.20004900  1
  Ni  Ni17  1  0.45804200  0.88344500  0.29995100  1
  Ni  Ni18  1  0.04426000  0.15604300  0.20277700  1
  Ni  Ni19  1  0.95574000  0.65604300  0.29722300  1
  Ni  Ni20  1  0.04426000  0.34395700  0.70277700  1
  Ni  Ni21  1  0.95574000  0.84395700  0.79722300  1
  Ni  Ni22  1  0.54195800  0.11655500  0.70004900  1
  Ni  Ni23  1  0.45804200  0.61655500  0.79995100  1
  O  O24  1  0.45093100  0.23629200  0.05636800  1
  O  O25  1  0.41127300  0.65883200  0.17682300  1
  O  O26  1  0.97052800  0.26529200  0.05319300  1
  O  O27  1  0.89115500  0.91776200  0.19285300  1
  O  O28  1  0.75804600  0.47962900  0.24143500  1
  O  O29  1  0.58872700  0.15883200  0.32317700  1
  O  O30  1  0.24195400  0.97962900  0.25856500  1
  O  O31  1  0.10884500  0.41776200  0.30714700  1
  O  O32  1  0.54906900  0.73629200  0.44363200  1
  O  O33  1  0.02947200  0.76529200  0.44680700  1
  O  O34  1  0.97052800  0.23470800  0.55319300  1
  O  O35  1  0.45093100  0.26370800  0.55636800  1
  O  O36  1  0.89115500  0.58223800  0.69285300  1
  O  O37  1  0.75804600  0.02037100  0.74143500  1
  O  O38  1  0.41127300  0.84116800  0.67682300  1
  O  O39  1  0.24195400  0.52037100  0.75856500  1
  O  O40  1  0.10884500  0.08223800  0.80714700  1
  O  O41  1  0.02947200  0.73470800  0.94680700  1
  O  O42  1  0.58872700  0.34116800  0.82317700  1
  O  O43  1  0.54906900  0.76370800  0.94363200  1
