# generated using pymatgen
data_Na4Ti7O16
_symmetry_space_group_name_H-M   'P 1'
_cell_length_a   6.17435500
_cell_length_b   6.08497800
_cell_length_c   9.02608202
_cell_angle_alpha   90.00000000
_cell_angle_beta   93.53451374
_cell_angle_gamma   90.00000000
_symmetry_Int_Tables_number   1
_chemical_formula_structural   Na4Ti7O16
_chemical_formula_sum   'Na4 Ti7 O16'
_cell_volume   338.47219772
_cell_formula_units_Z   1
loop_
 _symmetry_equiv_pos_site_id
 _symmetry_equiv_pos_as_xyz
  1  'x, y, z'
loop_
 _atom_site_type_symbol
 _atom_site_label
 _atom_site_symmetry_multiplicity
 _atom_site_fract_x
 _atom_site_fract_y
 _atom_site_fract_z
 _atom_site_occupancy
  Na  Na0  1  0.24491300  0.00000000  0.37324000  1
  Na  Na1  1  0.22764900  0.50000000  0.12088900  1
  Na  Na2  1  0.77235100  0.50000000  0.87911100  1
  Na  Na3  1  0.75508700  0.00000000  0.62676000  1
  Ti  Ti4  1  0.73685500  0.75550300  0.24410500  1
  Ti  Ti5  1  0.73685500  0.24449700  0.24410500  1
  Ti  Ti6  1  0.50000000  0.00000000  0.00000000  1
  Ti  Ti7  1  0.26314500  0.75550300  0.75589500  1
  Ti  Ti8  1  0.26314500  0.24449700  0.75589500  1
  Ti  Ti9  1  0.00000000  0.50000000  0.50000000  1
  Ti  Ti10  1  0.50000000  0.50000000  0.50000000  1
  O  O11  1  0.51921600  0.50000000  0.28038600  1
  O  O12  1  0.94789600  0.50000000  0.27539600  1
  O  O13  1  0.50861800  0.00000000  0.22396100  1
  O  O14  1  0.91706200  0.00000000  0.27805200  1
  O  O15  1  0.71761600  0.23237100  0.04303000  1
  O  O16  1  0.71761600  0.76762900  0.04303000  1
  O  O17  1  0.28238400  0.23237100  0.95697000  1
  O  O18  1  0.28238400  0.76762900  0.95697000  1
  O  O19  1  0.08293800  0.00000000  0.72194800  1
  O  O20  1  0.05210400  0.50000000  0.72460400  1
  O  O21  1  0.48078400  0.50000000  0.71961400  1
  O  O22  1  0.49138200  0.00000000  0.77603900  1
  O  O23  1  0.25035800  0.70700200  0.51064200  1
  O  O24  1  0.25035800  0.29299800  0.51064200  1
  O  O25  1  0.74964200  0.29299800  0.48935800  1
  O  O26  1  0.74964200  0.70700200  0.48935800  1
