# generated using pymatgen
data_LiCrPO4
_symmetry_space_group_name_H-M   'P 1'
_cell_length_a   5.58186500
_cell_length_b   8.28203900
_cell_length_c   6.46664100
_cell_angle_alpha   90.00000000
_cell_angle_beta   90.00000000
_cell_angle_gamma   90.00000000
_symmetry_Int_Tables_number   1
_chemical_formula_structural   LiCrPO4
_chemical_formula_sum   'Li4 Cr4 P4 O16'
_cell_volume   298.94779288
_cell_formula_units_Z   4
loop_
 _symmetry_equiv_pos_site_id
 _symmetry_equiv_pos_as_xyz
  1  'x, y, z'
loop_
 _atom_site_type_symbol
 _atom_site_label
 _atom_site_symmetry_multiplicity
 _atom_site_fract_x
 _atom_site_fract_y
 _atom_site_fract_z
 _atom_site_occupancy
  Li  Li0  1  0.00000000  0.50000000  0.00000000  1
  Li  Li1  1  0.00000000  0.50000000  0.50000000  1
  Li  Li2  1  0.50000000  0.00000000  0.00000000  1
  Li  Li3  1  0.50000000  0.00000000  0.50000000  1
  Cr  Cr4  1  0.00000000  0.79272600  0.75000000  1
  Cr  Cr5  1  0.00000000  0.20727400  0.25000000  1
  Cr  Cr6  1  0.50000000  0.29272600  0.75000000  1
  Cr  Cr7  1  0.50000000  0.70727400  0.25000000  1
  P  P8  1  0.00000000  0.14507500  0.75000000  1
  P  P9  1  0.00000000  0.85492500  0.25000000  1
  P  P10  1  0.50000000  0.64507500  0.75000000  1
  P  P11  1  0.50000000  0.35492500  0.25000000  1
  O  O12  1  0.72754000  0.46428500  0.25000000  1
  O  O13  1  0.72754000  0.53571500  0.75000000  1
  O  O14  1  0.27246000  0.46428500  0.25000000  1
  O  O15  1  0.27246000  0.53571500  0.75000000  1
  O  O16  1  0.00000000  0.74408100  0.05695400  1
  O  O17  1  0.00000000  0.25591900  0.55695400  1
  O  O18  1  0.00000000  0.25591900  0.94304600  1
  O  O19  1  0.00000000  0.74408100  0.44304600  1
  O  O20  1  0.22754000  0.96428500  0.25000000  1
  O  O21  1  0.22754000  0.03571500  0.75000000  1
  O  O22  1  0.77246000  0.96428500  0.25000000  1
  O  O23  1  0.77246000  0.03571500  0.75000000  1
  O  O24  1  0.50000000  0.24408100  0.05695400  1
  O  O25  1  0.50000000  0.75591900  0.55695400  1
  O  O26  1  0.50000000  0.75591900  0.94304600  1
  O  O27  1  0.50000000  0.24408100  0.44304600  1
