# generated using pymatgen
data_Sr2CaI6
_symmetry_space_group_name_H-M   'P 1'
_cell_length_a   7.41956800
_cell_length_b   8.22315000
_cell_length_c   27.45457300
_cell_angle_alpha   90.00000000
_cell_angle_beta   90.00000000
_cell_angle_gamma   90.00000000
_symmetry_Int_Tables_number   1
_chemical_formula_structural   Sr2CaI6
_chemical_formula_sum   'Sr8 Ca4 I24'
_cell_volume   1675.06446433
_cell_formula_units_Z   4
loop_
 _symmetry_equiv_pos_site_id
 _symmetry_equiv_pos_as_xyz
  1  'x, y, z'
loop_
 _atom_site_type_symbol
 _atom_site_label
 _atom_site_symmetry_multiplicity
 _atom_site_fract_x
 _atom_site_fract_y
 _atom_site_fract_z
 _atom_site_occupancy
  Sr  Sr0  1  0.00000000  0.25000000  0.95311400  1
  Sr  Sr1  1  0.00000000  0.75000000  0.71414700  1
  Sr  Sr2  1  0.00000000  0.25000000  0.28585300  1
  Sr  Sr3  1  0.00000000  0.75000000  0.04688600  1
  Sr  Sr4  1  0.50000000  0.25000000  0.78585300  1
  Sr  Sr5  1  0.50000000  0.25000000  0.45311400  1
  Sr  Sr6  1  0.50000000  0.75000000  0.21414700  1
  Sr  Sr7  1  0.50000000  0.75000000  0.54688600  1
  Ca  Ca8  1  0.00000000  0.25000000  0.61954400  1
  Ca  Ca9  1  0.00000000  0.75000000  0.38045600  1
  Ca  Ca10  1  0.50000000  0.25000000  0.11954400  1
  Ca  Ca11  1  0.50000000  0.75000000  0.88045600  1
  I  I12  1  0.24879300  0.58235400  0.95998800  1
  I  I13  1  0.24879300  0.08235400  0.04001200  1
  I  I14  1  0.26145000  0.58380600  0.79824200  1
  I  I15  1  0.26145000  0.08380600  0.20175800  1
  I  I16  1  0.23669300  0.56717600  0.62769900  1
  I  I17  1  0.23669300  0.06717600  0.37230100  1
  I  I18  1  0.26330700  0.56717600  0.12769900  1
  I  I19  1  0.26330700  0.06717600  0.87230100  1
  I  I20  1  0.23855000  0.08380600  0.70175800  1
  I  I21  1  0.23855000  0.58380600  0.29824200  1
  I  I22  1  0.25120700  0.08235400  0.54001200  1
  I  I23  1  0.25120700  0.58235400  0.45998800  1
  I  I24  1  0.74879300  0.41764600  0.54001200  1
  I  I25  1  0.74879300  0.91764600  0.45998800  1
  I  I26  1  0.76145000  0.41619400  0.70175800  1
  I  I27  1  0.76145000  0.91619400  0.29824200  1
  I  I28  1  0.73669300  0.43282400  0.87230100  1
  I  I29  1  0.73669300  0.93282400  0.12769900  1
  I  I30  1  0.76330700  0.93282400  0.62769900  1
  I  I31  1  0.76330700  0.43282400  0.37230100  1
  I  I32  1  0.73855000  0.41619400  0.20175800  1
  I  I33  1  0.73855000  0.91619400  0.79824200  1
  I  I34  1  0.75120700  0.91764600  0.95998800  1
  I  I35  1  0.75120700  0.41764600  0.04001200  1
