# generated using pymatgen
data_BaCa2I6
_symmetry_space_group_name_H-M   'P 1'
_cell_length_a   25.12316400
_cell_length_b   7.68349800
_cell_length_c   8.73252284
_cell_angle_alpha   90.00000000
_cell_angle_beta   93.90816744
_cell_angle_gamma   90.00000000
_symmetry_Int_Tables_number   1
_chemical_formula_structural   BaCa2I6
_chemical_formula_sum   'Ba4 Ca8 I24'
_cell_volume   1681.75198969
_cell_formula_units_Z   4
loop_
 _symmetry_equiv_pos_site_id
 _symmetry_equiv_pos_as_xyz
  1  'x, y, z'
loop_
 _atom_site_type_symbol
 _atom_site_label
 _atom_site_symmetry_multiplicity
 _atom_site_fract_x
 _atom_site_fract_y
 _atom_site_fract_z
 _atom_site_occupancy
  Ba  Ba0  1  0.00000000  0.25060600  0.25000000  1
  Ba  Ba1  1  0.00000000  0.74939400  0.75000000  1
  Ba  Ba2  1  0.50000000  0.75060600  0.25000000  1
  Ba  Ba3  1  0.50000000  0.24939400  0.75000000  1
  Ca  Ca4  1  0.67338550  0.26997250  0.12946100  1
  Ca  Ca5  1  0.67338550  0.73002750  0.62946100  1
  Ca  Ca6  1  0.82661450  0.76997250  0.37053900  1
  Ca  Ca7  1  0.82661450  0.23002750  0.87053900  1
  Ca  Ca8  1  0.17338550  0.76997250  0.12946100  1
  Ca  Ca9  1  0.17338550  0.23002750  0.62946100  1
  Ca  Ca10  1  0.32661450  0.26997250  0.37053900  1
  Ca  Ca11  1  0.32661450  0.73002750  0.87053900  1
  I  I12  1  0.56824700  0.07456000  0.08101600  1
  I  I13  1  0.56824700  0.92544000  0.58101600  1
  I  I14  1  0.61262050  0.47832550  0.38244100  1
  I  I15  1  0.61262050  0.52167450  0.88244100  1
  I  I16  1  0.71726750  0.95790350  0.35677700  1
  I  I17  1  0.71726750  0.04209650  0.85677700  1
  I  I18  1  0.78273250  0.45790350  0.14322300  1
  I  I19  1  0.78273250  0.54209650  0.64322300  1
  I  I20  1  0.88737950  0.97832550  0.11755900  1
  I  I21  1  0.88737950  0.02167450  0.61755900  1
  I  I22  1  0.93175300  0.57456000  0.41898400  1
  I  I23  1  0.93175300  0.42544000  0.91898400  1
  I  I24  1  0.06824700  0.57456000  0.08101600  1
  I  I25  1  0.06824700  0.42544000  0.58101600  1
  I  I26  1  0.11262050  0.97832550  0.38244100  1
  I  I27  1  0.11262050  0.02167450  0.88244100  1
  I  I28  1  0.21726750  0.45790350  0.35677700  1
  I  I29  1  0.21726750  0.54209650  0.85677700  1
  I  I30  1  0.28273250  0.95790350  0.14322300  1
  I  I31  1  0.28273250  0.04209650  0.64322300  1
  I  I32  1  0.38737950  0.47832550  0.11755900  1
  I  I33  1  0.38737950  0.52167450  0.61755900  1
  I  I34  1  0.43175300  0.07456000  0.41898400  1
  I  I35  1  0.43175300  0.92544000  0.91898400  1
