# generated using pymatgen
data_Mn3Cr2Te3O16
_symmetry_space_group_name_H-M   'P 1'
_cell_length_a   11.08078400
_cell_length_b   6.03832600
_cell_length_c   9.15261717
_cell_angle_alpha   90.00000000
_cell_angle_beta   94.42904579
_cell_angle_gamma   90.00000000
_symmetry_Int_Tables_number   1
_chemical_formula_structural   Mn3Cr2Te3O16
_chemical_formula_sum   'Mn6 Cr4 Te6 O32'
_cell_volume   610.56721759
_cell_formula_units_Z   2
loop_
 _symmetry_equiv_pos_site_id
 _symmetry_equiv_pos_as_xyz
  1  'x, y, z'
loop_
 _atom_site_type_symbol
 _atom_site_label
 _atom_site_symmetry_multiplicity
 _atom_site_fract_x
 _atom_site_fract_y
 _atom_site_fract_z
 _atom_site_occupancy
  Mn  Mn0  1  0.83185100  0.00000000  0.21075400  1
  Mn  Mn1  1  0.91229200  0.75016400  0.70558700  1
  Mn  Mn2  1  0.91229200  0.24983600  0.70558700  1
  Mn  Mn3  1  0.33185100  0.50000000  0.21075400  1
  Mn  Mn4  1  0.41229200  0.25016400  0.70558700  1
  Mn  Mn5  1  0.41229200  0.74983600  0.70558700  1
  Cr  Cr6  1  0.67418100  0.00000000  0.50028800  1
  Cr  Cr7  1  0.84793100  0.50000000  0.97353500  1
  Cr  Cr8  1  0.17418100  0.50000000  0.50028800  1
  Cr  Cr9  1  0.34793100  0.00000000  0.97353500  1
  Te  Te10  1  0.58332350  0.24971550  0.21225100  1
  Te  Te11  1  0.58332350  0.75028450  0.21225100  1
  Te  Te12  1  0.66590900  0.50000000  0.71249800  1
  Te  Te13  1  0.08332350  0.74971550  0.21225100  1
  Te  Te14  1  0.08332350  0.25028450  0.21225100  1
  Te  Te15  1  0.16590900  0.00000000  0.71249800  1
  O  O16  1  0.59465850  0.25099650  0.60163100  1
  O  O17  1  0.52492500  0.00000000  0.33990400  1
  O  O18  1  0.64563000  0.00000000  0.09163000  1
  O  O19  1  0.51593700  0.50000000  0.32346600  1
  O  O20  1  0.51043100  0.50000000  0.80609900  1
  O  O21  1  0.59465850  0.74900350  0.60163100  1
  O  O22  1  0.72610300  0.22638300  0.34057000  1
  O  O23  1  0.72610300  0.77361700  0.34057000  1
  O  O24  1  0.65736000  0.50000000  0.10478500  1
  O  O25  1  0.83720700  0.00000000  0.59636700  1
  O  O26  1  0.75374100  0.71074300  0.84810300  1
  O  O27  1  0.75374100  0.28925700  0.84810300  1
  O  O28  1  0.81612700  0.50000000  0.60252100  1
  O  O29  1  0.93030350  0.74711550  0.10258800  1
  O  O30  1  0.96851300  0.50000000  0.83246500  1
  O  O31  1  0.93030350  0.25288450  0.10258800  1
  O  O32  1  0.09465850  0.75099650  0.60163100  1
  O  O33  1  0.02492500  0.50000000  0.33990400  1
  O  O34  1  0.14563000  0.50000000  0.09163000  1
  O  O35  1  0.01593700  0.00000000  0.32346600  1
  O  O36  1  0.01043100  0.00000000  0.80609900  1
  O  O37  1  0.09465850  0.24900350  0.60163100  1
  O  O38  1  0.22610300  0.72638300  0.34057000  1
  O  O39  1  0.22610300  0.27361700  0.34057000  1
  O  O40  1  0.15736000  0.00000000  0.10478500  1
  O  O41  1  0.33720700  0.50000000  0.59636700  1
  O  O42  1  0.25374100  0.21074300  0.84810300  1
  O  O43  1  0.25374100  0.78925700  0.84810300  1
  O  O44  1  0.31612700  0.00000000  0.60252100  1
  O  O45  1  0.43030350  0.24711550  0.10258800  1
  O  O46  1  0.46851300  0.00000000  0.83246500  1
  O  O47  1  0.43030350  0.75288450  0.10258800  1
