# generated using pymatgen
data_Ti3NbCu2(PO4)6
_symmetry_space_group_name_H-M   'P 1'
_cell_length_a   8.72228162
_cell_length_b   8.72228162
_cell_length_c   21.30003355
_cell_angle_alpha   90.00000000
_cell_angle_beta   90.00000000
_cell_angle_gamma   120.00000000
_symmetry_Int_Tables_number   1
_chemical_formula_structural   Ti3NbCu2(PO4)6
_chemical_formula_sum   'Ti9 Nb3 Cu6 P18 O72'
_cell_volume   1403.36657547
_cell_formula_units_Z   3
loop_
 _symmetry_equiv_pos_site_id
 _symmetry_equiv_pos_as_xyz
  1  'x, y, z'
loop_
 _atom_site_type_symbol
 _atom_site_label
 _atom_site_symmetry_multiplicity
 _atom_site_fract_x
 _atom_site_fract_y
 _atom_site_fract_z
 _atom_site_occupancy
  Ti  Ti0  1  0.33333333  0.66666667  0.80908067  1
  Ti  Ti1  1  0.33333333  0.66666667  0.02498967  1
  Ti  Ti2  1  0.33333333  0.66666667  0.30912667  1
  Ti  Ti3  1  0.00000000  0.00000000  0.14241400  1
  Ti  Ti4  1  0.00000000  0.00000000  0.35832300  1
  Ti  Ti5  1  0.00000000  0.00000000  0.64246000  1
  Ti  Ti6  1  0.66666667  0.33333333  0.47574733  1
  Ti  Ti7  1  0.66666667  0.33333333  0.69165633  1
  Ti  Ti8  1  0.66666667  0.33333333  0.97579333  1
  Nb  Nb9  1  0.33333333  0.66666667  0.52545667  1
  Nb  Nb10  1  0.00000000  0.00000000  0.85879000  1
  Nb  Nb11  1  0.66666667  0.33333333  0.19212333  1
  Cu  Cu12  1  0.33333333  0.66666667  0.66901767  1
  Cu  Cu13  1  0.33333333  0.66666667  0.16662067  1
  Cu  Cu14  1  0.00000000  0.00000000  0.00235100  1
  Cu  Cu15  1  0.00000000  0.00000000  0.49995400  1
  Cu  Cu16  1  0.66666667  0.33333333  0.33568433  1
  Cu  Cu17  1  0.66666667  0.33333333  0.83328733  1
  P  P18  1  0.96006333  0.33339767  0.08194767  1
  P  P19  1  0.37333433  0.03993667  0.08194767  1
  P  P20  1  0.00512367  0.71532733  0.25036833  1
  P  P21  1  0.28467267  0.28979633  0.25036833  1
  P  P22  1  0.71020367  0.99487633  0.25036833  1
  P  P23  1  0.66660233  0.62666567  0.08194767  1
  P  P24  1  0.62673000  0.66673100  0.41528100  1
  P  P25  1  0.04000100  0.37327000  0.41528100  1
  P  P26  1  0.67179033  0.04866067  0.58370167  1
  P  P27  1  0.95133933  0.62312967  0.58370167  1
  P  P28  1  0.37687033  0.32820967  0.58370167  1
  P  P29  1  0.33326900  0.95999900  0.41528100  1
  P  P30  1  0.29339667  0.00006433  0.74861433  1
  P  P31  1  0.70666767  0.70660333  0.74861433  1
  P  P32  1  0.33845700  0.38199400  0.91703500  1
  P  P33  1  0.61800600  0.95646300  0.91703500  1
  P  P34  1  0.04353700  0.66154300  0.91703500  1
  P  P35  1  0.99993567  0.29333233  0.74861433  1
  O  O36  1  0.14907433  0.67210767  0.97633167  1
  O  O37  1  0.32789233  0.47696667  0.97633167  1
  O  O38  1  0.97726100  0.16563500  0.08162400  1
  O  O39  1  0.52303333  0.85092567  0.97633167  1
  O  O40  1  0.86178767  0.34008433  0.14203733  1
  O  O41  1  0.14456233  0.50056667  0.08435867  1
  O  O42  1  0.18837400  0.02273900  0.08162400  1
  O  O43  1  0.35600433  0.85543767  0.08435867  1
  O  O44  1  0.00696733  0.81563867  0.19061167  1
  O  O45  1  0.49943333  0.64399567  0.08435867  1
  O  O46  1  0.83639067  0.52681933  0.25215733  1
  O  O47  1  0.18436133  0.19132867  0.19061167  1
  O  O48  1  0.47829667  0.13821233  0.14203733  1
  O  O49  1  0.83436500  0.81162600  0.08162400  1
  O  O50  1  0.16841133  0.69145067  0.24872567  1
  O  O51  1  0.65991567  0.52170333  0.14203733  1
  O  O52  1  0.30854933  0.47696067  0.24872567  1
  O  O53  1  0.47318067  0.30957133  0.25215733  1
  O  O54  1  0.52303933  0.83158867  0.24872567  1
  O  O55  1  0.80867133  0.99303267  0.19061167  1
  O  O56  1  0.14128300  0.48145100  0.35707400  1
  O  O57  1  0.69042867  0.16360933  0.25215733  1
  O  O58  1  0.34016800  0.85871700  0.35707400  1
  O  O59  1  0.51854900  0.65983200  0.35707400  1
  O  O60  1  0.81574100  0.00544100  0.30966500  1
  O  O61  1  0.99455900  0.81030000  0.30966500  1
  O  O62  1  0.64392767  0.49896833  0.41495733  1
  O  O63  1  0.18970000  0.18425900  0.30966500  1
  O  O64  1  0.52845433  0.67341767  0.47537067  1
  O  O65  1  0.81122900  0.83390000  0.41769200  1
  O  O66  1  0.85504067  0.35607233  0.41495733  1
  O  O67  1  0.02267100  0.18877100  0.41769200  1
  O  O68  1  0.67363400  0.14897200  0.52394500  1
  O  O69  1  0.16610000  0.97732900  0.41769200  1
  O  O70  1  0.50305733  0.86015267  0.58549067  1
  O  O71  1  0.85102800  0.52466200  0.52394500  1
  O  O72  1  0.14496333  0.47154567  0.47537067  1
  O  O73  1  0.50103167  0.14495933  0.41495733  1
  O  O74  1  0.83507800  0.02478400  0.58205900  1
  O  O75  1  0.32658233  0.85503667  0.47537067  1
  O  O76  1  0.97521600  0.81029400  0.58205900  1
  O  O77  1  0.13984733  0.64290467  0.58549067  1
  O  O78  1  0.18970600  0.16492200  0.58205900  1
  O  O79  1  0.47533800  0.32636600  0.52394500  1
  O  O80  1  0.80794967  0.81478433  0.69040733  1
  O  O81  1  0.35709533  0.49694267  0.58549067  1
  O  O82  1  0.00683467  0.19205033  0.69040733  1
  O  O83  1  0.18521567  0.99316533  0.69040733  1
  O  O84  1  0.48240767  0.33877433  0.64299833  1
  O  O85  1  0.66122567  0.14363333  0.64299833  1
  O  O86  1  0.31059433  0.83230167  0.74829067  1
  O  O87  1  0.85636667  0.51759233  0.64299833  1
  O  O88  1  0.19512100  0.00675100  0.80870400  1
  O  O89  1  0.47789567  0.16723333  0.75102533  1
  O  O90  1  0.52170733  0.68940567  0.74829067  1
  O  O91  1  0.68933767  0.52210433  0.75102533  1
  O  O92  1  0.34030067  0.48230533  0.85727833  1
  O  O93  1  0.83276667  0.31066233  0.75102533  1
  O  O94  1  0.16972400  0.19348600  0.91882400  1
  O  O95  1  0.51769467  0.85799533  0.85727833  1
  O  O96  1  0.81163000  0.80487900  0.80870400  1
  O  O97  1  0.16769833  0.47829267  0.74829067  1
  O  O98  1  0.50174467  0.35811733  0.91539233  1
  O  O99  1  0.99324900  0.18837000  0.80870400  1
  O  O100  1  0.64188267  0.14362733  0.91539233  1
  O  O101  1  0.80651400  0.97623800  0.91882400  1
  O  O102  1  0.85637267  0.49825533  0.91539233  1
  O  O103  1  0.14200467  0.65969933  0.85727833  1
  O  O104  1  0.47461633  0.14811767  0.02374067  1
  O  O105  1  0.02376200  0.83027600  0.91882400  1
  O  O106  1  0.67350133  0.52538367  0.02374067  1
  O  O107  1  0.85188233  0.32649867  0.02374067  1
