# generated using pymatgen
data_Al12PbO19
_symmetry_space_group_name_H-M   'P 1'
_cell_length_a   5.63028949
_cell_length_b   5.63028949
_cell_length_c   22.24683000
_cell_angle_alpha   90.00000000
_cell_angle_beta   90.00000000
_cell_angle_gamma   120.00000000
_symmetry_Int_Tables_number   1
_chemical_formula_structural   Al12PbO19
_chemical_formula_sum   'Al24 Pb2 O38'
_cell_volume   610.74542019
_cell_formula_units_Z   2
loop_
 _symmetry_equiv_pos_site_id
 _symmetry_equiv_pos_as_xyz
  1  'x, y, z'
loop_
 _atom_site_type_symbol
 _atom_site_label
 _atom_site_symmetry_multiplicity
 _atom_site_fract_x
 _atom_site_fract_y
 _atom_site_fract_z
 _atom_site_occupancy
  Al  Al0  1  0.83096800  0.66193600  0.39206300  1
  Al  Al1  1  0.83242400  0.66484800  0.10874300  1
  Al  Al2  1  0.66666667  0.33333333  0.52844800  1
  Al  Al3  1  0.66666667  0.33333333  0.69029300  1
  Al  Al4  1  0.66666667  0.33333333  0.80980400  1
  Al  Al5  1  0.33515200  0.16757600  0.10874300  1
  Al  Al6  1  0.00000000  0.00000000  0.50029400  1
  Al  Al7  1  0.00000000  0.00000000  0.75877800  1
  Al  Al8  1  0.00000000  0.00000000  0.00029400  1
  Al  Al9  1  0.00000000  0.00000000  0.25877800  1
  Al  Al10  1  0.66666667  0.33333333  0.97191100  1
  Al  Al11  1  0.33806400  0.16903200  0.39206300  1
  Al  Al12  1  0.83242400  0.16757600  0.10874300  1
  Al  Al13  1  0.83096800  0.16903200  0.39206300  1
  Al  Al14  1  0.16757600  0.83242400  0.60874300  1
  Al  Al15  1  0.16903200  0.83096800  0.89206300  1
  Al  Al16  1  0.33333333  0.66666667  0.30980400  1
  Al  Al17  1  0.33333333  0.66666667  0.19029300  1
  Al  Al18  1  0.66193600  0.83096800  0.89206300  1
  Al  Al19  1  0.66484800  0.83242400  0.60874300  1
  Al  Al20  1  0.33333333  0.66666667  0.02844800  1
  Al  Al21  1  0.33333333  0.66666667  0.47191100  1
  Al  Al22  1  0.16757600  0.33515200  0.60874300  1
  Al  Al23  1  0.16903200  0.33806400  0.89206300  1
  Pb  Pb24  1  0.66666667  0.33333333  0.24867800  1
  Pb  Pb25  1  0.33333333  0.66666667  0.74867800  1
  O  O26  1  0.84470300  0.68940600  0.55122200  1
  O  O27  1  0.84552500  0.69105000  0.94797900  1
  O  O28  1  0.50150450  0.49849550  0.35299300  1
  O  O29  1  0.50132300  0.49867700  0.14743400  1
  O  O30  1  0.81838800  0.63677600  0.75081000  1
  O  O31  1  0.30895000  0.15447500  0.94797900  1
  O  O32  1  0.66666667  0.33333333  0.05417300  1
  O  O33  1  0.00000000  0.00000000  0.64703000  1
  O  O34  1  0.00000000  0.00000000  0.85027100  1
  O  O35  1  0.36322400  0.18161200  0.75081000  1
  O  O36  1  0.00000000  0.00000000  0.14703000  1
  O  O37  1  0.00000000  0.00000000  0.35027100  1
  O  O38  1  0.66666667  0.33333333  0.44593800  1
  O  O39  1  0.31059400  0.15529700  0.55122200  1
  O  O40  1  0.99735400  0.49867700  0.14743400  1
  O  O41  1  0.99699100  0.49849550  0.35299300  1
  O  O42  1  0.81838800  0.18161200  0.75081000  1
  O  O43  1  0.15529700  0.84470300  0.05122200  1
  O  O44  1  0.15447500  0.84552500  0.44797900  1
  O  O45  1  0.50132300  0.00264600  0.14743400  1
  O  O46  1  0.50150450  0.00300900  0.35299300  1
  O  O47  1  0.49849550  0.99699100  0.85299300  1
  O  O48  1  0.49867700  0.99735400  0.64743400  1
  O  O49  1  0.84470300  0.15529700  0.55122200  1
  O  O50  1  0.84552500  0.15447500  0.94797900  1
  O  O51  1  0.18161200  0.81838800  0.25081000  1
  O  O52  1  0.00300900  0.50150450  0.85299300  1
  O  O53  1  0.33333333  0.66666667  0.94593800  1
  O  O54  1  0.63677600  0.81838800  0.25081000  1
  O  O55  1  0.33333333  0.66666667  0.55417300  1
  O  O56  1  0.69105000  0.84552500  0.44797900  1
  O  O57  1  0.00264600  0.50132300  0.64743400  1
  O  O58  1  0.68940600  0.84470300  0.05122200  1
  O  O59  1  0.18161200  0.36322400  0.25081000  1
  O  O60  1  0.49867700  0.50132300  0.64743400  1
  O  O61  1  0.49849550  0.50150450  0.85299300  1
  O  O62  1  0.15447500  0.30895000  0.44797900  1
  O  O63  1  0.15529700  0.31059400  0.05122200  1
