# generated using pymatgen
data_Zr2N2O
_symmetry_space_group_name_H-M   'P 1'
_cell_length_a   8.87558500
_cell_length_b   8.87927391
_cell_length_c   8.88080183
_cell_angle_alpha   109.44376418
_cell_angle_beta   109.60124701
_cell_angle_gamma   109.35556799
_symmetry_Int_Tables_number   1
_chemical_formula_structural   Zr2N2O
_chemical_formula_sum   'Zr16 N16 O8'
_cell_volume   538.85670717
_cell_formula_units_Z   8
loop_
 _symmetry_equiv_pos_site_id
 _symmetry_equiv_pos_as_xyz
  1  'x, y, z'
loop_
 _atom_site_type_symbol
 _atom_site_label
 _atom_site_symmetry_multiplicity
 _atom_site_fract_x
 _atom_site_fract_y
 _atom_site_fract_z
 _atom_site_occupancy
  Zr  Zr0  1  0.75459400  0.22278900  0.96682000  1
  Zr  Zr1  1  0.00996400  0.01065300  0.00334500  1
  Zr  Zr2  1  0.71414200  0.46434300  0.75565500  1
  Zr  Zr3  1  0.00603100  0.50904100  0.49750000  1
  Zr  Zr4  1  0.51371600  0.50821200  0.01020600  1
  Zr  Zr5  1  0.78837400  0.03802200  0.24954500  1
  Zr  Zr6  1  0.53795800  0.24783600  0.27874400  1
  Zr  Zr7  1  0.02433500  0.24245700  0.78920500  1
  Zr  Zr8  1  0.24830400  0.28615400  0.53156300  1
  Zr  Zr9  1  0.74510900  0.71509500  0.45861800  1
  Zr  Zr10  1  0.45749900  0.73669800  0.70959300  1
  Zr  Zr11  1  0.96702100  0.75324800  0.22100300  1
  Zr  Zr12  1  0.49957900  0.98742000  0.49052800  1
  Zr  Zr13  1  0.28758200  0.53742600  0.25439400  1
  Zr  Zr14  1  0.20885300  0.95887900  0.74998300  1
  Zr  Zr15  1  0.25897800  0.79437000  0.04134300  1
  N  N16  1  0.77144700  0.23839700  0.72395500  1
  N  N17  1  0.51163400  0.54375600  0.77127900  1
  N  N18  1  0.95639500  0.96781100  0.72907000  1
  N  N19  1  0.76105700  0.27155000  0.22872500  1
  N  N20  1  0.04628600  0.03535900  0.27273800  1
  N  N21  1  0.54539900  0.77539000  0.51582400  1
  N  N22  1  0.73881800  0.46698700  0.01094300  1
  N  N23  1  0.23726000  0.72550700  0.77228100  1
  N  N24  1  0.48945900  0.45424900  0.22613300  1
  N  N25  1  0.26996100  0.04246400  0.03557600  1
  N  N26  1  0.22296600  0.48432500  0.45253400  1
  N  N27  1  0.72282700  0.77293000  0.23628000  1
  N  N28  1  0.53487800  0.98844700  0.26374100  1
  N  N29  1  0.03177000  0.27079300  0.04477900  1
  N  N30  1  0.00903900  0.73613000  0.46600300  1
  N  N31  1  0.22723500  0.76101100  0.26877000  1
  O  O32  1  0.99240700  0.26120900  0.53608400  1
  O  O33  1  0.96036600  0.72468400  0.94806000  1
  O  O34  1  0.46579700  0.01596300  0.74205100  1
  O  O35  1  0.77260600  0.50910500  0.54832800  1
  O  O36  1  0.27040900  0.22635300  0.75768000  1
  O  O37  1  0.72459800  0.95446400  0.96550600  1
  O  O38  1  0.45673500  0.23105900  0.49151300  1
  O  O39  1  0.25861700  0.52941200  0.98410300  1
