# generated using pymatgen
data_LiMn(PO3)4
_symmetry_space_group_name_H-M   'P 1'
_cell_length_a   15.46305400
_cell_length_b   7.96272200
_cell_length_c   9.16750231
_cell_angle_alpha   90.00000000
_cell_angle_beta   121.64468378
_cell_angle_gamma   90.00000000
_symmetry_Int_Tables_number   1
_chemical_formula_structural   LiMn(PO3)4
_chemical_formula_sum   'Li4 Mn4 P16 O48'
_cell_volume   960.94755301
_cell_formula_units_Z   4
loop_
 _symmetry_equiv_pos_site_id
 _symmetry_equiv_pos_as_xyz
  1  'x, y, z'
loop_
 _atom_site_type_symbol
 _atom_site_label
 _atom_site_symmetry_multiplicity
 _atom_site_fract_x
 _atom_site_fract_y
 _atom_site_fract_z
 _atom_site_occupancy
  Li  Li0  1  0.00000000  0.00000000  0.50000000  1
  Li  Li1  1  0.00000000  0.00000000  0.00000000  1
  Li  Li2  1  0.50000000  0.50000000  0.50000000  1
  Li  Li3  1  0.50000000  0.50000000  0.00000000  1
  Mn  Mn4  1  0.00000000  0.67609600  0.75000000  1
  Mn  Mn5  1  0.00000000  0.32390400  0.25000000  1
  Mn  Mn6  1  0.50000000  0.17609600  0.75000000  1
  Mn  Mn7  1  0.50000000  0.82390400  0.25000000  1
  P  P8  1  0.13589200  0.56256800  0.13802800  1
  P  P9  1  0.14756850  0.19832350  0.10391400  1
  P  P10  1  0.35243150  0.69832350  0.39608600  1
  P  P11  1  0.36410800  0.06256800  0.36197200  1
  P  P12  1  0.13589200  0.43743200  0.63802800  1
  P  P13  1  0.14756850  0.80167650  0.60391400  1
  P  P14  1  0.35243150  0.30167650  0.89608600  1
  P  P15  1  0.36410800  0.93743200  0.86197200  1
  P  P16  1  0.63589200  0.06256800  0.13802800  1
  P  P17  1  0.64756850  0.69832350  0.10391400  1
  P  P18  1  0.85243150  0.19832350  0.39608600  1
  P  P19  1  0.86410800  0.56256800  0.36197200  1
  P  P20  1  0.63589200  0.93743200  0.63802800  1
  P  P21  1  0.64756850  0.30167650  0.60391400  1
  P  P22  1  0.85243150  0.80167650  0.89608600  1
  P  P23  1  0.86410800  0.43743200  0.86197200  1
  O  O24  1  0.10118250  0.17900550  0.21427800  1
  O  O25  1  0.10205600  0.69051400  0.99373700  1
  O  O26  1  0.23718150  0.63189050  0.29724700  1
  O  O27  1  0.16998350  0.39411950  0.08605300  1
  O  O28  1  0.43598650  0.97388950  0.80421900  1
  O  O29  1  0.33001650  0.89411950  0.41394700  1
  O  O30  1  0.26281850  0.13189050  0.20275300  1
  O  O31  1  0.41024850  0.61159750  0.56358000  1
  O  O32  1  0.39794400  0.19051400  0.50626300  1
  O  O33  1  0.08975150  0.11159750  0.93642000  1
  O  O34  1  0.39881750  0.67900550  0.28572200  1
  O  O35  1  0.06401350  0.47388950  0.69578100  1
  O  O36  1  0.43598650  0.02611050  0.30421900  1
  O  O37  1  0.10118250  0.82099450  0.71427800  1
  O  O38  1  0.41024850  0.38840250  0.06358000  1
  O  O39  1  0.10205600  0.30948600  0.49373700  1
  O  O40  1  0.08975150  0.88840250  0.43642000  1
  O  O41  1  0.23718150  0.36810950  0.79724700  1
  O  O42  1  0.16998350  0.60588050  0.58605300  1
  O  O43  1  0.06401350  0.52611050  0.19578100  1
  O  O44  1  0.33001650  0.10588050  0.91394700  1
  O  O45  1  0.26281850  0.86810950  0.70275300  1
  O  O46  1  0.39794400  0.80948600  0.00626300  1
  O  O47  1  0.39881750  0.32099450  0.78572200  1
  O  O48  1  0.60118250  0.67900550  0.21427800  1
  O  O49  1  0.60205600  0.19051400  0.99373700  1
  O  O50  1  0.73718150  0.13189050  0.29724700  1
  O  O51  1  0.66998350  0.89411950  0.08605300  1
  O  O52  1  0.93598650  0.47388950  0.80421900  1
  O  O53  1  0.83001650  0.39411950  0.41394700  1
  O  O54  1  0.76281850  0.63189050  0.20275300  1
  O  O55  1  0.91024850  0.11159750  0.56358000  1
  O  O56  1  0.89794400  0.69051400  0.50626300  1
  O  O57  1  0.58975150  0.61159750  0.93642000  1
  O  O58  1  0.89881750  0.17900550  0.28572200  1
  O  O59  1  0.56401350  0.97388950  0.69578100  1
  O  O60  1  0.93598650  0.52611050  0.30421900  1
  O  O61  1  0.60118250  0.32099450  0.71427800  1
  O  O62  1  0.91024850  0.88840250  0.06358000  1
  O  O63  1  0.60205600  0.80948600  0.49373700  1
  O  O64  1  0.58975150  0.38840250  0.43642000  1
  O  O65  1  0.73718150  0.86810950  0.79724700  1
  O  O66  1  0.66998350  0.10588050  0.58605300  1
  O  O67  1  0.56401350  0.02611050  0.19578100  1
  O  O68  1  0.83001650  0.60588050  0.91394700  1
  O  O69  1  0.76281850  0.36810950  0.70275300  1
  O  O70  1  0.89794400  0.30948600  0.00626300  1
  O  O71  1  0.89881750  0.82099450  0.78572200  1
