# generated using pymatgen
data_CaLaI5
_symmetry_space_group_name_H-M   'P 1'
_cell_length_a   4.48141000
_cell_length_b   15.43916400
_cell_length_c   19.19137200
_cell_angle_alpha   90.00000000
_cell_angle_beta   90.00000000
_cell_angle_gamma   90.00000000
_symmetry_Int_Tables_number   1
_chemical_formula_structural   CaLaI5
_chemical_formula_sum   'Ca4 La4 I20'
_cell_volume   1327.83613505
_cell_formula_units_Z   4
loop_
 _symmetry_equiv_pos_site_id
 _symmetry_equiv_pos_as_xyz
  1  'x, y, z'
loop_
 _atom_site_type_symbol
 _atom_site_label
 _atom_site_symmetry_multiplicity
 _atom_site_fract_x
 _atom_site_fract_y
 _atom_site_fract_z
 _atom_site_occupancy
  Ca  Ca0  1  0.00000000  0.48999700  0.75000000  1
  Ca  Ca1  1  0.50000000  0.01000300  0.25000000  1
  Ca  Ca2  1  0.50000000  0.98999700  0.75000000  1
  Ca  Ca3  1  0.00000000  0.51000300  0.25000000  1
  La  La4  1  0.00000000  0.00000000  0.50000000  1
  La  La5  1  0.00000000  0.00000000  0.00000000  1
  La  La6  1  0.50000000  0.50000000  0.50000000  1
  La  La7  1  0.50000000  0.50000000  0.00000000  1
  I  I8  1  0.00000000  0.09486200  0.64808000  1
  I  I9  1  0.00000000  0.14723600  0.25000000  1
  I  I10  1  0.00000000  0.09486200  0.85192000  1
  I  I11  1  0.00000000  0.37265300  0.55695600  1
  I  I12  1  0.00000000  0.37265300  0.94304400  1
  I  I13  1  0.50000000  0.12734700  0.05695600  1
  I  I14  1  0.50000000  0.12734700  0.44304400  1
  I  I15  1  0.50000000  0.35276400  0.75000000  1
  I  I16  1  0.50000000  0.40513800  0.14808000  1
  I  I17  1  0.50000000  0.40513800  0.35192000  1
  I  I18  1  0.50000000  0.59486200  0.64808000  1
  I  I19  1  0.50000000  0.64723600  0.25000000  1
  I  I20  1  0.50000000  0.59486200  0.85192000  1
  I  I21  1  0.50000000  0.87265300  0.55695600  1
  I  I22  1  0.50000000  0.87265300  0.94304400  1
  I  I23  1  0.00000000  0.62734700  0.05695600  1
  I  I24  1  0.00000000  0.62734700  0.44304400  1
  I  I25  1  0.00000000  0.85276400  0.75000000  1
  I  I26  1  0.00000000  0.90513800  0.14808000  1
  I  I27  1  0.00000000  0.90513800  0.35192000  1
