# generated using pymatgen
data_Li2Mn3F8
_symmetry_space_group_name_H-M   'P 1'
_cell_length_a   6.32637805
_cell_length_b   6.32637805
_cell_length_c   15.30320491
_cell_angle_alpha   90.00000000
_cell_angle_beta   90.00000000
_cell_angle_gamma   120.00000000
_symmetry_Int_Tables_number   1
_chemical_formula_structural   Li2Mn3F8
_chemical_formula_sum   'Li6 Mn9 F24'
_cell_volume   530.42417125
_cell_formula_units_Z   3
loop_
 _symmetry_equiv_pos_site_id
 _symmetry_equiv_pos_as_xyz
  1  'x, y, z'
loop_
 _atom_site_type_symbol
 _atom_site_label
 _atom_site_symmetry_multiplicity
 _atom_site_fract_x
 _atom_site_fract_y
 _atom_site_fract_z
 _atom_site_occupancy
  Li  Li0  1  0.33333333  0.66666667  0.79545867  1
  Li  Li1  1  0.33333333  0.66666667  0.53787467  1
  Li  Li2  1  0.00000000  0.00000000  0.12879200  1
  Li  Li3  1  0.00000000  0.00000000  0.87120800  1
  Li  Li4  1  0.66666667  0.33333333  0.46212533  1
  Li  Li5  1  0.66666667  0.33333333  0.20454133  1
  Mn  Mn6  1  0.50000000  0.50000000  0.00000000  1
  Mn  Mn7  1  0.16666667  0.33333333  0.33333333  1
  Mn  Mn8  1  0.00000000  0.50000000  0.00000000  1
  Mn  Mn9  1  0.16666667  0.83333333  0.33333333  1
  Mn  Mn10  1  0.83333333  0.66666667  0.66666667  1
  Mn  Mn11  1  0.66666667  0.83333333  0.33333333  1
  Mn  Mn12  1  0.83333333  0.16666667  0.66666667  1
  Mn  Mn13  1  0.50000000  0.00000000  0.00000000  1
  Mn  Mn14  1  0.33333333  0.16666667  0.66666667  1
  F  F15  1  0.65582667  0.82791333  0.92310733  1
  F  F16  1  0.17208667  0.34417333  0.92310733  1
  F  F17  1  0.17208667  0.82791333  0.92310733  1
  F  F18  1  0.33333333  0.66666667  0.07024767  1
  F  F19  1  0.33333333  0.66666667  0.26308567  1
  F  F20  1  0.49458000  0.50542000  0.41022600  1
  F  F21  1  0.49458000  0.98916000  0.41022600  1
  F  F22  1  0.01084000  0.50542000  0.41022600  1
  F  F23  1  0.32249333  0.16124667  0.25644067  1
  F  F24  1  0.83875333  0.67750667  0.25644067  1
  F  F25  1  0.83875333  0.16124667  0.25644067  1
  F  F26  1  0.00000000  0.00000000  0.40358100  1
  F  F27  1  0.00000000  0.00000000  0.59641900  1
  F  F28  1  0.16124667  0.83875333  0.74355933  1
  F  F29  1  0.16124667  0.32249333  0.74355933  1
  F  F30  1  0.67750667  0.83875333  0.74355933  1
  F  F31  1  0.98916000  0.49458000  0.58977400  1
  F  F32  1  0.50542000  0.01084000  0.58977400  1
  F  F33  1  0.50542000  0.49458000  0.58977400  1
  F  F34  1  0.66666667  0.33333333  0.73691433  1
  F  F35  1  0.66666667  0.33333333  0.92975233  1
  F  F36  1  0.82791333  0.17208667  0.07689267  1
  F  F37  1  0.82791333  0.65582667  0.07689267  1
  F  F38  1  0.34417333  0.17208667  0.07689267  1
