# generated using pymatgen
data_Li3Fe(PO4)2
_symmetry_space_group_name_H-M   'P 1'
_cell_length_a   9.14327636
_cell_length_b   4.70427601
_cell_length_c   13.51682624
_cell_angle_alpha   90.00000000
_cell_angle_beta   98.81100391
_cell_angle_gamma   90.00000000
_symmetry_Int_Tables_number   1
_chemical_formula_structural   Li3Fe(PO4)2
_chemical_formula_sum   'Li12 Fe4 P8 O32'
_cell_volume   574.53140632
_cell_formula_units_Z   4
loop_
 _symmetry_equiv_pos_site_id
 _symmetry_equiv_pos_as_xyz
  1  'x, y, z'
loop_
 _atom_site_type_symbol
 _atom_site_label
 _atom_site_symmetry_multiplicity
 _atom_site_fract_x
 _atom_site_fract_y
 _atom_site_fract_z
 _atom_site_occupancy
  Li  Li0  1  0.50000000  0.54865375  0.25000000  1
  Li  Li1  1  0.50000000  0.45134625  0.75000000  1
  Li  Li2  1  0.83185875  0.53328175  0.34259600  1
  Li  Li3  1  0.83185875  0.46671825  0.84259600  1
  Li  Li4  1  0.66814125  0.03328175  0.15740400  1
  Li  Li5  1  0.66814125  0.96671825  0.65740400  1
  Li  Li6  1  0.00000000  0.04865375  0.25000000  1
  Li  Li7  1  0.00000000  0.95134625  0.75000000  1
  Li  Li8  1  0.33185875  0.03328175  0.34259600  1
  Li  Li9  1  0.33185875  0.96671825  0.84259600  1
  Li  Li10  1  0.16814125  0.53328175  0.15740400  1
  Li  Li11  1  0.16814125  0.46671825  0.65740400  1
  Fe  Fe12  1  0.00000000  0.00000000  0.50000000  1
  Fe  Fe13  1  0.50000000  0.50000000  0.00000000  1
  Fe  Fe14  1  0.50000000  0.50000000  0.50000000  1
  Fe  Fe15  1  0.00000000  0.00000000  0.00000000  1
  P  P16  1  0.84247025  0.51908225  0.11486500  1
  P  P17  1  0.84247025  0.48091775  0.61486500  1
  P  P18  1  0.65752975  0.01908225  0.38513500  1
  P  P19  1  0.65752975  0.98091775  0.88513500  1
  P  P20  1  0.34247025  0.01908225  0.11486500  1
  P  P21  1  0.34247025  0.98091775  0.61486500  1
  P  P22  1  0.15752975  0.51908225  0.38513500  1
  P  P23  1  0.15752975  0.48091775  0.88513500  1
  O  O24  1  0.95862200  0.76843500  0.13283350  1
  O  O25  1  0.95862200  0.23156500  0.63283350  1
  O  O26  1  0.54137800  0.26843500  0.36716650  1
  O  O27  1  0.54137800  0.73156500  0.86716650  1
  O  O28  1  0.88859125  0.33057025  0.03169300  1
  O  O29  1  0.88859125  0.66942975  0.53169300  1
  O  O30  1  0.61140875  0.83057025  0.46830700  1
  O  O31  1  0.61140875  0.16942975  0.96830700  1
  O  O32  1  0.83848300  0.33814600  0.20977250  1
  O  O33  1  0.83848300  0.66185400  0.70977250  1
  O  O34  1  0.66151700  0.83814600  0.29022750  1
  O  O35  1  0.66151700  0.16185400  0.79022750  1
  O  O36  1  0.81340700  0.15450200  0.41540450  1
  O  O37  1  0.81340700  0.84549800  0.91540450  1
  O  O38  1  0.68659300  0.65450200  0.08459550  1
  O  O39  1  0.68659300  0.34549800  0.58459550  1
  O  O40  1  0.45862200  0.26843500  0.13283350  1
  O  O41  1  0.45862200  0.73156500  0.63283350  1
  O  O42  1  0.04137800  0.76843500  0.36716650  1
  O  O43  1  0.04137800  0.23156500  0.86716650  1
  O  O44  1  0.38859125  0.83057025  0.03169300  1
  O  O45  1  0.38859125  0.16942975  0.53169300  1
  O  O46  1  0.11140875  0.33057025  0.46830700  1
  O  O47  1  0.11140875  0.66942975  0.96830700  1
  O  O48  1  0.33848300  0.83814600  0.20977250  1
  O  O49  1  0.33848300  0.16185400  0.70977250  1
  O  O50  1  0.16151700  0.33814600  0.29022750  1
  O  O51  1  0.16151700  0.66185400  0.79022750  1
  O  O52  1  0.31340700  0.65450200  0.41540450  1
  O  O53  1  0.31340700  0.34549800  0.91540450  1
  O  O54  1  0.18659300  0.15450200  0.08459550  1
  O  O55  1  0.18659300  0.84549800  0.58459550  1
