# generated using pymatgen
data_Dy2Ge2O7
_symmetry_space_group_name_H-M   'P 1'
_cell_length_a   5.29134000
_cell_length_b   8.31430100
_cell_length_c   13.95156000
_cell_angle_alpha   90.00000000
_cell_angle_beta   90.00000000
_cell_angle_gamma   90.00000000
_symmetry_Int_Tables_number   1
_chemical_formula_structural   Dy2Ge2O7
_chemical_formula_sum   'Dy8 Ge8 O28'
_cell_volume   613.78204899
_cell_formula_units_Z   4
loop_
 _symmetry_equiv_pos_site_id
 _symmetry_equiv_pos_as_xyz
  1  'x, y, z'
loop_
 _atom_site_type_symbol
 _atom_site_label
 _atom_site_symmetry_multiplicity
 _atom_site_fract_x
 _atom_site_fract_y
 _atom_site_fract_z
 _atom_site_occupancy
  Dy  Dy0  1  0.83690600  0.48543200  0.37539200  1
  Dy  Dy1  1  0.83690600  0.01456800  0.37539200  1
  Dy  Dy2  1  0.33690600  0.51456800  0.12460800  1
  Dy  Dy3  1  0.33690600  0.98543200  0.12460800  1
  Dy  Dy4  1  0.66309400  0.48543200  0.87539200  1
  Dy  Dy5  1  0.66309400  0.01456800  0.87539200  1
  Dy  Dy6  1  0.16309400  0.51456800  0.62460800  1
  Dy  Dy7  1  0.16309400  0.98543200  0.62460800  1
  Ge  Ge8  1  0.36940700  0.75000000  0.45070000  1
  Ge  Ge9  1  0.36769800  0.25000000  0.31345600  1
  Ge  Ge10  1  0.86769800  0.75000000  0.18654400  1
  Ge  Ge11  1  0.86940700  0.25000000  0.04930000  1
  Ge  Ge12  1  0.13059300  0.75000000  0.95070000  1
  Ge  Ge13  1  0.13230200  0.25000000  0.81345600  1
  Ge  Ge14  1  0.63230200  0.75000000  0.68654400  1
  Ge  Ge15  1  0.63059300  0.25000000  0.54930000  1
  O  O16  1  0.19440200  0.92832600  0.45010700  1
  O  O17  1  0.19440200  0.57167400  0.45010700  1
  O  O18  1  0.57824300  0.25000000  0.41742100  1
  O  O19  1  0.66443600  0.75000000  0.39240800  1
  O  O20  1  0.04880200  0.25000000  0.34483200  1
  O  O21  1  0.49478600  0.42785200  0.26369500  1
  O  O22  1  0.49478600  0.07214800  0.26369500  1
  O  O23  1  0.99478600  0.57214800  0.23630500  1
  O  O24  1  0.99478600  0.92785200  0.23630500  1
  O  O25  1  0.54880200  0.75000000  0.15516800  1
  O  O26  1  0.16443600  0.25000000  0.10759200  1
  O  O27  1  0.07824300  0.75000000  0.08257900  1
  O  O28  1  0.69440200  0.07167400  0.04989300  1
  O  O29  1  0.69440200  0.42832600  0.04989300  1
  O  O30  1  0.30559800  0.92832600  0.95010700  1
  O  O31  1  0.30559800  0.57167400  0.95010700  1
  O  O32  1  0.92175700  0.25000000  0.91742100  1
  O  O33  1  0.83556400  0.75000000  0.89240800  1
  O  O34  1  0.45119800  0.25000000  0.84483200  1
  O  O35  1  0.00521400  0.42785200  0.76369500  1
  O  O36  1  0.00521400  0.07214800  0.76369500  1
  O  O37  1  0.50521400  0.57214800  0.73630500  1
  O  O38  1  0.50521400  0.92785200  0.73630500  1
  O  O39  1  0.95119800  0.75000000  0.65516800  1
  O  O40  1  0.33556400  0.25000000  0.60759200  1
  O  O41  1  0.42175700  0.75000000  0.58257900  1
  O  O42  1  0.80559800  0.07167400  0.54989300  1
  O  O43  1  0.80559800  0.42832600  0.54989300  1
