# generated using pymatgen
data_Sm2V2O7
_symmetry_space_group_name_H-M   'P 1'
_cell_length_a   6.93485300
_cell_length_b   7.01158189
_cell_length_c   12.61928770
_cell_angle_alpha   99.70061124
_cell_angle_beta   100.55612106
_cell_angle_gamma   92.11618773
_symmetry_Int_Tables_number   1
_chemical_formula_structural   Sm2V2O7
_chemical_formula_sum   'Sm8 V8 O28'
_cell_volume   593.13722498
_cell_formula_units_Z   4
loop_
 _symmetry_equiv_pos_site_id
 _symmetry_equiv_pos_as_xyz
  1  'x, y, z'
loop_
 _atom_site_type_symbol
 _atom_site_label
 _atom_site_symmetry_multiplicity
 _atom_site_fract_x
 _atom_site_fract_y
 _atom_site_fract_z
 _atom_site_occupancy
  Sm  Sm0  1  0.17353700  0.97438800  0.13942800  1
  Sm  Sm1  1  0.78066400  0.71701200  0.36102900  1
  Sm  Sm2  1  0.26050700  0.71900500  0.87298600  1
  Sm  Sm3  1  0.66434100  0.61724300  0.63137300  1
  Sm  Sm4  1  0.33565900  0.38275700  0.36862700  1
  Sm  Sm5  1  0.73949300  0.28099500  0.12701400  1
  Sm  Sm6  1  0.21933600  0.28298800  0.63897100  1
  Sm  Sm7  1  0.82646300  0.02561200  0.86057200  1
  V  V8  1  0.68659700  0.82141800  0.10442500  1
  V  V9  1  0.31828900  0.83420400  0.39457400  1
  V  V10  1  0.15220700  0.80689400  0.61921700  1
  V  V11  1  0.73555800  0.50996900  0.87804200  1
  V  V12  1  0.26444200  0.49003100  0.12195800  1
  V  V13  1  0.84779300  0.19310600  0.38078300  1
  V  V14  1  0.68171100  0.16579600  0.60542600  1
  V  V15  1  0.31340300  0.17858200  0.89557500  1
  O  O16  1  0.50443700  0.98891200  0.12229200  1
  O  O17  1  0.67700600  0.96347200  0.67470200  1
  O  O18  1  0.15180700  0.01990000  0.95325500  1
  O  O19  1  0.25612100  0.96277200  0.53589600  1
  O  O20  1  0.13631700  0.99523100  0.73832000  1
  O  O21  1  0.77993000  0.62336600  0.16844100  1
  O  O22  1  0.11472800  0.65843600  0.36676600  1
  O  O23  1  0.51272700  0.67872700  0.45833700  1
  O  O24  1  0.17068100  0.66455700  0.03919700  1
  O  O25  1  0.91643500  0.70208300  0.54758500  1
  O  O26  1  0.86908400  0.68690400  0.81881200  1
  O  O27  1  0.57915900  0.66196800  0.95728900  1
  O  O28  1  0.31030900  0.63577500  0.68236600  1
  O  O29  1  0.40244600  0.64213500  0.24712300  1
  O  O30  1  0.59755400  0.35786500  0.75287700  1
  O  O31  1  0.68969100  0.36422500  0.31763400  1
  O  O32  1  0.42084100  0.33803200  0.04271100  1
  O  O33  1  0.13091600  0.31309600  0.18118800  1
  O  O34  1  0.08356500  0.29791700  0.45241500  1
  O  O35  1  0.82931900  0.33544300  0.96080300  1
  O  O36  1  0.48727300  0.32127300  0.54166300  1
  O  O37  1  0.88527200  0.34156400  0.63323400  1
  O  O38  1  0.22007000  0.37663400  0.83155900  1
  O  O39  1  0.86368300  0.00476900  0.26168000  1
  O  O40  1  0.74387900  0.03722800  0.46410400  1
  O  O41  1  0.84819300  0.98010000  0.04674500  1
  O  O42  1  0.32299400  0.03652800  0.32529800  1
  O  O43  1  0.49556300  0.01108800  0.87770800  1
