# generated using pymatgen
data_Ba2Zr7O16
_symmetry_space_group_name_H-M   'P 1'
_cell_length_a   6.56559391
_cell_length_b   6.56559391
_cell_length_c   27.49731604
_cell_angle_alpha   90.00000000
_cell_angle_beta   90.00000000
_cell_angle_gamma   120.00000000
_symmetry_Int_Tables_number   1
_chemical_formula_structural   Ba2Zr7O16
_chemical_formula_sum   'Ba6 Zr21 O48'
_cell_volume   1026.52367876
_cell_formula_units_Z   3
loop_
 _symmetry_equiv_pos_site_id
 _symmetry_equiv_pos_as_xyz
  1  'x, y, z'
loop_
 _atom_site_type_symbol
 _atom_site_label
 _atom_site_symmetry_multiplicity
 _atom_site_fract_x
 _atom_site_fract_y
 _atom_site_fract_z
 _atom_site_occupancy
  Ba  Ba0  1  0.33333333  0.66666667  0.00021067  1
  Ba  Ba1  1  0.33333333  0.66666667  0.33312267  1
  Ba  Ba2  1  0.00000000  0.00000000  0.33354400  1
  Ba  Ba3  1  0.00000000  0.00000000  0.66645600  1
  Ba  Ba4  1  0.66666667  0.33333333  0.66687733  1
  Ba  Ba5  1  0.66666667  0.33333333  0.99978933  1
  Zr  Zr6  1  0.00000000  0.00000000  0.00000000  1
  Zr  Zr7  1  0.66849800  0.70352000  0.21685800  1
  Zr  Zr8  1  0.37018667  0.36835533  0.11647533  1
  Zr  Zr9  1  0.63164467  0.00183133  0.11647533  1
  Zr  Zr10  1  0.03502200  0.33150200  0.21685800  1
  Zr  Zr11  1  0.29648000  0.96497800  0.21685800  1
  Zr  Zr12  1  0.99816867  0.62981333  0.11647533  1
  Zr  Zr13  1  0.66666667  0.33333333  0.33333333  1
  Zr  Zr14  1  0.33516467  0.03685333  0.55019133  1
  Zr  Zr15  1  0.03685333  0.70168867  0.44980867  1
  Zr  Zr16  1  0.29831133  0.33516467  0.44980867  1
  Zr  Zr17  1  0.70168867  0.66483533  0.55019133  1
  Zr  Zr18  1  0.96314667  0.29831133  0.55019133  1
  Zr  Zr19  1  0.66483533  0.96314667  0.44980867  1
  Zr  Zr20  1  0.33333333  0.66666667  0.66666667  1
  Zr  Zr21  1  0.00183133  0.37018667  0.88352467  1
  Zr  Zr22  1  0.70352000  0.03502200  0.78314200  1
  Zr  Zr23  1  0.96497800  0.66849800  0.78314200  1
  Zr  Zr24  1  0.36835533  0.99816867  0.88352467  1
  Zr  Zr25  1  0.62981333  0.63164467  0.88352467  1
  Zr  Zr26  1  0.33150200  0.29648000  0.78314200  1
  O  O27  1  0.00000000  0.00000000  0.23394300  1
  O  O28  1  0.67313067  0.60329433  0.28838233  1
  O  O29  1  0.70939833  0.72192767  0.13730167  1
  O  O30  1  0.38859433  0.34586267  0.19603167  1
  O  O31  1  0.26996100  0.26349700  0.04495100  1
  O  O32  1  0.73650300  0.00646400  0.04495100  1
  O  O33  1  0.65413733  0.04273167  0.19603167  1
  O  O34  1  0.33333333  0.66666667  0.09822967  1
  O  O35  1  0.33333333  0.66666667  0.23510367  1
  O  O36  1  0.01252933  0.29060167  0.13730167  1
  O  O37  1  0.93016367  0.32686933  0.28838233  1
  O  O38  1  0.39670567  0.06983633  0.28838233  1
  O  O39  1  0.27807233  0.98747067  0.13730167  1
  O  O40  1  0.95726833  0.61140567  0.19603167  1
  O  O41  1  0.99353600  0.73003900  0.04495100  1
  O  O42  1  0.66666667  0.33333333  0.09939033  1
  O  O43  1  0.66666667  0.33333333  0.56727633  1
  O  O44  1  0.33979733  0.93662767  0.62171567  1
  O  O45  1  0.37606500  0.05526100  0.47063500  1
  O  O46  1  0.05526100  0.67919600  0.52936500  1
  O  O47  1  0.93662767  0.59683033  0.37828433  1
  O  O48  1  0.40316967  0.33979733  0.37828433  1
  O  O49  1  0.32080400  0.37606500  0.52936500  1
  O  O50  1  0.00000000  0.00000000  0.43156300  1
  O  O51  1  0.00000000  0.00000000  0.56843700  1
  O  O52  1  0.67919600  0.62393500  0.47063500  1
  O  O53  1  0.59683033  0.66020267  0.62171567  1
  O  O54  1  0.06337233  0.40316967  0.62171567  1
  O  O55  1  0.94473900  0.32080400  0.47063500  1
  O  O56  1  0.62393500  0.94473900  0.52936500  1
  O  O57  1  0.66020267  0.06337233  0.37828433  1
  O  O58  1  0.33333333  0.66666667  0.43272367  1
  O  O59  1  0.33333333  0.66666667  0.90060967  1
  O  O60  1  0.00646400  0.26996100  0.95504900  1
  O  O61  1  0.04273167  0.38859433  0.80396833  1
  O  O62  1  0.72192767  0.01252933  0.86269833  1
  O  O63  1  0.60329433  0.93016367  0.71161767  1
  O  O64  1  0.06983633  0.67313067  0.71161767  1
  O  O65  1  0.98747067  0.70939833  0.86269833  1
  O  O66  1  0.66666667  0.33333333  0.76489633  1
  O  O67  1  0.66666667  0.33333333  0.90177033  1
  O  O68  1  0.34586267  0.95726833  0.80396833  1
  O  O69  1  0.26349700  0.99353600  0.95504900  1
  O  O70  1  0.73003900  0.73650300  0.95504900  1
  O  O71  1  0.61140567  0.65413733  0.80396833  1
  O  O72  1  0.29060167  0.27807233  0.86269833  1
  O  O73  1  0.32686933  0.39670567  0.71161767  1
  O  O74  1  0.00000000  0.00000000  0.76605700  1
