# generated using pymatgen
data_CdSeO4
_symmetry_space_group_name_H-M   'P 1'
_cell_length_a   6.71796100
_cell_length_b   7.18139100
_cell_length_c   8.32914252
_cell_angle_alpha   90.00000000
_cell_angle_beta   127.06946335
_cell_angle_gamma   90.00000000
_symmetry_Int_Tables_number   1
_chemical_formula_structural   CdSeO4
_chemical_formula_sum   'Cd4 Se4 O16'
_cell_volume   320.62523230
_cell_formula_units_Z   4
loop_
 _symmetry_equiv_pos_site_id
 _symmetry_equiv_pos_as_xyz
  1  'x, y, z'
loop_
 _atom_site_type_symbol
 _atom_site_label
 _atom_site_symmetry_multiplicity
 _atom_site_fract_x
 _atom_site_fract_y
 _atom_site_fract_z
 _atom_site_occupancy
  Cd  Cd0  1  0.80962500  0.14444400  0.22029000  1
  Cd  Cd1  1  0.19037500  0.64444400  0.27971000  1
  Cd  Cd2  1  0.80962500  0.35555600  0.72029000  1
  Cd  Cd3  1  0.19037500  0.85555600  0.77971000  1
  Se  Se4  1  0.30990700  0.16401800  0.19623300  1
  Se  Se5  1  0.69009300  0.66401800  0.30376700  1
  Se  Se6  1  0.30990700  0.33598200  0.69623300  1
  Se  Se7  1  0.69009300  0.83598200  0.80376700  1
  O  O8  1  0.34761800  0.10160100  0.02183000  1
  O  O9  1  0.11848600  0.34986300  0.10365100  1
  O  O10  1  0.39222800  0.70850500  0.10899400  1
  O  O11  1  0.83185000  0.50444900  0.25533300  1
  O  O12  1  0.60777200  0.20850500  0.39100600  1
  O  O13  1  0.16815000  0.00444900  0.24466700  1
  O  O14  1  0.88151400  0.84986300  0.39634900  1
  O  O15  1  0.65238200  0.60160100  0.47817000  1
  O  O16  1  0.34761800  0.39839900  0.52183000  1
  O  O17  1  0.11848600  0.15013700  0.60365100  1
  O  O18  1  0.83185000  0.99555100  0.75533300  1
  O  O19  1  0.39222800  0.79149500  0.60899400  1
  O  O20  1  0.16815000  0.49555100  0.74466700  1
  O  O21  1  0.60777200  0.29149500  0.89100600  1
  O  O22  1  0.88151400  0.65013700  0.89634900  1
  O  O23  1  0.65238200  0.89839900  0.97817000  1
