# generated using pymatgen
data_Li3Ti2(PO4)3
_symmetry_space_group_name_H-M   'P 1'
_cell_length_a   14.43819400
_cell_length_b   13.38995800
_cell_length_c   9.87484140
_cell_angle_alpha   90.00000000
_cell_angle_beta   95.89263286
_cell_angle_gamma   90.00000000
_symmetry_Int_Tables_number   1
_chemical_formula_structural   Li3Ti2(PO4)3
_chemical_formula_sum   'Li24 Ti16 P24 O96'
_cell_volume   1898.98411583
_cell_formula_units_Z   8
loop_
 _symmetry_equiv_pos_site_id
 _symmetry_equiv_pos_as_xyz
  1  'x, y, z'
loop_
 _atom_site_type_symbol
 _atom_site_label
 _atom_site_symmetry_multiplicity
 _atom_site_fract_x
 _atom_site_fract_y
 _atom_site_fract_z
 _atom_site_occupancy
  Li  Li0  1  0.86816850  0.90132950  0.41048300  1
  Li  Li1  1  0.34736000  0.16385200  0.52110700  1
  Li  Li2  1  0.13183150  0.90132950  0.58951700  1
  Li  Li3  1  0.65264000  0.16385200  0.47889300  1
  Li  Li4  1  0.25762050  0.77819150  0.74365700  1
  Li  Li5  1  0.74237950  0.77819150  0.25634300  1
  Li  Li6  1  0.70242050  0.03530550  0.73601300  1
  Li  Li7  1  0.29757950  0.03530550  0.26398700  1
  Li  Li8  1  0.33100500  0.84135300  0.99686000  1
  Li  Li9  1  0.37643250  0.62572750  0.91155300  1
  Li  Li10  1  0.66899500  0.84135300  0.00314000  1
  Li  Li11  1  0.62356750  0.62572750  0.08844700  1
  Li  Li12  1  0.36816850  0.40132950  0.41048300  1
  Li  Li13  1  0.84736000  0.66385200  0.52110700  1
  Li  Li14  1  0.63183150  0.40132950  0.58951700  1
  Li  Li15  1  0.15264000  0.66385200  0.47889300  1
  Li  Li16  1  0.75762050  0.27819150  0.74365700  1
  Li  Li17  1  0.24237950  0.27819150  0.25634300  1
  Li  Li18  1  0.20242050  0.53530550  0.73601300  1
  Li  Li19  1  0.79757950  0.53530550  0.26398700  1
  Li  Li20  1  0.83100500  0.34135300  0.99686000  1
  Li  Li21  1  0.87643250  0.12572750  0.91155300  1
  Li  Li22  1  0.16899500  0.34135300  0.00314000  1
  Li  Li23  1  0.12356750  0.12572750  0.08844700  1
  Ti  Ti24  1  0.39428650  0.35543450  0.78904200  1
  Ti  Ti25  1  0.38969400  0.64266000  0.28673200  1
  Ti  Ti26  1  0.50000000  0.95988000  0.50000000  1
  Ti  Ti27  1  0.50000000  0.74913300  0.50000000  1
  Ti  Ti28  1  0.50000000  0.24956100  0.00000000  1
  Ti  Ti29  1  0.60571350  0.35543450  0.21095800  1
  Ti  Ti30  1  0.50000000  0.03641900  0.00000000  1
  Ti  Ti31  1  0.61030600  0.64266000  0.71326800  1
  Ti  Ti32  1  0.89428650  0.85543450  0.78904200  1
  Ti  Ti33  1  0.88969400  0.14266000  0.28673200  1
  Ti  Ti34  1  0.00000000  0.45988000  0.50000000  1
  Ti  Ti35  1  0.00000000  0.24913300  0.50000000  1
  Ti  Ti36  1  0.00000000  0.74956100  0.00000000  1
  Ti  Ti37  1  0.10571350  0.85543450  0.21095800  1
  Ti  Ti38  1  0.00000000  0.53641900  0.00000000  1
  Ti  Ti39  1  0.11030600  0.14266000  0.71326800  1
  P  P40  1  0.11236850  0.05912850  0.40050900  1
  P  P41  1  0.48829600  0.16201700  0.30442500  1
  P  P42  1  0.29777800  0.85221000  0.42158700  1
  P  P43  1  0.51170400  0.16201700  0.69557500  1
  P  P44  1  0.11760350  0.93606950  0.90275200  1
  P  P45  1  0.29912550  0.14747550  0.92811400  1
  P  P46  1  0.70222200  0.85221000  0.57841300  1
  P  P47  1  0.88763150  0.05912850  0.59949100  1
  P  P48  1  0.48887050  0.83060850  0.80433600  1
  P  P49  1  0.70087450  0.14747550  0.07188600  1
  P  P50  1  0.51112950  0.83060850  0.19566400  1
  P  P51  1  0.88239650  0.93606950  0.09724800  1
  P  P52  1  0.61236850  0.55912850  0.40050900  1
  P  P53  1  0.98829600  0.66201700  0.30442500  1
  P  P54  1  0.79777800  0.35221000  0.42158700  1
  P  P55  1  0.01170400  0.66201700  0.69557500  1
  P  P56  1  0.61760350  0.43606950  0.90275200  1
  P  P57  1  0.79912550  0.64747550  0.92811400  1
  P  P58  1  0.20222200  0.35221000  0.57841300  1
  P  P59  1  0.38763150  0.55912850  0.59949100  1
  P  P60  1  0.98887050  0.33060850  0.80433600  1
  P  P61  1  0.20087450  0.64747550  0.07188600  1
  P  P62  1  0.01112950  0.33060850  0.19566400  1
  P  P63  1  0.38239650  0.43606950  0.09724800  1
  O  O64  1  0.19387250  0.09790850  0.32823200  1
  O  O65  1  0.07630600  0.95524700  0.35314200  1
  O  O66  1  0.39043600  0.18236200  0.34494800  1
  O  O67  1  0.56048800  0.24814400  0.33763700  1
  O  O68  1  0.13532650  0.04875150  0.55850300  1
  O  O69  1  0.24250900  0.86498900  0.28013300  1
  O  O70  1  0.53514150  0.06926750  0.37445700  1
  O  O71  1  0.43951200  0.24814400  0.66236300  1
  O  O72  1  0.36051300  0.94771600  0.43678300  1
  O  O73  1  0.08307550  0.03894450  0.84796500  1
  O  O74  1  0.24217400  0.14207600  0.78760200  1
  O  O75  1  0.23627550  0.83233150  0.53633600  1
  O  O76  1  0.46485850  0.06926750  0.62554300  1
  O  O77  1  0.52566700  0.85139700  0.35383000  1
  O  O78  1  0.36313350  0.75763350  0.41913100  1
  O  O79  1  0.36429900  0.24248400  0.92090000  1
  O  O80  1  0.53176300  0.36231900  0.87322400  1
  O  O81  1  0.60956400  0.18236200  0.65505200  1
  O  O82  1  0.19847050  0.89134850  0.83495900  1
  O  O83  1  0.24073100  0.16581300  0.04639100  1
  O  O84  1  0.52157650  0.14469150  0.85436000  1
  O  O85  1  0.46823700  0.36231900  0.12677600  1
  O  O86  1  0.63948700  0.94771600  0.56321700  1
  O  O87  1  0.86467350  0.04875150  0.44149700  1
  O  O88  1  0.13813650  0.95040250  0.06030100  1
  O  O89  1  0.36257700  0.05374900  0.95064300  1
  O  O90  1  0.53027900  0.63620900  0.37045800  1
  O  O91  1  0.47433300  0.85139700  0.64617000  1
  O  O92  1  0.76372450  0.83233150  0.46366400  1
  O  O93  1  0.80612750  0.09790850  0.67176800  1
  O  O94  1  0.39609700  0.79364800  0.84949800  1
  O  O95  1  0.63686650  0.75763350  0.58086900  1
  O  O96  1  0.46972100  0.63620900  0.62954200  1
  O  O97  1  0.63570100  0.24248400  0.07910000  1
  O  O98  1  0.47842350  0.14469150  0.14564000  1
  O  O99  1  0.52902750  0.92699450  0.87238300  1
  O  O100  1  0.75926900  0.16581300  0.95360900  1
  O  O101  1  0.92369400  0.95524700  0.64685800  1
  O  O102  1  0.75749100  0.86498900  0.71986700  1
  O  O103  1  0.63742300  0.05374900  0.04935700  1
  O  O104  1  0.56683250  0.75008550  0.83511400  1
  O  O105  1  0.47097250  0.92699450  0.12761700  1
  O  O106  1  0.75782600  0.14207600  0.21239800  1
  O  O107  1  0.86186350  0.95040250  0.93969900  1
  O  O108  1  0.43316750  0.75008550  0.16488600  1
  O  O109  1  0.60390300  0.79364800  0.15050200  1
  O  O110  1  0.91692450  0.03894450  0.15203500  1
  O  O111  1  0.80152950  0.89134850  0.16504100  1
  O  O112  1  0.69387250  0.59790850  0.32823200  1
  O  O113  1  0.57630600  0.45524700  0.35314200  1
  O  O114  1  0.89043600  0.68236200  0.34494800  1
  O  O115  1  0.06048800  0.74814400  0.33763700  1
  O  O116  1  0.63532650  0.54875150  0.55850300  1
  O  O117  1  0.74250900  0.36498900  0.28013300  1
  O  O118  1  0.03514150  0.56926750  0.37445700  1
  O  O119  1  0.93951200  0.74814400  0.66236300  1
  O  O120  1  0.86051300  0.44771600  0.43678300  1
  O  O121  1  0.58307550  0.53894450  0.84796500  1
  O  O122  1  0.74217400  0.64207600  0.78760200  1
  O  O123  1  0.73627550  0.33233150  0.53633600  1
  O  O124  1  0.96485850  0.56926750  0.62554300  1
  O  O125  1  0.02566700  0.35139700  0.35383000  1
  O  O126  1  0.86313350  0.25763350  0.41913100  1
  O  O127  1  0.86429900  0.74248400  0.92090000  1
  O  O128  1  0.03176300  0.86231900  0.87322400  1
  O  O129  1  0.10956400  0.68236200  0.65505200  1
  O  O130  1  0.69847050  0.39134850  0.83495900  1
  O  O131  1  0.74073100  0.66581300  0.04639100  1
  O  O132  1  0.02157650  0.64469150  0.85436000  1
  O  O133  1  0.96823700  0.86231900  0.12677600  1
  O  O134  1  0.13948700  0.44771600  0.56321700  1
  O  O135  1  0.36467350  0.54875150  0.44149700  1
  O  O136  1  0.63813650  0.45040250  0.06030100  1
  O  O137  1  0.86257700  0.55374900  0.95064300  1
  O  O138  1  0.03027900  0.13620900  0.37045800  1
  O  O139  1  0.97433300  0.35139700  0.64617000  1
  O  O140  1  0.26372450  0.33233150  0.46366400  1
  O  O141  1  0.30612750  0.59790850  0.67176800  1
  O  O142  1  0.89609700  0.29364800  0.84949800  1
  O  O143  1  0.13686650  0.25763350  0.58086900  1
  O  O144  1  0.96972100  0.13620900  0.62954200  1
  O  O145  1  0.13570100  0.74248400  0.07910000  1
  O  O146  1  0.97842350  0.64469150  0.14564000  1
  O  O147  1  0.02902750  0.42699450  0.87238300  1
  O  O148  1  0.25926900  0.66581300  0.95360900  1
  O  O149  1  0.42369400  0.45524700  0.64685800  1
  O  O150  1  0.25749100  0.36498900  0.71986700  1
  O  O151  1  0.13742300  0.55374900  0.04935700  1
  O  O152  1  0.06683250  0.25008550  0.83511400  1
  O  O153  1  0.97097250  0.42699450  0.12761700  1
  O  O154  1  0.25782600  0.64207600  0.21239800  1
  O  O155  1  0.36186350  0.45040250  0.93969900  1
  O  O156  1  0.93316750  0.25008550  0.16488600  1
  O  O157  1  0.10390300  0.29364800  0.15050200  1
  O  O158  1  0.41692450  0.53894450  0.15203500  1
  O  O159  1  0.30152950  0.39134850  0.16504100  1
