# generated using pymatgen
data_UH12(NO7)2
_symmetry_space_group_name_H-M   'P 1'
_cell_length_a   8.08997600
_cell_length_b   13.25290000
_cell_length_c   11.53909500
_cell_angle_alpha   90.00000000
_cell_angle_beta   90.00000000
_cell_angle_gamma   90.00000000
_symmetry_Int_Tables_number   1
_chemical_formula_structural   UH12(NO7)2
_chemical_formula_sum   'U4 H48 N8 O56'
_cell_volume   1237.17148926
_cell_formula_units_Z   4
loop_
 _symmetry_equiv_pos_site_id
 _symmetry_equiv_pos_as_xyz
  1  'x, y, z'
loop_
 _atom_site_type_symbol
 _atom_site_label
 _atom_site_symmetry_multiplicity
 _atom_site_fract_x
 _atom_site_fract_y
 _atom_site_fract_z
 _atom_site_occupancy
  U  U0  1  0.87206800  0.00000000  0.74960900  1
  U  U1  1  0.12793200  0.00000000  0.24960900  1
  U  U2  1  0.37206800  0.50000000  0.74960900  1
  U  U3  1  0.62793200  0.50000000  0.24960900  1
  H  H4  1  0.32490500  0.27469800  0.68339700  1
  H  H5  1  0.32490500  0.72530200  0.68339700  1
  H  H6  1  0.67509500  0.72530200  0.18339700  1
  H  H7  1  0.67509500  0.27469800  0.18339700  1
  H  H8  1  0.42678100  0.27441000  0.80588500  1
  H  H9  1  0.42678100  0.72559000  0.80588500  1
  H  H10  1  0.57321900  0.72559000  0.30588500  1
  H  H11  1  0.57321900  0.27441000  0.30588500  1
  H  H12  1  0.43558050  0.13586550  0.91764900  1
  H  H13  1  0.43558050  0.86413450  0.91764900  1
  H  H14  1  0.56441950  0.86413450  0.41764900  1
  H  H15  1  0.56441950  0.13586550  0.41764900  1
  H  H16  1  0.58369200  0.79760100  0.96483800  1
  H  H17  1  0.58369200  0.20239900  0.96483800  1
  H  H18  1  0.41630800  0.20239900  0.46483800  1
  H  H19  1  0.41630800  0.79760100  0.46483800  1
  H  H20  1  0.23850050  0.13382550  0.58842200  1
  H  H21  1  0.23850050  0.86617450  0.58842200  1
  H  H22  1  0.76149950  0.86617450  0.08842200  1
  H  H23  1  0.76149950  0.13382550  0.08842200  1
  H  H24  1  0.65560000  0.73121100  0.52934500  1
  H  H25  1  0.65560000  0.26878900  0.52934500  1
  H  H26  1  0.34440000  0.26878900  0.02934500  1
  H  H27  1  0.34440000  0.73121100  0.02934500  1
  H  H28  1  0.82490500  0.77469800  0.68339700  1
  H  H29  1  0.82490500  0.22530200  0.68339700  1
  H  H30  1  0.17509500  0.22530200  0.18339700  1
  H  H31  1  0.17509500  0.77469800  0.18339700  1
  H  H32  1  0.92678100  0.77441000  0.80588500  1
  H  H33  1  0.92678100  0.22559000  0.80588500  1
  H  H34  1  0.07321900  0.22559000  0.30588500  1
  H  H35  1  0.07321900  0.77441000  0.30588500  1
  H  H36  1  0.93558050  0.63586550  0.91764900  1
  H  H37  1  0.93558050  0.36413450  0.91764900  1
  H  H38  1  0.06441950  0.36413450  0.41764900  1
  H  H39  1  0.06441950  0.63586550  0.41764900  1
  H  H40  1  0.08369200  0.29760100  0.96483800  1
  H  H41  1  0.08369200  0.70239900  0.96483800  1
  H  H42  1  0.91630800  0.70239900  0.46483800  1
  H  H43  1  0.91630800  0.29760100  0.46483800  1
  H  H44  1  0.73850050  0.63382550  0.58842200  1
  H  H45  1  0.73850050  0.36617450  0.58842200  1
  H  H46  1  0.26149950  0.36617450  0.08842200  1
  H  H47  1  0.26149950  0.63382550  0.08842200  1
  H  H48  1  0.15560000  0.23121100  0.52934500  1
  H  H49  1  0.15560000  0.76878900  0.52934500  1
  H  H50  1  0.84440000  0.76878900  0.02934500  1
  H  H51  1  0.84440000  0.23121100  0.02934500  1
  N  N52  1  0.52805500  0.00000000  0.65912000  1
  N  N53  1  0.47194500  0.00000000  0.15912000  1
  N  N54  1  0.20741800  0.00000000  0.85907800  1
  N  N55  1  0.79258200  0.00000000  0.35907800  1
  N  N56  1  0.02805500  0.50000000  0.65912000  1
  N  N57  1  0.97194500  0.50000000  0.15912000  1
  N  N58  1  0.70741800  0.50000000  0.85907800  1
  N  N59  1  0.29258200  0.50000000  0.35907800  1
  O  O60  1  0.38215200  0.00000000  0.62667900  1
  O  O61  1  0.61784800  0.00000000  0.12667900  1
  O  O62  1  0.34853200  0.00000000  0.90324900  1
  O  O63  1  0.65146800  0.00000000  0.40324900  1
  O  O64  1  0.60860100  0.91820700  0.67722400  1
  O  O65  1  0.60860100  0.08179300  0.67722400  1
  O  O66  1  0.39139900  0.08179300  0.17722400  1
  O  O67  1  0.39139900  0.91820700  0.17722400  1
  O  O68  1  0.13267550  0.08185750  0.83452200  1
  O  O69  1  0.13267550  0.91814250  0.83452200  1
  O  O70  1  0.86732450  0.91814250  0.33452200  1
  O  O71  1  0.86732450  0.08185750  0.33452200  1
  O  O72  1  0.95851100  0.00000000  0.60557800  1
  O  O73  1  0.04148900  0.00000000  0.10557800  1
  O  O74  1  0.78646600  0.00000000  0.89402900  1
  O  O75  1  0.21353400  0.00000000  0.39402900  1
  O  O76  1  0.37880800  0.31820300  0.74373500  1
  O  O77  1  0.37880800  0.68179700  0.74373500  1
  O  O78  1  0.62119200  0.68179700  0.24373500  1
  O  O79  1  0.62119200  0.31820300  0.24373500  1
  O  O80  1  0.47364450  0.20596950  0.92630300  1
  O  O81  1  0.47364450  0.79403050  0.92630300  1
  O  O82  1  0.52635550  0.79403050  0.42630300  1
  O  O83  1  0.52635550  0.20596950  0.42630300  1
  O  O84  1  0.25461800  0.20548400  0.57131000  1
  O  O85  1  0.25461800  0.79451600  0.57131000  1
  O  O86  1  0.74538200  0.79451600  0.07131000  1
  O  O87  1  0.74538200  0.20548400  0.07131000  1
  O  O88  1  0.88215200  0.50000000  0.62667900  1
  O  O89  1  0.11784800  0.50000000  0.12667900  1
  O  O90  1  0.84853200  0.50000000  0.90324900  1
  O  O91  1  0.15146800  0.50000000  0.40324900  1
  O  O92  1  0.10860100  0.41820700  0.67722400  1
  O  O93  1  0.10860100  0.58179300  0.67722400  1
  O  O94  1  0.89139900  0.58179300  0.17722400  1
  O  O95  1  0.89139900  0.41820700  0.17722400  1
  O  O96  1  0.63267550  0.58185750  0.83452200  1
  O  O97  1  0.63267550  0.41814250  0.83452200  1
  O  O98  1  0.36732450  0.41814250  0.33452200  1
  O  O99  1  0.36732450  0.58185750  0.33452200  1
  O  O100  1  0.45851100  0.50000000  0.60557800  1
  O  O101  1  0.54148900  0.50000000  0.10557800  1
  O  O102  1  0.28646600  0.50000000  0.89402900  1
  O  O103  1  0.71353400  0.50000000  0.39402900  1
  O  O104  1  0.87880800  0.81820300  0.74373500  1
  O  O105  1  0.87880800  0.18179700  0.74373500  1
  O  O106  1  0.12119200  0.18179700  0.24373500  1
  O  O107  1  0.12119200  0.81820300  0.24373500  1
  O  O108  1  0.97364450  0.70596950  0.92630300  1
  O  O109  1  0.97364450  0.29403050  0.92630300  1
  O  O110  1  0.02635550  0.29403050  0.42630300  1
  O  O111  1  0.02635550  0.70596950  0.42630300  1
  O  O112  1  0.75461800  0.70548400  0.57131000  1
  O  O113  1  0.75461800  0.29451600  0.57131000  1
  O  O114  1  0.24538200  0.29451600  0.07131000  1
  O  O115  1  0.24538200  0.70548400  0.07131000  1
