# generated using pymatgen
data_NaPH4O5
_symmetry_space_group_name_H-M   'P 1'
_cell_length_a   7.87855700
_cell_length_b   9.59431646
_cell_length_c   10.89374107
_cell_angle_alpha   113.02340833
_cell_angle_beta   106.12801339
_cell_angle_gamma   88.69554061
_symmetry_Int_Tables_number   1
_chemical_formula_structural   NaPH4O5
_chemical_formula_sum   'Na6 P6 H24 O30'
_cell_volume   724.58979649
_cell_formula_units_Z   6
loop_
 _symmetry_equiv_pos_site_id
 _symmetry_equiv_pos_as_xyz
  1  'x, y, z'
loop_
 _atom_site_type_symbol
 _atom_site_label
 _atom_site_symmetry_multiplicity
 _atom_site_fract_x
 _atom_site_fract_y
 _atom_site_fract_z
 _atom_site_occupancy
  Na  Na0  1  0.62359900  0.90858600  0.07448200  1
  Na  Na1  1  0.37640100  0.09141400  0.92551800  1
  Na  Na2  1  0.65375500  0.25484300  0.79780000  1
  Na  Na3  1  0.34624500  0.74515700  0.20220000  1
  Na  Na4  1  0.64582700  0.06909000  0.42943800  1
  Na  Na5  1  0.35417300  0.93091000  0.57056200  1
  P  P6  1  0.73569000  0.88800000  0.79160100  1
  P  P7  1  0.26431000  0.11200000  0.20839900  1
  P  P8  1  0.70481200  0.74759400  0.49435200  1
  P  P9  1  0.29518800  0.25240600  0.50564800  1
  P  P10  1  0.96624700  0.00821200  0.68084300  1
  P  P11  1  0.03375300  0.99178800  0.31915700  1
  H  H12  1  0.73193200  0.40940500  0.44823200  1
  H  H13  1  0.26806800  0.59059500  0.55176800  1
  H  H14  1  0.87866600  0.30143200  0.46149900  1
  H  H15  1  0.12133400  0.69856800  0.53850100  1
  H  H16  1  0.68089000  0.60225900  0.81569800  1
  H  H17  1  0.31911000  0.39774100  0.18430200  1
  H  H18  1  0.50437800  0.49306200  0.73160800  1
  H  H19  1  0.49562200  0.50693800  0.26839200  1
  H  H20  1  0.69983100  0.64866800  0.13475400  1
  H  H21  1  0.30016900  0.35133200  0.86524600  1
  H  H22  1  0.56893900  0.60053500  0.98529600  1
  H  H23  1  0.43106100  0.39946500  0.01470400  1
  H  H24  1  0.91958300  0.40605700  0.08865500  1
  H  H25  1  0.08041700  0.59394300  0.91134500  1
  H  H26  1  0.99680000  0.24804900  0.03183100  1
  H  H27  1  0.00320000  0.75195100  0.96816900  1
  H  H28  1  0.68862700  0.22254800  0.21412200  1
  H  H29  1  0.31137300  0.77745200  0.78587800  1
  H  H30  1  0.74262900  0.21341200  0.08227700  1
  H  H31  1  0.25737100  0.78658800  0.91772300  1
  H  H32  1  0.86433300  0.58386400  0.29521300  1
  H  H33  1  0.13566700  0.41613600  0.70478700  1
  H  H34  1  0.00052400  0.68011000  0.26802700  1
  H  H35  1  0.99947600  0.31989000  0.73197300  1
  O  O36  1  0.69196300  0.74467200  0.63925200  1
  O  O37  1  0.30803700  0.25532800  0.36074800  1
  O  O38  1  0.89750000  0.84450700  0.54526400  1
  O  O39  1  0.10250000  0.15549300  0.45473600  1
  O  O40  1  0.92280300  0.96595600  0.80083800  1
  O  O41  1  0.07719700  0.03404400  0.19916200  1
  O  O42  1  0.59429800  0.99560900  0.78693900  1
  O  O43  1  0.40570200  0.00439100  0.21306100  1
  O  O44  1  0.77476300  0.81940200  0.89728600  1
  O  O45  1  0.22523700  0.18059800  0.10271400  1
  O  O46  1  0.72444600  0.58637800  0.40348200  1
  O  O47  1  0.27555400  0.41362200  0.59651800  1
  O  O48  1  0.56162500  0.83173800  0.43929000  1
  O  O49  1  0.43837500  0.16826200  0.56071000  1
  O  O50  1  0.85376800  0.13021200  0.65809300  1
  O  O51  1  0.14623200  0.86978800  0.34190700  1
  O  O52  1  0.16194600  0.02876100  0.71182500  1
  O  O53  1  0.83805400  0.97123900  0.28817500  1
  O  O54  1  0.75006600  0.30227800  0.43164700  1
  O  O55  1  0.24993400  0.69772200  0.56835300  1
  O  O56  1  0.61943500  0.50734800  0.80272900  1
  O  O57  1  0.38056500  0.49265200  0.19727100  1
  O  O58  1  0.58319200  0.66832200  0.08370900  1
  O  O59  1  0.41680800  0.33167800  0.91629100  1
  O  O60  1  0.88781200  0.29950100  0.01776900  1
  O  O61  1  0.11218800  0.70049900  0.98223100  1
  O  O62  1  0.65140100  0.17529900  0.11167600  1
  O  O63  1  0.34859900  0.82470100  0.88832400  1
  O  O64  1  0.91720100  0.58685900  0.22354400  1
  O  O65  1  0.08279900  0.41314100  0.77645600  1
