# generated using pymatgen
data_Li4ZrO4
_symmetry_space_group_name_H-M   'P 1'
_cell_length_a   7.48010400
_cell_length_b   8.29231800
_cell_length_c   6.46217700
_cell_angle_alpha   90.00000000
_cell_angle_beta   90.00000000
_cell_angle_gamma   90.00000000
_symmetry_Int_Tables_number   1
_chemical_formula_structural   Li4ZrO4
_chemical_formula_sum   'Li16 Zr4 O16'
_cell_volume   400.83204438
_cell_formula_units_Z   4
loop_
 _symmetry_equiv_pos_site_id
 _symmetry_equiv_pos_as_xyz
  1  'x, y, z'
loop_
 _atom_site_type_symbol
 _atom_site_label
 _atom_site_symmetry_multiplicity
 _atom_site_fract_x
 _atom_site_fract_y
 _atom_site_fract_z
 _atom_site_occupancy
  Li  Li0  1  0.50000000  0.34349600  0.00000000  1
  Li  Li1  1  0.50000000  0.34349600  0.50000000  1
  Li  Li2  1  0.74020750  0.14165750  0.25000000  1
  Li  Li3  1  0.25979250  0.14165750  0.75000000  1
  Li  Li4  1  0.74020750  0.85834250  0.25000000  1
  Li  Li5  1  0.25979250  0.85834250  0.75000000  1
  Li  Li6  1  0.50000000  0.65650400  0.00000000  1
  Li  Li7  1  0.50000000  0.65650400  0.50000000  1
  Li  Li8  1  0.00000000  0.84349600  0.00000000  1
  Li  Li9  1  0.00000000  0.84349600  0.50000000  1
  Li  Li10  1  0.24020750  0.64165750  0.25000000  1
  Li  Li11  1  0.75979250  0.64165750  0.75000000  1
  Li  Li12  1  0.24020750  0.35834250  0.25000000  1
  Li  Li13  1  0.75979250  0.35834250  0.75000000  1
  Li  Li14  1  0.00000000  0.15650400  0.00000000  1
  Li  Li15  1  0.00000000  0.15650400  0.50000000  1
  Zr  Zr16  1  0.65426700  0.00000000  0.75000000  1
  Zr  Zr17  1  0.34573300  0.00000000  0.25000000  1
  Zr  Zr18  1  0.15426700  0.50000000  0.75000000  1
  Zr  Zr19  1  0.84573300  0.50000000  0.25000000  1
  O  O20  1  0.48188950  0.20868550  0.25000000  1
  O  O21  1  0.51811050  0.20868550  0.75000000  1
  O  O22  1  0.20195200  0.00000000  0.51103600  1
  O  O23  1  0.20195200  0.00000000  0.98896400  1
  O  O24  1  0.79804800  0.00000000  0.01103600  1
  O  O25  1  0.79804800  0.00000000  0.48896400  1
  O  O26  1  0.48188950  0.79131450  0.25000000  1
  O  O27  1  0.51811050  0.79131450  0.75000000  1
  O  O28  1  0.98188950  0.70868550  0.25000000  1
  O  O29  1  0.01811050  0.70868550  0.75000000  1
  O  O30  1  0.70195200  0.50000000  0.51103600  1
  O  O31  1  0.70195200  0.50000000  0.98896400  1
  O  O32  1  0.29804800  0.50000000  0.01103600  1
  O  O33  1  0.29804800  0.50000000  0.48896400  1
  O  O34  1  0.98188950  0.29131450  0.25000000  1
  O  O35  1  0.01811050  0.29131450  0.75000000  1
