# generated using pymatgen
data_Fe3P6WO24
_symmetry_space_group_name_H-M   'P 1'
_cell_length_a   8.73086275
_cell_length_b   8.73086275
_cell_length_c   22.19705994
_cell_angle_alpha   90.00000000
_cell_angle_beta   90.00000000
_cell_angle_gamma   120.00000000
_symmetry_Int_Tables_number   1
_chemical_formula_structural   Fe3P6WO24
_chemical_formula_sum   'Fe9 P18 W3 O72'
_cell_volume   1465.34675958
_cell_formula_units_Z   3
loop_
 _symmetry_equiv_pos_site_id
 _symmetry_equiv_pos_as_xyz
  1  'x, y, z'
loop_
 _atom_site_type_symbol
 _atom_site_label
 _atom_site_symmetry_multiplicity
 _atom_site_fract_x
 _atom_site_fract_y
 _atom_site_fract_z
 _atom_site_occupancy
  Fe  Fe0  1  0.00000000  0.00000000  0.14392800  1
  Fe  Fe1  1  0.33333333  0.66666667  0.02491767  1
  Fe  Fe2  1  0.33333333  0.66666667  0.30834767  1
  Fe  Fe3  1  0.66666667  0.33333333  0.47726133  1
  Fe  Fe4  1  0.00000000  0.00000000  0.35825100  1
  Fe  Fe5  1  0.00000000  0.00000000  0.64168100  1
  Fe  Fe6  1  0.33333333  0.66666667  0.81059467  1
  Fe  Fe7  1  0.66666667  0.33333333  0.69158433  1
  Fe  Fe8  1  0.66666667  0.33333333  0.97501433  1
  P  P9  1  0.37792533  0.32965267  0.08241567  1
  P  P10  1  0.67034733  0.04827267  0.08241567  1
  P  P11  1  0.95172733  0.62207467  0.08241567  1
  P  P12  1  0.71732033  0.72107667  0.25042167  1
  P  P13  1  0.00375633  0.28267967  0.25042167  1
  P  P14  1  0.27892333  0.99624367  0.25042167  1
  P  P15  1  0.04459200  0.66298600  0.41574900  1
  P  P16  1  0.33701400  0.38160600  0.41574900  1
  P  P17  1  0.61839400  0.95540800  0.41574900  1
  P  P18  1  0.38398700  0.05441000  0.58375500  1
  P  P19  1  0.67042300  0.61601300  0.58375500  1
  P  P20  1  0.94559000  0.32957700  0.58375500  1
  P  P21  1  0.71125867  0.99631933  0.74908233  1
  P  P22  1  0.00368067  0.71493933  0.74908233  1
  P  P23  1  0.28506067  0.28874133  0.74908233  1
  P  P24  1  0.05065367  0.38774333  0.91708833  1
  P  P25  1  0.33708967  0.94934633  0.91708833  1
  P  P26  1  0.61225667  0.66291033  0.91708833  1
  W  W27  1  0.66666667  0.33333333  0.19132633  1
  W  W28  1  0.33333333  0.66666667  0.52465967  1
  W  W29  1  0.00000000  0.00000000  0.85799300  1
  O  O30  1  0.20524667  0.03740433  0.30635633  1
  O  O31  1  0.83215767  0.79475333  0.30635633  1
  O  O32  1  0.19656267  0.16706333  0.08982233  1
  O  O33  1  0.96259567  0.16784233  0.30635633  1
  O  O34  1  0.36987267  0.49978833  0.07791133  1
  O  O35  1  0.49589833  0.35011767  0.13969367  1
  O  O36  1  0.83293667  0.02949933  0.08982233  1
  O  O37  1  0.50021167  0.87008433  0.07791133  1
  O  O38  1  0.12991567  0.63012733  0.07791133  1
  O  O39  1  0.79801333  0.82819167  0.19347767  1
  O  O40  1  0.69080800  0.52732500  0.23966900  1
  O  O41  1  0.03017833  0.20198667  0.19347767  1
  O  O42  1  0.64988233  0.14578067  0.13969367  1
  O  O43  1  0.97050067  0.80343733  0.08982233  1
  O  O44  1  0.85421933  0.50410167  0.13969367  1
  O  O45  1  0.53385500  0.69716400  0.25931900  1
  O  O46  1  0.16330900  0.46614500  0.25931900  1
  O  O47  1  0.83651700  0.30919200  0.23966900  1
  O  O48  1  0.17180833  0.96982167  0.19347767  1
  O  O49  1  0.30283600  0.83669100  0.25931900  1
  O  O50  1  0.69556267  0.16228733  0.02696233  1
  O  O51  1  0.47267500  0.16348300  0.23966900  1
  O  O52  1  0.83771267  0.53327533  0.02696233  1
  O  O53  1  0.46672467  0.30443733  0.02696233  1
  O  O54  1  0.87191333  0.37073767  0.63968967  1
  O  O55  1  0.49882433  0.12808667  0.63968967  1
  O  O56  1  0.86322933  0.50039667  0.42315567  1
  O  O57  1  0.62926233  0.50117567  0.63968967  1
  O  O58  1  0.03653933  0.83312167  0.41124467  1
  O  O59  1  0.16256500  0.68345100  0.47302700  1
  O  O60  1  0.49960333  0.36283267  0.42315567  1
  O  O61  1  0.16687833  0.20341767  0.41124467  1
  O  O62  1  0.79658233  0.96346067  0.41124467  1
  O  O63  1  0.46468000  0.16152500  0.52681100  1
  O  O64  1  0.35747467  0.86065833  0.57300233  1
  O  O65  1  0.69684500  0.53532000  0.52681100  1
  O  O66  1  0.31654900  0.47911400  0.47302700  1
  O  O67  1  0.63716733  0.13677067  0.42315567  1
  O  O68  1  0.52088600  0.83743500  0.47302700  1
  O  O69  1  0.20052167  0.03049733  0.59265233  1
  O  O70  1  0.82997567  0.79947833  0.59265233  1
  O  O71  1  0.50318367  0.64252533  0.57300233  1
  O  O72  1  0.83847500  0.30315500  0.52681100  1
  O  O73  1  0.96950267  0.17002433  0.59265233  1
  O  O74  1  0.36222933  0.49562067  0.36029567  1
  O  O75  1  0.13934167  0.49681633  0.57300233  1
  O  O76  1  0.50437933  0.86660867  0.36029567  1
  O  O77  1  0.13339133  0.63777067  0.36029567  1
  O  O78  1  0.53858000  0.70407100  0.97302300  1
  O  O79  1  0.16549100  0.46142000  0.97302300  1
  O  O80  1  0.52989600  0.83373000  0.75648900  1
  O  O81  1  0.29592900  0.83450900  0.97302300  1
  O  O82  1  0.70320600  0.16645500  0.74457800  1
  O  O83  1  0.82923167  0.01678433  0.80636033  1
  O  O84  1  0.16627000  0.69616600  0.75648900  1
  O  O85  1  0.83354500  0.53675100  0.74457800  1
  O  O86  1  0.46324900  0.29679400  0.74457800  1
  O  O87  1  0.13134667  0.49485833  0.86014433  1
  O  O88  1  0.02414133  0.19399167  0.90633567  1
  O  O89  1  0.36351167  0.86865333  0.86014433  1
  O  O90  1  0.98321567  0.81244733  0.80636033  1
  O  O91  1  0.30383400  0.47010400  0.75648900  1
  O  O92  1  0.18755267  0.17076833  0.80636033  1
  O  O93  1  0.86718833  0.36383067  0.92598567  1
  O  O94  1  0.49664233  0.13281167  0.92598567  1
  O  O95  1  0.16985033  0.97585867  0.90633567  1
  O  O96  1  0.50514167  0.63648833  0.86014433  1
  O  O97  1  0.63616933  0.50335767  0.92598567  1
  O  O98  1  0.02889600  0.82895400  0.69362900  1
  O  O99  1  0.80600833  0.83014967  0.90633567  1
  O  O100  1  0.17104600  0.19994200  0.69362900  1
  O  O101  1  0.80005800  0.97110400  0.69362900  1
