# generated using pymatgen
data_TaAlO4
_symmetry_space_group_name_H-M   'P 1'
_cell_length_a   6.53734200
_cell_length_b   6.53734200
_cell_length_c   5.96757000
_cell_angle_alpha   90.00000000
_cell_angle_beta   90.00000000
_cell_angle_gamma   90.00000000
_symmetry_Int_Tables_number   1
_chemical_formula_structural   TaAlO4
_chemical_formula_sum   'Ta4 Al4 O16'
_cell_volume   255.03508681
_cell_formula_units_Z   4
loop_
 _symmetry_equiv_pos_site_id
 _symmetry_equiv_pos_as_xyz
  1  'x, y, z'
loop_
 _atom_site_type_symbol
 _atom_site_label
 _atom_site_symmetry_multiplicity
 _atom_site_fract_x
 _atom_site_fract_y
 _atom_site_fract_z
 _atom_site_occupancy
  Ta  Ta0  1  0.50000000  0.50000000  0.26173300  1
  Ta  Ta1  1  0.50000000  0.00000000  0.01173300  1
  Ta  Ta2  1  0.00000000  0.00000000  0.76173300  1
  Ta  Ta3  1  0.00000000  0.50000000  0.51173300  1
  Al  Al4  1  0.00000000  0.00000000  0.25138500  1
  Al  Al5  1  0.50000000  0.00000000  0.50138500  1
  Al  Al6  1  0.50000000  0.50000000  0.75138500  1
  Al  Al7  1  0.00000000  0.50000000  0.00138500  1
  O  O8  1  0.69360100  0.00000000  0.74025900  1
  O  O9  1  0.69957400  0.00000000  0.25318200  1
  O  O10  1  0.00000000  0.80639900  0.49025900  1
  O  O11  1  0.50000000  0.30042600  0.50318200  1
  O  O12  1  0.00000000  0.19360100  0.49025900  1
  O  O13  1  0.00000000  0.19957400  0.00318200  1
  O  O14  1  0.80042600  0.50000000  0.75318200  1
  O  O15  1  0.80639900  0.50000000  0.24025900  1
  O  O16  1  0.19360100  0.50000000  0.24025900  1
  O  O17  1  0.19957400  0.50000000  0.75318200  1
  O  O18  1  0.50000000  0.30639900  0.99025900  1
  O  O19  1  0.00000000  0.80042600  0.00318200  1
  O  O20  1  0.50000000  0.69360100  0.99025900  1
  O  O21  1  0.50000000  0.69957400  0.50318200  1
  O  O22  1  0.30042600  0.00000000  0.25318200  1
  O  O23  1  0.30639900  0.00000000  0.74025900  1
