# generated using pymatgen
data_Rb3LuO3
_symmetry_space_group_name_H-M   'P 1'
_cell_length_a   7.75372400
_cell_length_b   12.34154200
_cell_length_c   7.21986851
_cell_angle_alpha   90.00000000
_cell_angle_beta   99.97595493
_cell_angle_gamma   90.00000000
_symmetry_Int_Tables_number   1
_chemical_formula_structural   Rb3LuO3
_chemical_formula_sum   'Rb12 Lu4 O12'
_cell_volume   680.44434354
_cell_formula_units_Z   4
loop_
 _symmetry_equiv_pos_site_id
 _symmetry_equiv_pos_as_xyz
  1  'x, y, z'
loop_
 _atom_site_type_symbol
 _atom_site_label
 _atom_site_symmetry_multiplicity
 _atom_site_fract_x
 _atom_site_fract_y
 _atom_site_fract_z
 _atom_site_occupancy
  Rb  Rb0  1  0.50000000  0.70040500  0.50000000  1
  Rb  Rb1  1  0.50000000  0.76193400  0.00000000  1
  Rb  Rb2  1  0.36564300  0.00000000  0.64526100  1
  Rb  Rb3  1  0.63435700  0.00000000  0.35473900  1
  Rb  Rb4  1  0.50000000  0.23806600  0.00000000  1
  Rb  Rb5  1  0.50000000  0.29959500  0.50000000  1
  Rb  Rb6  1  0.00000000  0.20040500  0.50000000  1
  Rb  Rb7  1  0.00000000  0.26193400  0.00000000  1
  Rb  Rb8  1  0.86564300  0.50000000  0.64526100  1
  Rb  Rb9  1  0.13435700  0.50000000  0.35473900  1
  Rb  Rb10  1  0.00000000  0.73806600  0.00000000  1
  Rb  Rb11  1  0.00000000  0.79959500  0.50000000  1
  Lu  Lu12  1  0.17367300  0.00000000  0.14749700  1
  Lu  Lu13  1  0.82632700  0.00000000  0.85250300  1
  Lu  Lu14  1  0.67367300  0.50000000  0.14749700  1
  Lu  Lu15  1  0.32632700  0.50000000  0.85250300  1
  O  O16  1  0.30013750  0.86241150  0.26711900  1
  O  O17  1  0.09943900  0.00000000  0.84587500  1
  O  O18  1  0.69986250  0.86241150  0.73288100  1
  O  O19  1  0.30013750  0.13758850  0.26711900  1
  O  O20  1  0.90056100  0.00000000  0.15412500  1
  O  O21  1  0.69986250  0.13758850  0.73288100  1
  O  O22  1  0.80013750  0.36241150  0.26711900  1
  O  O23  1  0.59943900  0.50000000  0.84587500  1
  O  O24  1  0.19986250  0.36241150  0.73288100  1
  O  O25  1  0.80013750  0.63758850  0.26711900  1
  O  O26  1  0.40056100  0.50000000  0.15412500  1
  O  O27  1  0.19986250  0.63758850  0.73288100  1
