# generated using pymatgen
data_Li2Mg11(WO4)12
_symmetry_space_group_name_H-M   'P 1'
_cell_length_a   10.51339800
_cell_length_b   10.79198100
_cell_length_c   17.84812083
_cell_angle_alpha   90.00000000
_cell_angle_beta   90.51636855
_cell_angle_gamma   90.00000000
_symmetry_Int_Tables_number   1
_chemical_formula_structural   Li2Mg11(WO4)12
_chemical_formula_sum   'Li4 Mg22 W24 O96'
_cell_volume   2024.97253673
_cell_formula_units_Z   2
loop_
 _symmetry_equiv_pos_site_id
 _symmetry_equiv_pos_as_xyz
  1  'x, y, z'
loop_
 _atom_site_type_symbol
 _atom_site_label
 _atom_site_symmetry_multiplicity
 _atom_site_fract_x
 _atom_site_fract_y
 _atom_site_fract_z
 _atom_site_occupancy
  Li  Li0  1  0.38109800  0.50000000  0.29147200  1
  Li  Li1  1  0.62269500  0.00000000  0.70673800  1
  Li  Li2  1  0.87791000  0.50000000  0.29121500  1
  Li  Li3  1  0.94940000  0.00000000  0.24913500  1
  Mg  Mg4  1  0.05053000  0.50000000  0.74949300  1
  Mg  Mg5  1  0.12922200  0.82836800  0.52855800  1
  Mg  Mg6  1  0.12922200  0.17163200  0.52855800  1
  Mg  Mg7  1  0.12016800  0.32352200  0.03149500  1
  Mg  Mg8  1  0.12016800  0.67647800  0.03149500  1
  Mg  Mg9  1  0.21184700  0.00000000  0.25025900  1
  Mg  Mg10  1  0.30035900  0.50000000  0.75120200  1
  Mg  Mg11  1  0.37798200  0.82854500  0.97179600  1
  Mg  Mg12  1  0.37798200  0.17145500  0.97179600  1
  Mg  Mg13  1  0.37025800  0.32319000  0.46828700  1
  Mg  Mg14  1  0.37025800  0.67681000  0.46828700  1
  Mg  Mg15  1  0.55027900  0.50000000  0.74960900  1
  Mg  Mg16  1  0.62855400  0.82642000  0.52811200  1
  Mg  Mg17  1  0.62855400  0.17358000  0.52811200  1
  Mg  Mg18  1  0.62038400  0.67684300  0.03151300  1
  Mg  Mg19  1  0.62038400  0.32315700  0.03151300  1
  Mg  Mg20  1  0.68328400  0.00000000  0.24801700  1
  Mg  Mg21  1  0.80100500  0.50000000  0.75076400  1
  Mg  Mg22  1  0.88011600  0.17284000  0.97196200  1
  Mg  Mg23  1  0.88011600  0.82716000  0.97196200  1
  Mg  Mg24  1  0.87182300  0.32276700  0.46926500  1
  Mg  Mg25  1  0.87182300  0.67723300  0.46926500  1
  W  W26  1  0.11049600  0.00000000  0.05641000  1
  W  W27  1  0.11003600  0.27680100  0.34214400  1
  W  W28  1  0.11003600  0.72319900  0.34214400  1
  W  W29  1  0.13786300  0.77302000  0.84330900  1
  W  W30  1  0.13786300  0.22698000  0.84330900  1
  W  W31  1  0.14019700  0.50000000  0.55637800  1
  W  W32  1  0.36046900  0.00000000  0.44493400  1
  W  W33  1  0.36281300  0.72544200  0.15700100  1
  W  W34  1  0.36281300  0.27455800  0.15700100  1
  W  W35  1  0.39193000  0.77417700  0.65628900  1
  W  W36  1  0.39193000  0.22582300  0.65628900  1
  W  W37  1  0.38991400  0.50000000  0.94322100  1
  W  W38  1  0.61177400  0.00000000  0.05365400  1
  W  W39  1  0.61177800  0.28103000  0.34291400  1
  W  W40  1  0.61177800  0.71897000  0.34291400  1
  W  W41  1  0.63920700  0.77289700  0.84342500  1
  W  W42  1  0.63920700  0.22710300  0.84342500  1
  W  W43  1  0.64041900  0.50000000  0.55700300  1
  W  W44  1  0.85852600  0.00000000  0.44327700  1
  W  W45  1  0.86131100  0.72834700  0.15827800  1
  W  W46  1  0.86131100  0.27165300  0.15827800  1
  W  W47  1  0.88964600  0.77614000  0.65769900  1
  W  W48  1  0.88964600  0.22386000  0.65769900  1
  W  W49  1  0.89001500  0.50000000  0.94321300  1
  O  O50  1  0.02438100  0.85733600  0.62002400  1
  O  O51  1  0.02438100  0.14266400  0.62002400  1
  O  O52  1  0.03191100  0.50000000  0.00446600  1
  O  O53  1  0.03832500  0.26437900  0.92743100  1
  O  O54  1  0.03832500  0.73562100  0.92743100  1
  O  O55  1  0.04100100  0.36698100  0.53496400  1
  O  O56  1  0.04100100  0.63301900  0.53496400  1
  O  O57  1  0.03867000  0.86273400  0.78543000  1
  O  O58  1  0.03867000  0.13726600  0.78543000  1
  O  O59  1  0.07933000  0.13003400  0.29466300  1
  O  O60  1  0.07933000  0.86996600  0.29466300  1
  O  O61  1  0.07636600  0.00000000  0.15454400  1
  O  O62  1  0.17603800  0.50000000  0.65676800  1
  O  O63  1  0.17615700  0.37433100  0.79382900  1
  O  O64  1  0.17615700  0.62566900  0.79382900  1
  O  O65  1  0.20814500  0.86553900  0.03364100  1
  O  O66  1  0.20814500  0.13446100  0.03364100  1
  O  O67  1  0.20586600  0.76113500  0.42876900  1
  O  O68  1  0.20586600  0.23886500  0.42876900  1
  O  O69  1  0.21599200  0.37008600  0.29097800  1
  O  O70  1  0.21599200  0.62991400  0.29097800  1
  O  O71  1  0.21887900  0.00000000  0.50681000  1
  O  O72  1  0.22860000  0.36062300  0.11980600  1
  O  O73  1  0.22860000  0.63937700  0.11980600  1
  O  O74  1  0.27390900  0.85732800  0.87854400  1
  O  O75  1  0.27390900  0.14267200  0.87854400  1
  O  O76  1  0.28178700  0.50000000  0.49611800  1
  O  O77  1  0.29126200  0.36704300  0.96422800  1
  O  O78  1  0.29126200  0.63295700  0.96422800  1
  O  O79  1  0.29117000  0.26265400  0.57225800  1
  O  O80  1  0.29117000  0.73734600  0.57225800  1
  O  O81  1  0.29315700  0.86493400  0.71157700  1
  O  O82  1  0.29315700  0.13506600  0.71157700  1
  O  O83  1  0.31288100  0.00000000  0.34975800  1
  O  O84  1  0.31193000  0.86504300  0.20199200  1
  O  O85  1  0.31193000  0.13495700  0.20199200  1
  O  O86  1  0.42684400  0.50000000  0.84306000  1
  O  O87  1  0.42593200  0.37366200  0.70645000  1
  O  O88  1  0.42593200  0.62633800  0.70645000  1
  O  O89  1  0.45833800  0.86330100  0.46568400  1
  O  O90  1  0.45833800  0.13669900  0.46568400  1
  O  O91  1  0.45763600  0.36598800  0.21932600  1
  O  O92  1  0.45763600  0.63401200  0.21932600  1
  O  O93  1  0.46294600  0.76443100  0.07216000  1
  O  O94  1  0.46294600  0.23556900  0.07216000  1
  O  O95  1  0.46590000  0.00000000  0.99351700  1
  O  O96  1  0.47068600  0.36493500  0.37751100  1
  O  O97  1  0.47068600  0.63506500  0.37751100  1
  O  O98  1  0.53023500  0.86147000  0.62334300  1
  O  O99  1  0.53023500  0.13853000  0.62334300  1
  O  O100  1  0.53251100  0.50000000  0.00421400  1
  O  O101  1  0.53782000  0.26294000  0.92603900  1
  O  O102  1  0.53782000  0.73706000  0.92603900  1
  O  O103  1  0.54106200  0.36637900  0.53637100  1
  O  O104  1  0.54106200  0.63362100  0.53637100  1
  O  O105  1  0.54715400  0.86824900  0.78350900  1
  O  O106  1  0.54715400  0.13175100  0.78350900  1
  O  O107  1  0.58059700  0.86435900  0.29751300  1
  O  O108  1  0.58059700  0.13564100  0.29751300  1
  O  O109  1  0.57783600  0.00000000  0.15072200  1
  O  O110  1  0.67632500  0.50000000  0.65733000  1
  O  O111  1  0.67649200  0.37415100  0.79395600  1
  O  O112  1  0.67649200  0.62584900  0.79395600  1
  O  O113  1  0.71014600  0.86478700  0.03236900  1
  O  O114  1  0.71014600  0.13521300  0.03236900  1
  O  O115  1  0.70763700  0.75935700  0.42954000  1
  O  O116  1  0.70763700  0.24064300  0.42954000  1
  O  O117  1  0.71976400  0.37112500  0.29030800  1
  O  O118  1  0.71976400  0.62887500  0.29030800  1
  O  O119  1  0.71753500  0.00000000  0.50577500  1
  O  O120  1  0.72753700  0.35767400  0.12115800  1
  O  O121  1  0.72753700  0.64232600  0.12115800  1
  O  O122  1  0.77541700  0.85549000  0.87849700  1
  O  O123  1  0.77541700  0.14451000  0.87849700  1
  O  O124  1  0.78137200  0.50000000  0.49631200  1
  O  O125  1  0.79060100  0.36724300  0.96431400  1
  O  O126  1  0.79060100  0.63275700  0.96431400  1
  O  O127  1  0.79116700  0.26426800  0.57336900  1
  O  O128  1  0.79116700  0.73573200  0.57336900  1
  O  O129  1  0.78421000  0.87048900  0.70877700  1
  O  O130  1  0.78421000  0.12951100  0.70877700  1
  O  O131  1  0.81701200  0.00000000  0.34614100  1
  O  O132  1  0.81683700  0.87201900  0.20475600  1
  O  O133  1  0.81683700  0.12798100  0.20475600  1
  O  O134  1  0.92594700  0.50000000  0.84303600  1
  O  O135  1  0.92492600  0.37272700  0.70687000  1
  O  O136  1  0.92492600  0.62727300  0.70687000  1
  O  O137  1  0.95769400  0.86487500  0.46448900  1
  O  O138  1  0.95769400  0.13512500  0.46448900  1
  O  O139  1  0.95733100  0.36490700  0.21838500  1
  O  O140  1  0.95733100  0.63509300  0.21838500  1
  O  O141  1  0.96168800  0.23573400  0.07358100  1
  O  O142  1  0.96168800  0.76426600  0.07358100  1
  O  O143  1  0.96616300  0.00000000  0.99519100  1
  O  O144  1  0.97090300  0.36238300  0.37684500  1
  O  O145  1  0.97090300  0.63761700  0.37684500  1
