# generated using pymatgen
data_Pr20AlSi19N33Cl2O19
_symmetry_space_group_name_H-M   'P 1'
_cell_length_a   10.62744500
_cell_length_b   11.71260800
_cell_length_c   11.29521926
_cell_angle_alpha   90.00000000
_cell_angle_beta   90.10852261
_cell_angle_gamma   90.00000000
_symmetry_Int_Tables_number   1
_chemical_formula_structural   Pr20AlSi19N33Cl2O19
_chemical_formula_sum   'Pr20 Al1 Si19 N33 Cl2 O19'
_cell_volume   1405.97099485
_cell_formula_units_Z   1
loop_
 _symmetry_equiv_pos_site_id
 _symmetry_equiv_pos_as_xyz
  1  'x, y, z'
loop_
 _atom_site_type_symbol
 _atom_site_label
 _atom_site_symmetry_multiplicity
 _atom_site_fract_x
 _atom_site_fract_y
 _atom_site_fract_z
 _atom_site_occupancy
  Pr  Pr0  1  0.99656800  0.83518300  0.00093500  1
  Pr  Pr1  1  0.10212600  0.00000000  0.36251800  1
  Pr  Pr2  1  0.13086300  0.50000000  0.11835200  1
  Pr  Pr3  1  0.13912400  0.23133500  0.60502900  1
  Pr  Pr4  1  0.13912400  0.76866500  0.60502900  1
  Pr  Pr5  1  0.35468100  0.24331500  0.10377000  1
  Pr  Pr6  1  0.35468100  0.75668500  0.10377000  1
  Pr  Pr7  1  0.37544900  0.50000000  0.61898600  1
  Pr  Pr8  1  0.38882600  0.00000000  0.87338600  1
  Pr  Pr9  1  0.50114100  0.82724200  0.49774400  1
  Pr  Pr10  1  0.50114100  0.17275800  0.49774400  1
  Pr  Pr11  1  0.63568700  0.00000000  0.12453900  1
  Pr  Pr12  1  0.64010900  0.50000000  0.38442500  1
  Pr  Pr13  1  0.64677400  0.22764500  0.89582200  1
  Pr  Pr14  1  0.64677400  0.77235500  0.89582200  1
  Pr  Pr15  1  0.85870500  0.23681700  0.40078100  1
  Pr  Pr16  1  0.85870500  0.76318300  0.40078100  1
  Pr  Pr17  1  0.87385500  0.50000000  0.88072900  1
  Pr  Pr18  1  0.86068700  0.00000000  0.62683900  1
  Pr  Pr19  1  0.99656800  0.16481700  0.00093500  1
  Al  Al20  1  0.21912200  0.00000000  0.10842400  1
  Si  Si21  1  0.11559200  0.24923600  0.25710900  1
  Si  Si22  1  0.11559200  0.75076400  0.25710900  1
  Si  Si23  1  0.14994000  0.63590000  0.85540400  1
  Si  Si24  1  0.14994000  0.36410000  0.85540400  1
  Si  Si25  1  0.29339500  0.00000000  0.61070200  1
  Si  Si26  1  0.34965600  0.63326400  0.35625200  1
  Si  Si27  1  0.34965600  0.36673600  0.35625200  1
  Si  Si28  1  0.38379800  0.75335700  0.75698100  1
  Si  Si29  1  0.38379800  0.24664300  0.75698100  1
  Si  Si30  1  0.61328000  0.24544500  0.24339500  1
  Si  Si31  1  0.61328000  0.75455500  0.24339500  1
  Si  Si32  1  0.65156300  0.63598200  0.64779200  1
  Si  Si33  1  0.65156300  0.36401800  0.64779200  1
  Si  Si34  1  0.71845100  0.00000000  0.38488700  1
  Si  Si35  1  0.78454900  0.00000000  0.89306200  1
  Si  Si36  1  0.84731900  0.63502300  0.14516200  1
  Si  Si37  1  0.84731900  0.36497700  0.14516200  1
  Si  Si38  1  0.88627800  0.75717500  0.73874700  1
  Si  Si39  1  0.88627800  0.24282500  0.73874700  1
  N  N40  1  0.02353400  0.28496400  0.80769800  1
  N  N41  1  0.02353400  0.71503600  0.80769800  1
  N  N42  1  0.10094400  0.50000000  0.88496400  1
  N  N43  1  0.17125300  0.12883800  0.18636600  1
  N  N44  1  0.17125300  0.87116200  0.18636600  1
  N  N45  1  0.22775100  0.64424300  0.25555600  1
  N  N46  1  0.22775100  0.35575700  0.25555600  1
  N  N47  1  0.26953000  0.64962600  0.75156800  1
  N  N48  1  0.26953000  0.35037400  0.75156800  1
  N  N49  1  0.33281600  0.12185200  0.68513100  1
  N  N50  1  0.33281600  0.87814800  0.68513100  1
  N  N51  1  0.40422300  0.50000000  0.39082900  1
  N  N52  1  0.47209300  0.28175200  0.30588800  1
  N  N53  1  0.47209300  0.71824800  0.30588800  1
  N  N54  1  0.52368400  0.28414300  0.69516100  1
  N  N55  1  0.52368400  0.71585700  0.69516100  1
  N  N56  1  0.60150000  0.50000000  0.61905400  1
  N  N57  1  0.61900300  0.00000000  0.90186300  1
  N  N58  1  0.66299500  0.12307600  0.31838100  1
  N  N59  1  0.66299500  0.87692400  0.31838100  1
  N  N60  1  0.72529900  0.64927800  0.24590400  1
  N  N61  1  0.72529900  0.35072200  0.24590400  1
  N  N62  1  0.77020100  0.65142600  0.75049100  1
  N  N63  1  0.77020100  0.34857400  0.75049100  1
  N  N64  1  0.83233100  0.12263100  0.81859900  1
  N  N65  1  0.83233100  0.87736900  0.81859900  1
  N  N66  1  0.84657600  0.00000000  0.03509800  1
  N  N67  1  0.87900400  0.00000000  0.40147100  1
  N  N68  1  0.89620000  0.50000000  0.11011800  1
  N  N69  1  0.91972100  0.19790300  0.59935000  1
  N  N70  1  0.91972100  0.80209700  0.59935000  1
  N  N71  1  0.97476800  0.28615800  0.19461500  1
  N  N72  1  0.97476800  0.71384200  0.19461500  1
  Cl  Cl73  1  0.42288500  0.50000000  0.05078500  1
  Cl  Cl74  1  0.92051700  0.50000000  0.45072700  1
  O  O75  1  0.08623000  0.20595100  0.39606800  1
  O  O76  1  0.08623000  0.79404900  0.39606800  1
  O  O77  1  0.13843700  0.00000000  0.58115800  1
  O  O78  1  0.15066700  0.00000000  0.96366200  1
  O  O79  1  0.18187100  0.68661100  0.99085100  1
  O  O80  1  0.18187100  0.31338900  0.99085100  1
  O  O81  1  0.31792400  0.31413300  0.49185900  1
  O  O82  1  0.31792400  0.68586700  0.49185900  1
  O  O83  1  0.36061600  0.00000000  0.47751500  1
  O  O84  1  0.38616000  0.00000000  0.08379600  1
  O  O85  1  0.41549300  0.20524600  0.89586500  1
  O  O86  1  0.41549300  0.79475400  0.89586500  1
  O  O87  1  0.58106300  0.20247100  0.10480400  1
  O  O88  1  0.58106300  0.79752900  0.10480400  1
  O  O89  1  0.65187800  0.00000000  0.52281900  1
  O  O90  1  0.67658700  0.31272200  0.51061300  1
  O  O91  1  0.67658700  0.68727800  0.51061300  1
  O  O92  1  0.81407400  0.68735300  0.00995600  1
  O  O93  1  0.81407400  0.31264700  0.00995600  1
