# generated using pymatgen
data_CaTiSiO5
_symmetry_space_group_name_H-M   'P 1'
_cell_length_a   7.49230600
_cell_length_b   9.28207300
_cell_length_c   9.92182828
_cell_angle_alpha   90.00000000
_cell_angle_beta   129.43075745
_cell_angle_gamma   90.00000000
_symmetry_Int_Tables_number   1
_chemical_formula_structural   CaTiSiO5
_chemical_formula_sum   'Ca4 Ti4 Si4 O20'
_cell_volume   532.95478780
_cell_formula_units_Z   4
loop_
 _symmetry_equiv_pos_site_id
 _symmetry_equiv_pos_as_xyz
  1  'x, y, z'
loop_
 _atom_site_type_symbol
 _atom_site_label
 _atom_site_symmetry_multiplicity
 _atom_site_fract_x
 _atom_site_fract_y
 _atom_site_fract_z
 _atom_site_occupancy
  Ca  Ca0  1  0.61156800  0.61122800  0.68139500  1
  Ca  Ca1  1  0.61156800  0.88877200  0.18139500  1
  Ca  Ca2  1  0.38843200  0.11122800  0.81860500  1
  Ca  Ca3  1  0.38843200  0.38877200  0.31860500  1
  Ti  Ti4  1  0.04072200  0.81390100  0.71432500  1
  Ti  Ti5  1  0.95927800  0.31390100  0.78567500  1
  Ti  Ti6  1  0.04072200  0.68609900  0.21432500  1
  Ti  Ti7  1  0.95927800  0.18609900  0.28567500  1
  Si  Si8  1  0.27029900  0.00183500  0.29764200  1
  Si  Si9  1  0.72970100  0.99816500  0.70235800  1
  Si  Si10  1  0.27029900  0.49816500  0.79764200  1
  Si  Si11  1  0.72970100  0.50183500  0.20235800  1
  O  O12  1  0.32226200  0.88925400  0.87791900  1
  O  O13  1  0.32226200  0.61074600  0.37791900  1
  O  O14  1  0.17119100  0.11715400  0.51889800  1
  O  O15  1  0.93273400  0.37509400  0.33102200  1
  O  O16  1  0.86642100  0.49018000  0.09164300  1
  O  O17  1  0.06726600  0.62490600  0.66897800  1
  O  O18  1  0.06726600  0.87509400  0.16897800  1
  O  O19  1  0.16298300  0.32381500  0.73348200  1
  O  O20  1  0.67773800  0.11074600  0.12208100  1
  O  O21  1  0.82880900  0.61715400  0.98110200  1
  O  O22  1  0.17119100  0.38284600  0.01889800  1
  O  O23  1  0.13357900  0.99018000  0.40835700  1
  O  O24  1  0.16298300  0.17618500  0.23348200  1
  O  O25  1  0.86642100  0.00982000  0.59164300  1
  O  O26  1  0.82880900  0.88284600  0.48110200  1
  O  O27  1  0.13357900  0.50982000  0.90835700  1
  O  O28  1  0.93273400  0.12490600  0.83102200  1
  O  O29  1  0.83701700  0.67618500  0.26651800  1
  O  O30  1  0.67773800  0.38925400  0.62208100  1
  O  O31  1  0.83701700  0.82381500  0.76651800  1
