# generated using pymatgen
data_K3Na3TeP6(HO4)6
_symmetry_space_group_name_H-M   'P 1'
_cell_length_a   11.00100782
_cell_length_b   11.00100782
_cell_length_c   33.05361517
_cell_angle_alpha   90.00000000
_cell_angle_beta   90.00000000
_cell_angle_gamma   120.00000000
_symmetry_Int_Tables_number   1
_chemical_formula_structural   K3Na3TeP6(HO4)6
_chemical_formula_sum   'K18 Na18 Te6 P36 H36 O144'
_cell_volume   3464.29242935
_cell_formula_units_Z   6
loop_
 _symmetry_equiv_pos_site_id
 _symmetry_equiv_pos_as_xyz
  1  'x, y, z'
loop_
 _atom_site_type_symbol
 _atom_site_label
 _atom_site_symmetry_multiplicity
 _atom_site_fract_x
 _atom_site_fract_y
 _atom_site_fract_z
 _atom_site_occupancy
  K  K0  1  0.62589000  0.00000000  0.25000000  1
  K  K1  1  0.00000000  0.62589000  0.25000000  1
  K  K2  1  0.37411000  0.37411000  0.25000000  1
  K  K3  1  0.29255667  0.95922333  0.08333333  1
  K  K4  1  0.04077667  0.33333333  0.08333333  1
  K  K5  1  0.66666667  0.70744333  0.08333333  1
  K  K6  1  0.29255667  0.33333333  0.58333333  1
  K  K7  1  0.66666667  0.95922333  0.58333333  1
  K  K8  1  0.04077667  0.70744333  0.58333333  1
  K  K9  1  0.95922333  0.29255667  0.41666667  1
  K  K10  1  0.70744333  0.66666667  0.41666667  1
  K  K11  1  0.33333333  0.04077667  0.41666667  1
  K  K12  1  0.95922333  0.66666667  0.91666667  1
  K  K13  1  0.33333333  0.29255667  0.91666667  1
  K  K14  1  0.70744333  0.04077667  0.91666667  1
  K  K15  1  0.62589000  0.62589000  0.75000000  1
  K  K16  1  0.37411000  0.00000000  0.75000000  1
  K  K17  1  0.00000000  0.37411000  0.75000000  1
  Na  Na18  1  0.00000000  0.19666800  0.25000000  1
  Na  Na19  1  0.80333200  0.80333200  0.25000000  1
  Na  Na20  1  0.19666800  0.00000000  0.25000000  1
  Na  Na21  1  0.66666667  0.13666533  0.08333333  1
  Na  Na22  1  0.86333467  0.53000133  0.08333333  1
  Na  Na23  1  0.46999867  0.33333333  0.08333333  1
  Na  Na24  1  0.66666667  0.53000133  0.58333333  1
  Na  Na25  1  0.46999867  0.13666533  0.58333333  1
  Na  Na26  1  0.86333467  0.33333333  0.58333333  1
  Na  Na27  1  0.33333333  0.46999867  0.41666667  1
  Na  Na28  1  0.53000133  0.86333467  0.41666667  1
  Na  Na29  1  0.13666533  0.66666667  0.41666667  1
  Na  Na30  1  0.33333333  0.86333467  0.91666667  1
  Na  Na31  1  0.13666533  0.46999867  0.91666667  1
  Na  Na32  1  0.53000133  0.66666667  0.91666667  1
  Na  Na33  1  0.00000000  0.80333200  0.75000000  1
  Na  Na34  1  0.19666800  0.19666800  0.75000000  1
  Na  Na35  1  0.80333200  0.00000000  0.75000000  1
  Te  Te36  1  0.33333333  0.66666667  0.16666667  1
  Te  Te37  1  0.00000000  0.00000000  0.00000000  1
  Te  Te38  1  1.00000000  0.00000000  0.50000000  1
  Te  Te39  1  0.66666667  0.33333333  0.33333333  1
  Te  Te40  1  0.66666667  0.33333333  0.83333333  1
  Te  Te41  1  0.33333333  0.66666667  0.66666667  1
  P  P42  1  0.18084467  0.66726933  0.00678433  1
  P  P43  1  0.33273067  0.51357533  0.00678433  1
  P  P44  1  0.48642467  0.81915533  0.00678433  1
  P  P45  1  0.51417800  0.18024200  0.17345100  1
  P  P46  1  0.81975800  0.33393600  0.17345100  1
  P  P47  1  0.66606400  0.48582200  0.17345100  1
  P  P48  1  0.48582200  0.66606400  0.32654900  1
  P  P49  1  0.33393600  0.81975800  0.32654900  1
  P  P50  1  0.18024200  0.51417800  0.32654900  1
  P  P51  1  0.15248867  0.15309133  0.15988233  1
  P  P52  1  0.84690867  0.99939733  0.15988233  1
  P  P53  1  0.00060267  0.84751133  0.15988233  1
  P  P54  1  0.84751133  0.00060267  0.34011767  1
  P  P55  1  0.99939733  0.84690867  0.34011767  1
  P  P56  1  0.15309133  0.15248867  0.34011767  1
  P  P57  1  0.18084467  0.51357533  0.50678433  1
  P  P58  1  0.48642467  0.66726933  0.50678433  1
  P  P59  1  0.33273067  0.81915533  0.50678433  1
  P  P60  1  0.15248867  0.99939733  0.65988233  1
  P  P61  1  0.00060267  0.15309133  0.65988233  1
  P  P62  1  0.84690867  0.84751133  0.65988233  1
  P  P63  1  0.81915533  0.48642467  0.49321567  1
  P  P64  1  0.51357533  0.33273067  0.49321567  1
  P  P65  1  0.66726933  0.18084467  0.49321567  1
  P  P66  1  0.51417800  0.33393600  0.67345100  1
  P  P67  1  0.66606400  0.18024200  0.67345100  1
  P  P68  1  0.81975800  0.48582200  0.67345100  1
  P  P69  1  0.84751133  0.84690867  0.84011767  1
  P  P70  1  0.15309133  0.00060267  0.84011767  1
  P  P71  1  0.99939733  0.15248867  0.84011767  1
  P  P72  1  0.81915533  0.33273067  0.99321567  1
  P  P73  1  0.66726933  0.48642467  0.99321567  1
  P  P74  1  0.51357533  0.18084467  0.99321567  1
  P  P75  1  0.48582200  0.81975800  0.82654900  1
  P  P76  1  0.18024200  0.66606400  0.82654900  1
  P  P77  1  0.33393600  0.51417800  0.82654900  1
  H  H78  1  0.57025100  0.83631600  0.13907700  1
  H  H79  1  0.16368400  0.73393500  0.13907700  1
  H  H80  1  0.26606500  0.42974900  0.13907700  1
  H  H81  1  0.90358433  0.40060167  0.30574367  1
  H  H82  1  0.59939833  0.50298267  0.30574367  1
  H  H83  1  0.49701733  0.09641567  0.30574367  1
  H  H84  1  0.09641567  0.49701733  0.19425633  1
  H  H85  1  0.50298267  0.59939833  0.19425633  1
  H  H86  1  0.40060167  0.90358433  0.19425633  1
  H  H87  1  0.76308233  0.93273167  0.02758967  1
  H  H88  1  0.06726833  0.83035067  0.02758967  1
  H  H89  1  0.16964933  0.23691767  0.02758967  1
  H  H90  1  0.23691767  0.16964933  0.47241033  1
  H  H91  1  0.83035067  0.06726833  0.47241033  1
  H  H92  1  0.93273167  0.76308233  0.47241033  1
  H  H93  1  0.57025100  0.73393500  0.63907700  1
  H  H94  1  0.26606500  0.83631600  0.63907700  1
  H  H95  1  0.16368400  0.42974900  0.63907700  1
  H  H96  1  0.76308233  0.83035067  0.52758967  1
  H  H97  1  0.16964933  0.93273167  0.52758967  1
  H  H98  1  0.06726833  0.23691767  0.52758967  1
  H  H99  1  0.42974900  0.26606500  0.36092300  1
  H  H100  1  0.73393500  0.16368400  0.36092300  1
  H  H101  1  0.83631600  0.57025100  0.36092300  1
  H  H102  1  0.90358433  0.50298267  0.80574367  1
  H  H103  1  0.49701733  0.40060167  0.80574367  1
  H  H104  1  0.59939833  0.09641567  0.80574367  1
  H  H105  1  0.23691767  0.06726833  0.97241033  1
  H  H106  1  0.93273167  0.16964933  0.97241033  1
  H  H107  1  0.83035067  0.76308233  0.97241033  1
  H  H108  1  0.42974900  0.16368400  0.86092300  1
  H  H109  1  0.83631600  0.26606500  0.86092300  1
  H  H110  1  0.73393500  0.57025100  0.86092300  1
  H  H111  1  0.09641567  0.59939833  0.69425633  1
  H  H112  1  0.40060167  0.49701733  0.69425633  1
  H  H113  1  0.50298267  0.90358433  0.69425633  1
  O  O114  1  0.26229333  0.76028667  0.13229467  1
  O  O115  1  0.23971333  0.50200667  0.13229467  1
  O  O116  1  0.49799333  0.73770667  0.13229467  1
  O  O117  1  0.59562667  0.16867333  0.29896133  1
  O  O118  1  0.83132667  0.42695333  0.29896133  1
  O  O119  1  0.57304667  0.40437333  0.29896133  1
  O  O120  1  0.40437333  0.57304667  0.20103867  1
  O  O121  1  0.42695333  0.83132667  0.20103867  1
  O  O122  1  0.16867333  0.59562667  0.20103867  1
  O  O123  1  0.07104000  0.16466000  0.03437200  1
  O  O124  1  0.83534000  0.90638000  0.03437200  1
  O  O125  1  0.09362000  0.92896000  0.03437200  1
  O  O126  1  0.07409533  0.67081767  0.03412167  1
  O  O127  1  0.32918233  0.40327767  0.03412167  1
  O  O128  1  0.59672233  0.92590467  0.03412167  1
  O  O129  1  0.40742867  0.06994433  0.20078833  1
  O  O130  1  0.93005567  0.33748433  0.20078833  1
  O  O131  1  0.66251567  0.59257133  0.20078833  1
  O  O132  1  0.59257133  0.66251567  0.29921167  1
  O  O133  1  0.33748433  0.93005567  0.29921167  1
  O  O134  1  0.06994433  0.40742867  0.29921167  1
  O  O135  1  0.25923800  0.26338900  0.13254500  1
  O  O136  1  0.73661100  0.99584900  0.13254500  1
  O  O137  1  0.00415100  0.74076200  0.13254500  1
  O  O138  1  0.83221500  0.00265700  0.29496100  1
  O  O139  1  0.99734300  0.82955800  0.29496100  1
  O  O140  1  0.17044200  0.16778500  0.29496100  1
  O  O141  1  0.49888167  0.16289133  0.12829433  1
  O  O142  1  0.83710867  0.33599033  0.12829433  1
  O  O143  1  0.66400967  0.50111833  0.12829433  1
  O  O144  1  0.83445167  0.33067633  0.03837233  1
  O  O145  1  0.66932367  0.50377533  0.03837233  1
  O  O146  1  0.49622467  0.16554833  0.03837233  1
  O  O147  1  0.16778500  0.17044200  0.20503900  1
  O  O148  1  0.82955800  0.99734300  0.20503900  1
  O  O149  1  0.00265700  0.83221500  0.20503900  1
  O  O150  1  0.33447667  0.79947933  0.02010333  1
  O  O151  1  0.20052067  0.53499733  0.02010333  1
  O  O152  1  0.46500267  0.66552333  0.02010333  1
  O  O153  1  0.66781000  0.20166400  0.18677000  1
  O  O154  1  0.79833600  0.46614600  0.18677000  1
  O  O155  1  0.53385400  0.33219000  0.18677000  1
  O  O156  1  0.33219000  0.53385400  0.31323000  1
  O  O157  1  0.46614600  0.79833600  0.31323000  1
  O  O158  1  0.20166400  0.66781000  0.31323000  1
  O  O159  1  0.99885667  0.13166933  0.14656333  1
  O  O160  1  0.86833067  0.86718733  0.14656333  1
  O  O161  1  0.13281267  0.00114333  0.14656333  1
  O  O162  1  0.92896000  0.09362000  0.46562800  1
  O  O163  1  0.90638000  0.83534000  0.46562800  1
  O  O164  1  0.16466000  0.07104000  0.46562800  1
  O  O165  1  0.26229333  0.50200667  0.63229467  1
  O  O166  1  0.49799333  0.76028667  0.63229467  1
  O  O167  1  0.23971333  0.73770667  0.63229467  1
  O  O168  1  0.07104000  0.90638000  0.53437200  1
  O  O169  1  0.09362000  0.16466000  0.53437200  1
  O  O170  1  0.83534000  0.92896000  0.53437200  1
  O  O171  1  0.73770667  0.49799333  0.36770533  1
  O  O172  1  0.50200667  0.23971333  0.36770533  1
  O  O173  1  0.76028667  0.26229333  0.36770533  1
  O  O174  1  0.74076200  0.00415100  0.36745500  1
  O  O175  1  0.99584900  0.73661100  0.36745500  1
  O  O176  1  0.26338900  0.25923800  0.36745500  1
  O  O177  1  0.07409533  0.40327767  0.53412167  1
  O  O178  1  0.59672233  0.67081767  0.53412167  1
  O  O179  1  0.32918233  0.92590467  0.53412167  1
  O  O180  1  0.25923800  0.99584900  0.63254500  1
  O  O181  1  0.00415100  0.26338900  0.63254500  1
  O  O182  1  0.73661100  0.74076200  0.63254500  1
  O  O183  1  0.92590467  0.59672233  0.46587833  1
  O  O184  1  0.40327767  0.32918233  0.46587833  1
  O  O185  1  0.67081767  0.07409533  0.46587833  1
  O  O186  1  0.49888167  0.33599033  0.62829433  1
  O  O187  1  0.66400967  0.16289133  0.62829433  1
  O  O188  1  0.83710867  0.50111833  0.62829433  1
  O  O189  1  0.16554833  0.49622467  0.46162767  1
  O  O190  1  0.50377533  0.66932367  0.46162767  1
  O  O191  1  0.33067633  0.83445167  0.46162767  1
  O  O192  1  0.50111833  0.66400967  0.37170567  1
  O  O193  1  0.33599033  0.83710867  0.37170567  1
  O  O194  1  0.16289133  0.49888167  0.37170567  1
  O  O195  1  0.83445167  0.50377533  0.53837233  1
  O  O196  1  0.49622467  0.33067633  0.53837233  1
  O  O197  1  0.66932367  0.16554833  0.53837233  1
  O  O198  1  0.00114333  0.13281267  0.35343667  1
  O  O199  1  0.86718733  0.86833067  0.35343667  1
  O  O200  1  0.13166933  0.99885667  0.35343667  1
  O  O201  1  0.33447667  0.53499733  0.52010333  1
  O  O202  1  0.46500267  0.79947933  0.52010333  1
  O  O203  1  0.20052067  0.66552333  0.52010333  1
  O  O204  1  0.99885667  0.86718733  0.64656333  1
  O  O205  1  0.13281267  0.13166933  0.64656333  1
  O  O206  1  0.86833067  0.00114333  0.64656333  1
  O  O207  1  0.66552333  0.46500267  0.47989667  1
  O  O208  1  0.53499733  0.20052067  0.47989667  1
  O  O209  1  0.79947933  0.33447667  0.47989667  1
  O  O210  1  0.59562667  0.42695333  0.79896133  1
  O  O211  1  0.57304667  0.16867333  0.79896133  1
  O  O212  1  0.83132667  0.40437333  0.79896133  1
  O  O213  1  0.92896000  0.83534000  0.96562800  1
  O  O214  1  0.16466000  0.09362000  0.96562800  1
  O  O215  1  0.90638000  0.07104000  0.96562800  1
  O  O216  1  0.73770667  0.23971333  0.86770533  1
  O  O217  1  0.76028667  0.49799333  0.86770533  1
  O  O218  1  0.50200667  0.26229333  0.86770533  1
  O  O219  1  0.40437333  0.83132667  0.70103867  1
  O  O220  1  0.16867333  0.57304667  0.70103867  1
  O  O221  1  0.42695333  0.59562667  0.70103867  1
  O  O222  1  0.40742867  0.33748433  0.70078833  1
  O  O223  1  0.66251567  0.06994433  0.70078833  1
  O  O224  1  0.93005567  0.59257133  0.70078833  1
  O  O225  1  0.74076200  0.73661100  0.86745500  1
  O  O226  1  0.26338900  0.00415100  0.86745500  1
  O  O227  1  0.99584900  0.25923800  0.86745500  1
  O  O228  1  0.92590467  0.32918233  0.96587833  1
  O  O229  1  0.67081767  0.59672233  0.96587833  1
  O  O230  1  0.40327767  0.07409533  0.96587833  1
  O  O231  1  0.59257133  0.93005567  0.79921167  1
  O  O232  1  0.06994433  0.66251567  0.79921167  1
  O  O233  1  0.33748433  0.40742867  0.79921167  1
  O  O234  1  0.16554833  0.66932367  0.96162767  1
  O  O235  1  0.33067633  0.49622467  0.96162767  1
  O  O236  1  0.50377533  0.83445167  0.96162767  1
  O  O237  1  0.83221500  0.82955800  0.79496100  1
  O  O238  1  0.17044200  0.00265700  0.79496100  1
  O  O239  1  0.99734300  0.16778500  0.79496100  1
  O  O240  1  0.16778500  0.99734300  0.70503900  1
  O  O241  1  0.00265700  0.17044200  0.70503900  1
  O  O242  1  0.82955800  0.83221500  0.70503900  1
  O  O243  1  0.50111833  0.83710867  0.87170567  1
  O  O244  1  0.16289133  0.66400967  0.87170567  1
  O  O245  1  0.33599033  0.49888167  0.87170567  1
  O  O246  1  0.66781000  0.46614600  0.68677000  1
  O  O247  1  0.53385400  0.20166400  0.68677000  1
  O  O248  1  0.79833600  0.33219000  0.68677000  1
  O  O249  1  0.00114333  0.86833067  0.85343667  1
  O  O250  1  0.13166933  0.13281267  0.85343667  1
  O  O251  1  0.86718733  0.99885667  0.85343667  1
  O  O252  1  0.66552333  0.20052067  0.97989667  1
  O  O253  1  0.79947933  0.46500267  0.97989667  1
  O  O254  1  0.53499733  0.33447667  0.97989667  1
  O  O255  1  0.33219000  0.79833600  0.81323000  1
  O  O256  1  0.20166400  0.53385400  0.81323000  1
  O  O257  1  0.46614600  0.66781000  0.81323000  1
