# generated using pymatgen
data_Rb2S2O7
_symmetry_space_group_name_H-M   'P 1'
_cell_length_a   12.92837400
_cell_length_b   7.69497200
_cell_length_c   7.76284611
_cell_angle_alpha   90.00000000
_cell_angle_beta   95.32237377
_cell_angle_gamma   90.00000000
_symmetry_Int_Tables_number   1
_chemical_formula_structural   Rb2S2O7
_chemical_formula_sum   'Rb8 S8 O28'
_cell_volume   768.94529078
_cell_formula_units_Z   4
loop_
 _symmetry_equiv_pos_site_id
 _symmetry_equiv_pos_as_xyz
  1  'x, y, z'
loop_
 _atom_site_type_symbol
 _atom_site_label
 _atom_site_symmetry_multiplicity
 _atom_site_fract_x
 _atom_site_fract_y
 _atom_site_fract_z
 _atom_site_occupancy
  Rb  Rb0  1  0.35658450  0.65148750  0.65075700  1
  Rb  Rb1  1  0.35658450  0.34851250  0.15075700  1
  Rb  Rb2  1  0.64341550  0.65148750  0.84924300  1
  Rb  Rb3  1  0.64341550  0.34851250  0.34924300  1
  Rb  Rb4  1  0.85658450  0.15148750  0.65075700  1
  Rb  Rb5  1  0.85658450  0.84851250  0.15075700  1
  Rb  Rb6  1  0.14341550  0.15148750  0.84924300  1
  Rb  Rb7  1  0.14341550  0.84851250  0.34924300  1
  S  S8  1  0.39864500  0.18110200  0.64382200  1
  S  S9  1  0.39864500  0.81889800  0.14382200  1
  S  S10  1  0.60135500  0.18110200  0.85617800  1
  S  S11  1  0.60135500  0.81889800  0.35617800  1
  S  S12  1  0.89864500  0.68110200  0.64382200  1
  S  S13  1  0.89864500  0.31889800  0.14382200  1
  S  S14  1  0.10135500  0.68110200  0.85617800  1
  S  S15  1  0.10135500  0.31889800  0.35617800  1
  O  O16  1  0.33691050  0.03501250  0.57484100  1
  O  O17  1  0.33691050  0.96498750  0.07484100  1
  O  O18  1  0.34994400  0.28216400  0.77426500  1
  O  O19  1  0.34994400  0.71783600  0.27426500  1
  O  O20  1  0.44161750  0.70869050  0.01427500  1
  O  O21  1  0.44161750  0.29130950  0.51427500  1
  O  O22  1  0.50000000  0.07779700  0.75000000  1
  O  O23  1  0.50000000  0.92220300  0.25000000  1
  O  O24  1  0.55838250  0.70869050  0.48572500  1
  O  O25  1  0.55838250  0.29130950  0.98572500  1
  O  O26  1  0.65005600  0.28216400  0.72573500  1
  O  O27  1  0.65005600  0.71783600  0.22573500  1
  O  O28  1  0.66308950  0.03501250  0.92515900  1
  O  O29  1  0.66308950  0.96498750  0.42515900  1
  O  O30  1  0.83691050  0.53501250  0.57484100  1
  O  O31  1  0.83691050  0.46498750  0.07484100  1
  O  O32  1  0.84994400  0.78216400  0.77426500  1
  O  O33  1  0.84994400  0.21783600  0.27426500  1
  O  O34  1  0.94161750  0.20869050  0.01427500  1
  O  O35  1  0.94161750  0.79130950  0.51427500  1
  O  O36  1  0.00000000  0.57779700  0.75000000  1
  O  O37  1  0.00000000  0.42220300  0.25000000  1
  O  O38  1  0.05838250  0.20869050  0.48572500  1
  O  O39  1  0.05838250  0.79130950  0.98572500  1
  O  O40  1  0.15005600  0.78216400  0.72573500  1
  O  O41  1  0.15005600  0.21783600  0.22573500  1
  O  O42  1  0.16308950  0.53501250  0.92515900  1
  O  O43  1  0.16308950  0.46498750  0.42515900  1
