# generated using pymatgen
data_Ba3(ClO)2
_symmetry_space_group_name_H-M   'P 1'
_cell_length_a   12.36027300
_cell_length_b   10.60025700
_cell_length_c   14.37400555
_cell_angle_alpha   90.00000000
_cell_angle_beta   112.11465542
_cell_angle_gamma   90.00000000
_symmetry_Int_Tables_number   1
_chemical_formula_structural   Ba3(ClO)2
_chemical_formula_sum   'Ba24 Cl16 O16'
_cell_volume   1744.76116532
_cell_formula_units_Z   8
loop_
 _symmetry_equiv_pos_site_id
 _symmetry_equiv_pos_as_xyz
  1  'x, y, z'
loop_
 _atom_site_type_symbol
 _atom_site_label
 _atom_site_symmetry_multiplicity
 _atom_site_fract_x
 _atom_site_fract_y
 _atom_site_fract_z
 _atom_site_occupancy
  Ba  Ba0  1  0.97814600  0.17618500  0.36542900  1
  Ba  Ba1  1  0.90367000  0.58630500  0.37749600  1
  Ba  Ba2  1  0.79667600  0.88864300  0.14698400  1
  Ba  Ba3  1  0.97814600  0.32381500  0.86542900  1
  Ba  Ba4  1  0.66550300  0.52178300  0.07789100  1
  Ba  Ba5  1  0.90367000  0.91369500  0.87749600  1
  Ba  Ba6  1  0.79667600  0.61135700  0.64698400  1
  Ba  Ba7  1  0.56647400  0.06576400  0.26872000  1
  Ba  Ba8  1  0.66550300  0.97821700  0.57789100  1
  Ba  Ba9  1  0.42960500  0.84240900  0.01569100  1
  Ba  Ba10  1  0.57039500  0.34240900  0.48430900  1
  Ba  Ba11  1  0.43352600  0.56576400  0.23128000  1
  Ba  Ba12  1  0.56647400  0.43423600  0.76872000  1
  Ba  Ba13  1  0.42960500  0.65759100  0.51569100  1
  Ba  Ba14  1  0.57039500  0.15759100  0.98430900  1
  Ba  Ba15  1  0.33449700  0.02178300  0.42210900  1
  Ba  Ba16  1  0.43352600  0.93423600  0.73128000  1
  Ba  Ba17  1  0.20332400  0.38864300  0.35301600  1
  Ba  Ba18  1  0.09633000  0.08630500  0.12250400  1
  Ba  Ba19  1  0.33449700  0.47821700  0.92210900  1
  Ba  Ba20  1  0.02185400  0.67618500  0.13457100  1
  Ba  Ba21  1  0.20332400  0.11135700  0.85301600  1
  Ba  Ba22  1  0.09633000  0.41369500  0.62250400  1
  Ba  Ba23  1  0.02185400  0.82381500  0.63457100  1
  Cl  Cl24  1  0.84844900  0.21474500  0.12720300  1
  Cl  Cl25  1  0.84035100  0.93398700  0.38677100  1
  Cl  Cl26  1  0.84844900  0.28525500  0.62720300  1
  Cl  Cl27  1  0.67464000  0.38082700  0.29765500  1
  Cl  Cl28  1  0.84035100  0.56601300  0.88677100  1
  Cl  Cl29  1  0.61658800  0.73204500  0.41363200  1
  Cl  Cl30  1  0.67464000  0.11917300  0.79765500  1
  Cl  Cl31  1  0.38341200  0.23204500  0.08636800  1
  Cl  Cl32  1  0.61658800  0.76795500  0.91363200  1
  Cl  Cl33  1  0.32536000  0.88082700  0.20234500  1
  Cl  Cl34  1  0.38341200  0.26795500  0.58636800  1
  Cl  Cl35  1  0.15964900  0.43398700  0.11322900  1
  Cl  Cl36  1  0.32536000  0.61917300  0.70234500  1
  Cl  Cl37  1  0.15155100  0.71474500  0.37279700  1
  Cl  Cl38  1  0.15964900  0.06601300  0.61322900  1
  Cl  Cl39  1  0.15155100  0.78525500  0.87279700  1
  O  O40  1  0.96352500  0.89340400  0.07329800  1
  O  O41  1  0.85061100  0.65590400  0.18503800  1
  O  O42  1  0.96352500  0.60659600  0.57329800  1
  O  O43  1  0.85061100  0.84409600  0.68503800  1
  O  O44  1  0.59758600  0.97742300  0.11864500  1
  O  O45  1  0.47383700  0.60880000  0.07374600  1
  O  O46  1  0.52616300  0.10880000  0.42625400  1
  O  O47  1  0.59758600  0.52257700  0.61864500  1
  O  O48  1  0.40241400  0.47742300  0.38135500  1
  O  O49  1  0.47383700  0.89120000  0.57374600  1
  O  O50  1  0.52616300  0.39120000  0.92625400  1
  O  O51  1  0.40241400  0.02257700  0.88135500  1
  O  O52  1  0.14938900  0.15590400  0.31496200  1
  O  O53  1  0.03647500  0.39340400  0.42670200  1
  O  O54  1  0.14938900  0.34409600  0.81496200  1
  O  O55  1  0.03647500  0.10659600  0.92670200  1
