# generated using pymatgen
data_LiMnF3
_symmetry_space_group_name_H-M   'P 1'
_cell_length_a   14.91934985
_cell_length_b   14.91934985
_cell_length_c   7.65362064
_cell_angle_alpha   90.00000000
_cell_angle_beta   90.00000000
_cell_angle_gamma   120.00000000
_symmetry_Int_Tables_number   1
_chemical_formula_structural   LiMnF3
_chemical_formula_sum   'Li18 Mn18 F54'
_cell_volume   1475.35780973
_cell_formula_units_Z   18
loop_
 _symmetry_equiv_pos_site_id
 _symmetry_equiv_pos_as_xyz
  1  'x, y, z'
loop_
 _atom_site_type_symbol
 _atom_site_label
 _atom_site_symmetry_multiplicity
 _atom_site_fract_x
 _atom_site_fract_y
 _atom_site_fract_z
 _atom_site_occupancy
  Li  Li0  1  0.16524100  0.98364400  0.89928800  1
  Li  Li1  1  0.18159700  0.16524100  0.10071200  1
  Li  Li2  1  0.31697733  0.48506967  0.76737867  1
  Li  Li3  1  0.34968933  0.84826367  0.56595467  1
  Li  Li4  1  0.48506967  0.16809233  0.23262133  1
  Li  Li5  1  0.50142567  0.34968933  0.43404533  1
  Li  Li6  1  0.83190767  0.31697733  0.23262133  1
  Li  Li7  1  0.84826367  0.49857433  0.43404533  1
  Li  Li8  1  0.98364400  0.81840300  0.10071200  1
  Li  Li9  1  0.01635600  0.18159700  0.89928800  1
  Li  Li10  1  0.15173633  0.50142567  0.56595467  1
  Li  Li11  1  0.16809233  0.68302267  0.76737867  1
  Li  Li12  1  0.49857433  0.65031067  0.56595467  1
  Li  Li13  1  0.51493033  0.83190767  0.76737867  1
  Li  Li14  1  0.65031067  0.15173633  0.43404533  1
  Li  Li15  1  0.68302267  0.51493033  0.23262133  1
  Li  Li16  1  0.81840300  0.83475900  0.89928800  1
  Li  Li17  1  0.83475900  0.01635600  0.10071200  1
  Mn  Mn18  1  0.37992300  0.92850400  0.93464600  1
  Mn  Mn19  1  0.26183733  0.21524767  0.73202067  1
  Mn  Mn20  1  0.45141900  0.37992300  0.06535400  1
  Mn  Mn21  1  0.21524767  0.95341033  0.26797933  1
  Mn  Mn22  1  0.40482933  0.11808567  0.60131267  1
  Mn  Mn23  1  0.28674367  0.40482933  0.39868733  1
  Mn  Mn24  1  0.04658967  0.26183733  0.26797933  1
  Mn  Mn25  1  0.92850400  0.54858100  0.06535400  1
  Mn  Mn26  1  0.11808567  0.71325633  0.39868733  1
  Mn  Mn27  1  0.88191433  0.28674367  0.60131267  1
  Mn  Mn28  1  0.07149600  0.45141900  0.93464600  1
  Mn  Mn29  1  0.95341033  0.73816267  0.73202067  1
  Mn  Mn30  1  0.71325633  0.59517067  0.60131267  1
  Mn  Mn31  1  0.59517067  0.88191433  0.39868733  1
  Mn  Mn32  1  0.78475233  0.04658967  0.73202067  1
  Mn  Mn33  1  0.54858100  0.62007700  0.93464600  1
  Mn  Mn34  1  0.73816267  0.78475233  0.26797933  1
  Mn  Mn35  1  0.62007700  0.07149600  0.06535400  1
  F  F36  1  0.36395967  0.54234333  0.53125033  1
  F  F37  1  0.40595500  0.98734800  0.67871200  1
  F  F38  1  0.15494967  0.03062633  0.13541633  1
  F  F39  1  0.25395000  0.07027700  0.71130200  1
  F  F40  1  0.18367300  0.25395000  0.28869800  1
  F  F41  1  0.32068133  0.24805967  0.98795467  1
  F  F42  1  0.41860700  0.40595500  0.32128800  1
  F  F43  1  0.54234333  0.17838367  0.46874967  1
  F  F44  1  0.40361033  0.48299367  0.95536467  1
  F  F45  1  0.26305633  0.85033967  0.37796867  1
  F  F46  1  0.12432333  0.15494967  0.86458367  1
  F  F47  1  0.24805967  0.92737833  0.01204533  1
  F  F48  1  0.34598533  0.08527367  0.34537867  1
  F  F49  1  0.48299367  0.07938333  0.04463533  1
  F  F50  1  0.41271667  0.26305633  0.62203133  1
  F  F51  1  0.51171700  0.30270700  0.19791700  1
  F  F52  1  0.26071167  0.34598533  0.65462133  1
  F  F53  1  0.30270700  0.79099000  0.80208300  1
  F  F54  1  0.03062633  0.87567667  0.86458367  1
  F  F55  1  0.07262167  0.32068133  0.01204533  1
  F  F56  1  0.82161633  0.36395967  0.46874967  1
  F  F57  1  0.92061667  0.40361033  0.04463533  1
  F  F58  1  0.85033967  0.58728333  0.62203133  1
  F  F59  1  0.98734800  0.58139300  0.32128800  1
  F  F60  1  0.08527367  0.73928833  0.65462133  1
  F  F61  1  0.20901000  0.51171700  0.80208300  1
  F  F62  1  0.07027700  0.81632700  0.28869800  1
  F  F63  1  0.92972300  0.18367300  0.71130200  1
  F  F64  1  0.79099000  0.48828300  0.19791700  1
  F  F65  1  0.91472633  0.26071167  0.34537867  1
  F  F66  1  0.01265200  0.41860700  0.67871200  1
  F  F67  1  0.14966033  0.41271667  0.37796867  1
  F  F68  1  0.07938333  0.59638967  0.95536467  1
  F  F69  1  0.17838367  0.63604033  0.53125033  1
  F  F70  1  0.92737833  0.67931867  0.98795467  1
  F  F71  1  0.96937367  0.12432333  0.13541633  1
  F  F72  1  0.69729300  0.20901000  0.19791700  1
  F  F73  1  0.73928833  0.65401467  0.34537867  1
  F  F74  1  0.48828300  0.69729300  0.80208300  1
  F  F75  1  0.58728333  0.73694367  0.37796867  1
  F  F76  1  0.51700633  0.92061667  0.95536467  1
  F  F77  1  0.65401467  0.91472633  0.65462133  1
  F  F78  1  0.75194033  0.07262167  0.98795467  1
  F  F79  1  0.87567667  0.84505033  0.13541633  1
  F  F80  1  0.73694367  0.14966033  0.62203133  1
  F  F81  1  0.59638967  0.51700633  0.04463533  1
  F  F82  1  0.45765667  0.82161633  0.53125033  1
  F  F83  1  0.58139300  0.59404500  0.67871200  1
  F  F84  1  0.67931867  0.75194033  0.01204533  1
  F  F85  1  0.81632700  0.74605000  0.71130200  1
  F  F86  1  0.74605000  0.92972300  0.28869800  1
  F  F87  1  0.84505033  0.96937367  0.86458367  1
  F  F88  1  0.59404500  0.01265200  0.32128800  1
  F  F89  1  0.63604033  0.45765667  0.46874967  1
