# generated using pymatgen
data_Ho2TiO5
_symmetry_space_group_name_H-M   'P 1'
_cell_length_a   11.70360800
_cell_length_b   5.27667800
_cell_length_c   7.53864561
_cell_angle_alpha   90.00000000
_cell_angle_beta   113.61612879
_cell_angle_gamma   90.00000000
_symmetry_Int_Tables_number   1
_chemical_formula_structural   Ho2TiO5
_chemical_formula_sum   'Ho8 Ti4 O20'
_cell_volume   426.56741084
_cell_formula_units_Z   4
loop_
 _symmetry_equiv_pos_site_id
 _symmetry_equiv_pos_as_xyz
  1  'x, y, z'
loop_
 _atom_site_type_symbol
 _atom_site_label
 _atom_site_symmetry_multiplicity
 _atom_site_fract_x
 _atom_site_fract_y
 _atom_site_fract_z
 _atom_site_occupancy
  Ho  Ho0  1  0.36135300  0.99029400  0.74754200  1
  Ho  Ho1  1  0.36135300  0.00970600  0.24754200  1
  Ho  Ho2  1  0.13864700  0.49029400  0.75245800  1
  Ho  Ho3  1  0.13864700  0.50970600  0.25245800  1
  Ho  Ho4  1  0.86135300  0.49029400  0.74754200  1
  Ho  Ho5  1  0.86135300  0.50970600  0.24754200  1
  Ho  Ho6  1  0.63864700  0.99029400  0.75245800  1
  Ho  Ho7  1  0.63864700  0.00970600  0.25245800  1
  Ti  Ti8  1  0.00000000  0.00000000  0.50000000  1
  Ti  Ti9  1  0.00000000  0.00000000  0.00000000  1
  Ti  Ti10  1  0.50000000  0.50000000  0.50000000  1
  Ti  Ti11  1  0.50000000  0.50000000  0.00000000  1
  O  O12  1  0.16900550  0.85634350  0.63958700  1
  O  O13  1  0.16900550  0.14365650  0.13958700  1
  O  O14  1  0.42879500  0.18180300  0.54397100  1
  O  O15  1  0.00000000  0.16755800  0.75000000  1
  O  O16  1  0.07120500  0.68180300  0.95602900  1
  O  O17  1  0.42879500  0.81819700  0.04397100  1
  O  O18  1  0.00000000  0.83244200  0.25000000  1
  O  O19  1  0.07120500  0.31819700  0.45602900  1
  O  O20  1  0.33099450  0.35634350  0.86041300  1
  O  O21  1  0.33099450  0.64365650  0.36041300  1
  O  O22  1  0.66900550  0.35634350  0.63958700  1
  O  O23  1  0.66900550  0.64365650  0.13958700  1
  O  O24  1  0.92879500  0.68180300  0.54397100  1
  O  O25  1  0.50000000  0.66755800  0.75000000  1
  O  O26  1  0.57120500  0.18180300  0.95602900  1
  O  O27  1  0.92879500  0.31819700  0.04397100  1
  O  O28  1  0.50000000  0.33244200  0.25000000  1
  O  O29  1  0.57120500  0.81819700  0.45602900  1
  O  O30  1  0.83099450  0.85634350  0.86041300  1
  O  O31  1  0.83099450  0.14365650  0.36041300  1
