# generated using pymatgen
data_Li4Ti3Fe3(WO8)2
_symmetry_space_group_name_H-M   'P 1'
_cell_length_a   5.98049021
_cell_length_b   6.05897587
_cell_length_c   9.83431628
_cell_angle_alpha   91.65966007
_cell_angle_beta   89.99538859
_cell_angle_gamma   119.32893351
_symmetry_Int_Tables_number   1
_chemical_formula_structural   Li4Ti3Fe3(WO8)2
_chemical_formula_sum   'Li4 Ti3 Fe3 W2 O16'
_cell_volume   310.50520882
_cell_formula_units_Z   1
loop_
 _symmetry_equiv_pos_site_id
 _symmetry_equiv_pos_as_xyz
  1  'x, y, z'
loop_
 _atom_site_type_symbol
 _atom_site_label
 _atom_site_symmetry_multiplicity
 _atom_site_fract_x
 _atom_site_fract_y
 _atom_site_fract_z
 _atom_site_occupancy
  Li  Li0  1  0.33691700  0.68067400  0.09804400  1
  Li  Li1  1  0.00347300  0.00355900  0.01614600  1
  Li  Li2  1  0.99159200  0.98796100  0.50607400  1
  Li  Li3  1  0.67255200  0.33942800  0.59041300  1
  Ti  Ti4  1  0.15930700  0.82241000  0.78688300  1
  Ti  Ti5  1  0.65539400  0.81184900  0.78249500  1
  Ti  Ti6  1  0.83053900  0.65582300  0.27857200  1
  Fe  Fe7  1  0.17471400  0.34022700  0.79019200  1
  Fe  Fe8  1  0.34106000  0.15970700  0.29120000  1
  Fe  Fe9  1  0.82293000  0.16407200  0.29003700  1
  W  W10  1  0.32756200  0.65721200  0.50972300  1
  W  W11  1  0.66239100  0.32039900  0.01644100  1
  O  O12  1  0.15775900  0.81641100  0.40799800  1
  O  O13  1  0.47641100  0.95260300  0.65946800  1
  O  O14  1  0.35084300  0.70207500  0.89200100  1
  O  O15  1  0.98699700  0.98042400  0.69570700  1
  O  O16  1  0.99170700  0.97852100  0.20031500  1
  O  O17  1  0.65316400  0.81422200  0.40483800  1
  O  O18  1  0.04055400  0.53761200  0.66167500  1
  O  O19  1  0.50245200  0.53783100  0.65830700  1
  O  O20  1  0.83284400  0.67000200  0.89421600  1
  O  O21  1  0.17037600  0.33742100  0.42730600  1
  O  O22  1  0.53878200  0.50114700  0.13978200  1
  O  O23  1  0.96789000  0.50166800  0.14977800  1
  O  O24  1  0.68175300  0.36890200  0.39230200  1
  O  O25  1  0.32557200  0.15094100  0.90308800  1
  O  O26  1  0.52297600  0.04195900  0.14326000  1
  O  O27  1  0.82118500  0.16494000  0.90590000  1
