# generated using pymatgen
data_Li3Si2BiO7
_symmetry_space_group_name_H-M   'P 1'
_cell_length_a   9.05586220
_cell_length_b   9.05586220
_cell_length_c   13.86474100
_cell_angle_alpha   90.00000000
_cell_angle_beta   90.00000000
_cell_angle_gamma   120.00000000
_symmetry_Int_Tables_number   1
_chemical_formula_structural   Li3Si2BiO7
_chemical_formula_sum   'Li18 Si12 Bi6 O42'
_cell_volume   984.69561360
_cell_formula_units_Z   6
loop_
 _symmetry_equiv_pos_site_id
 _symmetry_equiv_pos_as_xyz
  1  'x, y, z'
loop_
 _atom_site_type_symbol
 _atom_site_label
 _atom_site_symmetry_multiplicity
 _atom_site_fract_x
 _atom_site_fract_y
 _atom_site_fract_z
 _atom_site_occupancy
  Li  Li0  1  0.98571700  0.67223700  0.58799200  1
  Li  Li1  1  0.98434200  0.67129900  0.91328600  1
  Li  Li2  1  0.32776300  0.31348000  0.58799200  1
  Li  Li3  1  0.32870100  0.31304300  0.91328600  1
  Li  Li4  1  0.00000000  0.00000000  0.99959700  1
  Li  Li5  1  0.00000000  0.00000000  0.49959700  1
  Li  Li6  1  0.66666667  0.33333333  0.75172000  1
  Li  Li7  1  0.66666667  0.33333333  0.26222700  1
  Li  Li8  1  0.31348000  0.98571700  0.08799200  1
  Li  Li9  1  0.31304300  0.98434200  0.41328600  1
  Li  Li10  1  0.68652000  0.01428300  0.58799200  1
  Li  Li11  1  0.68695700  0.01565800  0.91328600  1
  Li  Li12  1  0.33333333  0.66666667  0.76222700  1
  Li  Li13  1  0.33333333  0.66666667  0.25172000  1
  Li  Li14  1  0.67129900  0.68695700  0.41328600  1
  Li  Li15  1  0.67223700  0.68652000  0.08799200  1
  Li  Li16  1  0.01428300  0.32776300  0.08799200  1
  Li  Li17  1  0.01565800  0.32870100  0.41328600  1
  Si  Si18  1  0.98038300  0.65475900  0.35909600  1
  Si  Si19  1  0.97999100  0.65465400  0.14117400  1
  Si  Si20  1  0.34534600  0.32533700  0.14117400  1
  Si  Si21  1  0.34524100  0.32562400  0.35909600  1
  Si  Si22  1  0.32562400  0.98038300  0.85909600  1
  Si  Si23  1  0.32533700  0.97999100  0.64117400  1
  Si  Si24  1  0.67466300  0.02000900  0.14117400  1
  Si  Si25  1  0.67437600  0.01961700  0.35909600  1
  Si  Si26  1  0.65475900  0.67437600  0.85909600  1
  Si  Si27  1  0.65465400  0.67466300  0.64117400  1
  Si  Si28  1  0.01961700  0.34524100  0.85909600  1
  Si  Si29  1  0.02000900  0.34534600  0.64117400  1
  Bi  Bi30  1  0.66666667  0.33333333  0.52208400  1
  Bi  Bi31  1  0.00000000  0.00000000  0.75016500  1
  Bi  Bi32  1  0.00000000  0.00000000  0.25016500  1
  Bi  Bi33  1  0.66666667  0.33333333  0.98058300  1
  Bi  Bi34  1  0.33333333  0.66666667  0.02208400  1
  Bi  Bi35  1  0.33333333  0.66666667  0.48058300  1
  O  O36  1  0.86304100  0.77558000  0.63634100  1
  O  O37  1  0.86315000  0.77667400  0.86469100  1
  O  O38  1  0.56724400  0.46729500  0.62895300  1
  O  O39  1  0.56888800  0.46727100  0.87162200  1
  O  O40  1  0.82573100  0.59196400  0.06184100  1
  O  O41  1  0.82274900  0.58803200  0.43645300  1
  O  O42  1  0.88123200  0.58865400  0.25014800  1
  O  O43  1  0.41134600  0.29257800  0.25014800  1
  O  O44  1  0.40803600  0.23376700  0.06184100  1
  O  O45  1  0.41196800  0.23471700  0.43645300  1
  O  O46  1  0.90005100  0.43275600  0.62895300  1
  O  O47  1  0.89838300  0.43111200  0.87162200  1
  O  O48  1  0.22442000  0.08746100  0.63634100  1
  O  O49  1  0.22332600  0.08647600  0.86469100  1
  O  O50  1  0.53270500  0.09994900  0.62895300  1
  O  O51  1  0.53272900  0.10161700  0.87162200  1
  O  O52  1  0.08647600  0.86315000  0.36469100  1
  O  O53  1  0.08746100  0.86304100  0.13634100  1
  O  O54  1  0.76623300  0.17426900  0.06184100  1
  O  O55  1  0.76528300  0.17725100  0.43645300  1
  O  O56  1  0.70742200  0.11876800  0.25014800  1
  O  O57  1  0.29257800  0.88123200  0.75014800  1
  O  O58  1  0.23376700  0.82573100  0.56184100  1
  O  O59  1  0.23471700  0.82274900  0.93645300  1
  O  O60  1  0.91253900  0.13695900  0.63634100  1
  O  O61  1  0.91352400  0.13685000  0.86469100  1
  O  O62  1  0.46729500  0.90005100  0.12895300  1
  O  O63  1  0.46727100  0.89838300  0.37162200  1
  O  O64  1  0.77558000  0.91253900  0.13634100  1
  O  O65  1  0.77667400  0.91352400  0.36469100  1
  O  O66  1  0.10161700  0.56888800  0.37162200  1
  O  O67  1  0.09994900  0.56724400  0.12895300  1
  O  O68  1  0.58803200  0.76528300  0.93645300  1
  O  O69  1  0.59196400  0.76623300  0.56184100  1
  O  O70  1  0.58865400  0.70742200  0.75014800  1
  O  O71  1  0.11876800  0.41134600  0.75014800  1
  O  O72  1  0.17725100  0.41196800  0.93645300  1
  O  O73  1  0.17426900  0.40803600  0.56184100  1
  O  O74  1  0.43275600  0.53270500  0.12895300  1
  O  O75  1  0.43111200  0.53272900  0.37162200  1
  O  O76  1  0.13695900  0.22442000  0.13634100  1
  O  O77  1  0.13685000  0.22332600  0.36469100  1
