# generated using pymatgen
data_Li2MnFe(BO3)2
_symmetry_space_group_name_H-M   'P 1'
_cell_length_a   8.26232600
_cell_length_b   3.16248500
_cell_length_c   14.29922708
_cell_angle_alpha   90.00000000
_cell_angle_beta   90.17938585
_cell_angle_gamma   90.00000000
_symmetry_Int_Tables_number   1
_chemical_formula_structural   Li2MnFe(BO3)2
_chemical_formula_sum   'Li6 Mn3 Fe3 B6 O18'
_cell_volume   373.62956602
_cell_formula_units_Z   3
loop_
 _symmetry_equiv_pos_site_id
 _symmetry_equiv_pos_as_xyz
  1  'x, y, z'
loop_
 _atom_site_type_symbol
 _atom_site_label
 _atom_site_symmetry_multiplicity
 _atom_site_fract_x
 _atom_site_fract_y
 _atom_site_fract_z
 _atom_site_occupancy
  Li  Li0  1  0.29255100  0.50000000  0.99089100  1
  Li  Li1  1  0.34031500  0.50000000  0.35822600  1
  Li  Li2  1  0.36554200  0.50000000  0.64991400  1
  Li  Li3  1  0.79240400  0.50000000  0.49090900  1
  Li  Li4  1  0.84252900  0.50000000  0.85672100  1
  Li  Li5  1  0.86718000  0.50000000  0.15113500  1
  Mn  Mn6  1  0.19186200  0.00000000  0.18014400  1
  Mn  Mn7  1  0.63449400  0.00000000  0.00585300  1
  Mn  Mn8  1  0.69261800  0.00000000  0.68031600  1
  Fe  Fe9  1  0.13588400  0.00000000  0.50424200  1
  Fe  Fe10  1  0.17578500  0.00000000  0.81628800  1
  Fe  Fe11  1  0.67589300  0.00000000  0.31703700  1
  B  B12  1  0.00267400  0.50000000  0.66597200  1
  B  B13  1  0.99934800  0.00000000  0.99867600  1
  B  B14  1  0.99899000  0.50000000  0.33448500  1
  B  B15  1  0.50209600  0.50000000  0.16803300  1
  B  B16  1  0.49775800  0.00000000  0.49984500  1
  B  B17  1  0.49780500  0.50000000  0.83330900  1
  O  O18  1  0.01100900  0.50000000  0.43142000  1
  O  O19  1  0.01935000  0.50000000  0.76291700  1
  O  O20  1  0.13820000  0.50000000  0.60859900  1
  O  O21  1  0.13800700  0.50000000  0.28026500  1
  O  O22  1  0.15313500  0.00000000  0.95816200  1
  O  O23  1  0.34901000  0.50000000  0.12643000  1
  O  O24  1  0.34689800  0.50000000  0.78984500  1
  O  O25  1  0.35911500  0.00000000  0.44413300  1
  O  O26  1  0.48342200  0.00000000  0.59653800  1
  O  O27  1  0.50855700  0.50000000  0.93010400  1
  O  O28  1  0.51790000  0.50000000  0.26493100  1
  O  O29  1  0.63935000  0.50000000  0.11180500  1
  O  O30  1  0.63806200  0.50000000  0.77999000  1
  O  O31  1  0.65055200  0.00000000  0.45822800  1
  O  O32  1  0.84828600  0.50000000  0.62570100  1
  O  O33  1  0.84736200  0.50000000  0.29168400  1
  O  O34  1  0.86285500  0.00000000  0.94162000  1
  O  O35  1  0.98320300  0.00000000  0.09562900  1
