# generated using pymatgen
data_Ba2Ca7I18
_symmetry_space_group_name_H-M   'P 1'
_cell_length_a   10.37157700
_cell_length_b   11.21524580
_cell_length_c   11.48205981
_cell_angle_alpha   95.69014095
_cell_angle_beta   115.89143401
_cell_angle_gamma   94.90516448
_symmetry_Int_Tables_number   1
_chemical_formula_structural   Ba2Ca7I18
_chemical_formula_sum   'Ba2 Ca7 I18'
_cell_volume   1183.16742912
_cell_formula_units_Z   1
loop_
 _symmetry_equiv_pos_site_id
 _symmetry_equiv_pos_as_xyz
  1  'x, y, z'
loop_
 _atom_site_type_symbol
 _atom_site_label
 _atom_site_symmetry_multiplicity
 _atom_site_fract_x
 _atom_site_fract_y
 _atom_site_fract_z
 _atom_site_occupancy
  Ba  Ba0  1  0.69227700  0.39009800  0.23167300  1
  Ba  Ba1  1  0.30772300  0.60990200  0.76832700  1
  Ca  Ca2  1  0.79500300  0.81828400  0.11737600  1
  Ca  Ca3  1  0.00000000  0.50000000  0.00000000  1
  Ca  Ca4  1  0.79949200  0.78948200  0.61134700  1
  Ca  Ca5  1  0.59375600  0.11348300  0.70320100  1
  Ca  Ca6  1  0.40624400  0.88651700  0.29679900  1
  Ca  Ca7  1  0.20050800  0.21051800  0.38865300  1
  Ca  Ca8  1  0.20499700  0.18171600  0.88262400  1
  I  I9  1  0.87882300  0.08715900  0.24214900  1
  I  I10  1  0.86316000  0.69846000  0.37126100  1
  I  I11  1  0.94005200  0.56067600  0.72047400  1
  I  I12  1  0.91798800  0.22242800  0.89824700  1
  I  I13  1  0.70843300  0.02932600  0.50072500  1
  I  I14  1  0.47512700  0.81792700  0.06024400  1
  I  I15  1  0.48858600  0.65897200  0.42585300  1
  I  I16  1  0.66223600  0.85730800  0.80936900  1
  I  I17  1  0.31438900  0.45940800  0.02959000  1
  I  I18  1  0.68561100  0.54059200  0.97041000  1
  I  I19  1  0.33776400  0.14269200  0.19063100  1
  I  I20  1  0.51141400  0.34102800  0.57414700  1
  I  I21  1  0.52487300  0.18207300  0.93975600  1
  I  I22  1  0.29156700  0.97067400  0.49927500  1
  I  I23  1  0.08201200  0.77757200  0.10175300  1
  I  I24  1  0.05994800  0.43932400  0.27952600  1
  I  I25  1  0.13684000  0.30154000  0.62873900  1
  I  I26  1  0.12117700  0.91284100  0.75785100  1
