# generated using pymatgen
data_CaTb2O4
_symmetry_space_group_name_H-M   'P 1'
_cell_length_a   9.72420000
_cell_length_b   9.72420000
_cell_length_c   9.72420000
_cell_angle_alpha   90.00000000
_cell_angle_beta   90.00000000
_cell_angle_gamma   90.00000000
_symmetry_Int_Tables_number   1
_chemical_formula_structural   CaTb2O4
_chemical_formula_sum   'Ca8 Tb16 O32'
_cell_volume   919.52099030
_cell_formula_units_Z   8
loop_
 _symmetry_equiv_pos_site_id
 _symmetry_equiv_pos_as_xyz
  1  'x, y, z'
loop_
 _atom_site_type_symbol
 _atom_site_label
 _atom_site_symmetry_multiplicity
 _atom_site_fract_x
 _atom_site_fract_y
 _atom_site_fract_z
 _atom_site_occupancy
  Ca  Ca0  1  0.25000000  0.75000000  0.25000000  1
  Ca  Ca1  1  0.00000000  0.00000000  0.50000000  1
  Ca  Ca2  1  0.25000000  0.25000000  0.75000000  1
  Ca  Ca3  1  0.00000000  0.50000000  0.00000000  1
  Ca  Ca4  1  0.75000000  0.75000000  0.75000000  1
  Ca  Ca5  1  0.50000000  0.00000000  0.00000000  1
  Ca  Ca6  1  0.75000000  0.25000000  0.25000000  1
  Ca  Ca7  1  0.50000000  0.50000000  0.50000000  1
  Tb  Tb8  1  0.37500000  0.12500000  0.37500000  1
  Tb  Tb9  1  0.62500000  0.87500000  0.37500000  1
  Tb  Tb10  1  0.12500000  0.12500000  0.12500000  1
  Tb  Tb11  1  0.87500000  0.87500000  0.12500000  1
  Tb  Tb12  1  0.37500000  0.62500000  0.87500000  1
  Tb  Tb13  1  0.62500000  0.37500000  0.87500000  1
  Tb  Tb14  1  0.12500000  0.62500000  0.62500000  1
  Tb  Tb15  1  0.87500000  0.37500000  0.62500000  1
  Tb  Tb16  1  0.87500000  0.12500000  0.87500000  1
  Tb  Tb17  1  0.12500000  0.87500000  0.87500000  1
  Tb  Tb18  1  0.62500000  0.12500000  0.62500000  1
  Tb  Tb19  1  0.37500000  0.87500000  0.62500000  1
  Tb  Tb20  1  0.87500000  0.62500000  0.37500000  1
  Tb  Tb21  1  0.12500000  0.37500000  0.37500000  1
  Tb  Tb22  1  0.62500000  0.62500000  0.12500000  1
  Tb  Tb23  1  0.37500000  0.37500000  0.12500000  1
  O  O24  1  0.38765700  0.88765700  0.38765700  1
  O  O25  1  0.13765700  0.13765700  0.36234300  1
  O  O26  1  0.88765700  0.11234300  0.11234300  1
  O  O27  1  0.11234300  0.88765700  0.11234300  1
  O  O28  1  0.36234300  0.36234300  0.36234300  1
  O  O29  1  0.61234300  0.11234300  0.38765700  1
  O  O30  1  0.36234300  0.13765700  0.13765700  1
  O  O31  1  0.13765700  0.36234300  0.13765700  1
  O  O32  1  0.38765700  0.38765700  0.88765700  1
  O  O33  1  0.13765700  0.63765700  0.86234300  1
  O  O34  1  0.88765700  0.61234300  0.61234300  1
  O  O35  1  0.11234300  0.38765700  0.61234300  1
  O  O36  1  0.36234300  0.86234300  0.86234300  1
  O  O37  1  0.61234300  0.61234300  0.88765700  1
  O  O38  1  0.36234300  0.63765700  0.63765700  1
  O  O39  1  0.13765700  0.86234300  0.63765700  1
  O  O40  1  0.88765700  0.88765700  0.88765700  1
  O  O41  1  0.63765700  0.13765700  0.86234300  1
  O  O42  1  0.38765700  0.11234300  0.61234300  1
  O  O43  1  0.61234300  0.88765700  0.61234300  1
  O  O44  1  0.86234300  0.36234300  0.86234300  1
  O  O45  1  0.11234300  0.11234300  0.88765700  1
  O  O46  1  0.86234300  0.13765700  0.63765700  1
  O  O47  1  0.63765700  0.36234300  0.63765700  1
  O  O48  1  0.88765700  0.38765700  0.38765700  1
  O  O49  1  0.63765700  0.63765700  0.36234300  1
  O  O50  1  0.38765700  0.61234300  0.11234300  1
  O  O51  1  0.61234300  0.38765700  0.11234300  1
  O  O52  1  0.86234300  0.86234300  0.36234300  1
  O  O53  1  0.11234300  0.61234300  0.38765700  1
  O  O54  1  0.86234300  0.63765700  0.13765700  1
  O  O55  1  0.63765700  0.86234300  0.13765700  1
