# generated using pymatgen
data_BaLaBr5
_symmetry_space_group_name_H-M   'P 1'
_cell_length_a   8.35173200
_cell_length_b   4.69248600
_cell_length_c   13.83565174
_cell_angle_alpha   90.00000000
_cell_angle_beta   91.41142019
_cell_angle_gamma   90.00000000
_symmetry_Int_Tables_number   1
_chemical_formula_structural   BaLaBr5
_chemical_formula_sum   'Ba2 La2 Br10'
_cell_volume   542.06001409
_cell_formula_units_Z   2
loop_
 _symmetry_equiv_pos_site_id
 _symmetry_equiv_pos_as_xyz
  1  'x, y, z'
loop_
 _atom_site_type_symbol
 _atom_site_label
 _atom_site_symmetry_multiplicity
 _atom_site_fract_x
 _atom_site_fract_y
 _atom_site_fract_z
 _atom_site_occupancy
  Ba  Ba0  1  0.93790700  0.25000000  0.15502700  1
  Ba  Ba1  1  0.06209300  0.75000000  0.84497300  1
  La  La2  1  0.56791000  0.75000000  0.34762100  1
  La  La3  1  0.43209000  0.25000000  0.65237900  1
  Br  Br4  1  0.92204900  0.75000000  0.33832400  1
  Br  Br5  1  0.84113200  0.25000000  0.92579200  1
  Br  Br6  1  0.67581200  0.25000000  0.48250100  1
  Br  Br7  1  0.63778800  0.75000000  0.14084800  1
  Br  Br8  1  0.63694800  0.75000000  0.71353700  1
  Br  Br9  1  0.36305200  0.25000000  0.28646300  1
  Br  Br10  1  0.36221200  0.25000000  0.85915200  1
  Br  Br11  1  0.32418800  0.75000000  0.51749900  1
  Br  Br12  1  0.15886800  0.75000000  0.07420800  1
  Br  Br13  1  0.07795100  0.25000000  0.66167600  1
