# generated using pymatgen
data_Mo4P5O24
_symmetry_space_group_name_H-M   'P 1'
_cell_length_a   17.20081400
_cell_length_b   8.51481400
_cell_length_c   15.44831360
_cell_angle_alpha   90.00000000
_cell_angle_beta   119.53407683
_cell_angle_gamma   90.00000000
_symmetry_Int_Tables_number   1
_chemical_formula_structural   Mo4P5O24
_chemical_formula_sum   'Mo16 P20 O96'
_cell_volume   1968.59228437
_cell_formula_units_Z   4
loop_
 _symmetry_equiv_pos_site_id
 _symmetry_equiv_pos_as_xyz
  1  'x, y, z'
loop_
 _atom_site_type_symbol
 _atom_site_label
 _atom_site_symmetry_multiplicity
 _atom_site_fract_x
 _atom_site_fract_y
 _atom_site_fract_z
 _atom_site_occupancy
  Mo  Mo0  1  0.66376600  0.81533000  0.81741300  1
  Mo  Mo1  1  0.40263200  0.69632300  0.01815500  1
  Mo  Mo2  1  0.33627500  0.19023400  0.18122400  1
  Mo  Mo3  1  0.16376600  0.68467000  0.31741300  1
  Mo  Mo4  1  0.59468300  0.30429000  0.97859700  1
  Mo  Mo5  1  0.83627500  0.30976600  0.68122400  1
  Mo  Mo6  1  0.40263200  0.30367700  0.51815500  1
  Mo  Mo7  1  0.59468300  0.69571000  0.47859700  1
  Mo  Mo8  1  0.16376600  0.31533000  0.81741300  1
  Mo  Mo9  1  0.90263200  0.19632300  0.01815500  1
  Mo  Mo10  1  0.83627500  0.69023400  0.18122400  1
  Mo  Mo11  1  0.66376600  0.18467000  0.31741300  1
  Mo  Mo12  1  0.09468300  0.80429000  0.97859700  1
  Mo  Mo13  1  0.33627500  0.80976600  0.68122400  1
  Mo  Mo14  1  0.90263200  0.80367700  0.51815500  1
  Mo  Mo15  1  0.09468300  0.19571000  0.47859700  1
  P  P16  1  0.48998350  0.32857350  0.10264600  1
  P  P17  1  0.74461250  0.99234750  0.53967800  1
  P  P18  1  0.75434350  0.49514850  0.95955300  1
  P  P19  1  0.25434350  0.00485150  0.45955300  1
  P  P20  1  0.24461250  0.50765250  0.03967800  1
  P  P21  1  0.51079300  0.32684500  0.39626700  1
  P  P22  1  0.49898050  0.09860650  0.74919500  1
  P  P23  1  0.51079300  0.67315500  0.89626700  1
  P  P24  1  0.48998350  0.67142650  0.60264600  1
  P  P25  1  0.49898050  0.90139350  0.24919500  1
  P  P26  1  0.98998350  0.82857350  0.10264600  1
  P  P27  1  0.24461250  0.49234750  0.53967800  1
  P  P28  1  0.25434350  0.99514850  0.95955300  1
  P  P29  1  0.75434350  0.50485150  0.45955300  1
  P  P30  1  0.74461250  0.00765250  0.03967800  1
  P  P31  1  0.01079300  0.82684500  0.39626700  1
  P  P32  1  0.99898050  0.59860650  0.74919500  1
  P  P33  1  0.01079300  0.17315500  0.89626700  1
  P  P34  1  0.98998350  0.17142650  0.60264600  1
  P  P35  1  0.99898050  0.40139350  0.24919500  1
  O  O36  1  0.15631700  0.59337600  0.01162400  1
  O  O37  1  0.58919400  0.25877800  0.39094200  1
  O  O38  1  0.77336350  0.36910950  0.73322000  1
  O  O39  1  0.32117600  0.37444200  0.57667800  1
  O  O40  1  0.47928300  0.80672000  0.15872800  1
  O  O41  1  0.47928300  0.19328000  0.65872800  1
  O  O42  1  0.65631700  0.90662400  0.51162400  1
  O  O43  1  0.50568900  0.75216400  0.51937200  1
  O  O44  1  0.51711250  0.19912150  0.83918000  1
  O  O45  1  0.42267800  0.68325300  0.79122300  1
  O  O46  1  0.66904650  0.62488350  0.59366900  1
  O  O47  1  0.58251600  0.00748900  0.27409200  1
  O  O48  1  0.48177150  0.50511850  0.08405300  1
  O  O49  1  0.73559850  0.92097350  0.94602100  1
  O  O50  1  0.58251600  0.99251100  0.77409200  1
  O  O51  1  0.52435200  0.49477200  0.91896200  1
  O  O52  1  0.67573150  0.62121050  0.42509300  1
  O  O53  1  0.16904650  0.87511650  0.09366900  1
  O  O54  1  0.34217150  0.08371350  0.48338900  1
  O  O55  1  0.40928200  0.74504800  0.60197400  1
  O  O56  1  0.52435200  0.50522800  0.41896200  1
  O  O57  1  0.84217150  0.41628650  0.98338900  1
  O  O58  1  0.40928200  0.25495200  0.10197400  1
  O  O59  1  0.32117600  0.62555800  0.07667800  1
  O  O60  1  0.48177150  0.49488150  0.58405300  1
  O  O61  1  0.33003850  0.37712950  0.40295000  1
  O  O62  1  0.73095950  0.62000050  0.87676200  1
  O  O63  1  0.76352000  0.41811600  0.55375800  1
  O  O64  1  0.76331650  0.11811950  0.62059400  1
  O  O65  1  0.57792150  0.30471650  0.20420100  1
  O  O66  1  0.49535150  0.24173250  0.47405300  1
  O  O67  1  0.41917750  0.01156850  0.23061100  1
  O  O68  1  0.50568900  0.24783600  0.01937200  1
  O  O69  1  0.27336350  0.13089050  0.23322000  1
  O  O70  1  0.58919400  0.74122200  0.89094200  1
  O  O71  1  0.41917750  0.98843150  0.73061100  1
  O  O72  1  0.26331650  0.38188050  0.12059400  1
  O  O73  1  0.23559850  0.57902650  0.44602100  1
  O  O74  1  0.72766350  0.87303250  0.76758600  1
  O  O75  1  0.83003850  0.12287050  0.90295000  1
  O  O76  1  0.67573150  0.37878950  0.92509300  1
  O  O77  1  0.22766350  0.62696750  0.26758600  1
  O  O78  1  0.23095950  0.87999950  0.37676200  1
  O  O79  1  0.51711250  0.80087850  0.33918000  1
  O  O80  1  0.49535150  0.75826750  0.97405300  1
  O  O81  1  0.57792150  0.69528350  0.70420100  1
  O  O82  1  0.42267800  0.31674700  0.29122300  1
  O  O83  1  0.26352000  0.08188400  0.05375800  1
  O  O84  1  0.65631700  0.09337600  0.01162400  1
  O  O85  1  0.08919400  0.75877800  0.39094200  1
  O  O86  1  0.27336350  0.86910950  0.73322000  1
  O  O87  1  0.82117600  0.87444200  0.57667800  1
  O  O88  1  0.97928300  0.30672000  0.15872800  1
  O  O89  1  0.97928300  0.69328000  0.65872800  1
  O  O90  1  0.15631700  0.40662400  0.51162400  1
  O  O91  1  0.00568900  0.25216400  0.51937200  1
  O  O92  1  0.01711250  0.69912150  0.83918000  1
  O  O93  1  0.92267800  0.18325300  0.79122300  1
  O  O94  1  0.16904650  0.12488350  0.59366900  1
  O  O95  1  0.08251600  0.50748900  0.27409200  1
  O  O96  1  0.98177150  0.00511850  0.08405300  1
  O  O97  1  0.23559850  0.42097350  0.94602100  1
  O  O98  1  0.08251600  0.49251100  0.77409200  1
  O  O99  1  0.02435200  0.99477200  0.91896200  1
  O  O100  1  0.17573150  0.12121050  0.42509300  1
  O  O101  1  0.66904650  0.37511650  0.09366900  1
  O  O102  1  0.84217150  0.58371350  0.48338900  1
  O  O103  1  0.90928200  0.24504800  0.60197400  1
  O  O104  1  0.02435200  0.00522800  0.41896200  1
  O  O105  1  0.34217150  0.91628650  0.98338900  1
  O  O106  1  0.90928200  0.75495200  0.10197400  1
  O  O107  1  0.82117600  0.12555800  0.07667800  1
  O  O108  1  0.98177150  0.99488150  0.58405300  1
  O  O109  1  0.83003850  0.87712950  0.40295000  1
  O  O110  1  0.23095950  0.12000050  0.87676200  1
  O  O111  1  0.26352000  0.91811600  0.55375800  1
  O  O112  1  0.26331650  0.61811950  0.62059400  1
  O  O113  1  0.07792150  0.80471650  0.20420100  1
  O  O114  1  0.99535150  0.74173250  0.47405300  1
  O  O115  1  0.91917750  0.51156850  0.23061100  1
  O  O116  1  0.00568900  0.74783600  0.01937200  1
  O  O117  1  0.77336350  0.63089050  0.23322000  1
  O  O118  1  0.08919400  0.24122200  0.89094200  1
  O  O119  1  0.91917750  0.48843150  0.73061100  1
  O  O120  1  0.76331650  0.88188050  0.12059400  1
  O  O121  1  0.73559850  0.07902650  0.44602100  1
  O  O122  1  0.22766350  0.37303250  0.76758600  1
  O  O123  1  0.33003850  0.62287050  0.90295000  1
  O  O124  1  0.17573150  0.87878950  0.92509300  1
  O  O125  1  0.72766350  0.12696750  0.26758600  1
  O  O126  1  0.73095950  0.37999950  0.37676200  1
  O  O127  1  0.01711250  0.30087850  0.33918000  1
  O  O128  1  0.99535150  0.25826750  0.97405300  1
  O  O129  1  0.07792150  0.19528350  0.70420100  1
  O  O130  1  0.92267800  0.81674700  0.29122300  1
  O  O131  1  0.76352000  0.58188400  0.05375800  1
