# generated using pymatgen
data_Li2V(Si2O5)3
_symmetry_space_group_name_H-M   'P 1'
_cell_length_a   7.96770400
_cell_length_b   10.00336800
_cell_length_c   14.72718200
_cell_angle_alpha   90.00000000
_cell_angle_beta   90.00000000
_cell_angle_gamma   90.00000000
_symmetry_Int_Tables_number   1
_chemical_formula_structural   Li2V(Si2O5)3
_chemical_formula_sum   'Li8 V4 Si24 O60'
_cell_volume   1173.81347657
_cell_formula_units_Z   4
loop_
 _symmetry_equiv_pos_site_id
 _symmetry_equiv_pos_as_xyz
  1  'x, y, z'
loop_
 _atom_site_type_symbol
 _atom_site_label
 _atom_site_symmetry_multiplicity
 _atom_site_fract_x
 _atom_site_fract_y
 _atom_site_fract_z
 _atom_site_occupancy
  Li  Li0  1  0.75000000  0.25000000  0.00460800  1
  Li  Li1  1  0.25000000  0.25000000  0.00460800  1
  Li  Li2  1  0.25000000  0.75000000  0.99539200  1
  Li  Li3  1  0.75000000  0.75000000  0.99539200  1
  Li  Li4  1  0.25000000  0.75000000  0.50460800  1
  Li  Li5  1  0.75000000  0.75000000  0.50460800  1
  Li  Li6  1  0.75000000  0.25000000  0.49539200  1
  Li  Li7  1  0.25000000  0.25000000  0.49539200  1
  V  V8  1  0.50000000  0.50000000  0.00000000  1
  V  V9  1  0.00000000  0.00000000  0.00000000  1
  V  V10  1  0.00000000  0.00000000  0.50000000  1
  V  V11  1  0.50000000  0.50000000  0.50000000  1
  Si  Si12  1  0.00000000  0.72717650  0.85118250  1
  Si  Si13  1  0.50000000  0.22717650  0.14881750  1
  Si  Si14  1  0.81261000  0.53605800  0.14561700  1
  Si  Si15  1  0.18739000  0.53605800  0.14561700  1
  Si  Si16  1  0.81261000  0.53605800  0.35438300  1
  Si  Si17  1  0.18739000  0.53605800  0.35438300  1
  Si  Si18  1  0.18739000  0.46394200  0.85438300  1
  Si  Si19  1  0.81261000  0.46394200  0.85438300  1
  Si  Si20  1  0.18739000  0.46394200  0.64561700  1
  Si  Si21  1  0.81261000  0.46394200  0.64561700  1
  Si  Si22  1  0.00000000  0.27282350  0.14881750  1
  Si  Si23  1  0.50000000  0.77282350  0.85118250  1
  Si  Si24  1  0.50000000  0.22717650  0.35118250  1
  Si  Si25  1  0.00000000  0.72717650  0.64881750  1
  Si  Si26  1  0.31261000  0.03605800  0.64561700  1
  Si  Si27  1  0.68739000  0.03605800  0.64561700  1
  Si  Si28  1  0.31261000  0.03605800  0.85438300  1
  Si  Si29  1  0.68739000  0.03605800  0.85438300  1
  Si  Si30  1  0.68739000  0.96394200  0.35438300  1
  Si  Si31  1  0.31261000  0.96394200  0.35438300  1
  Si  Si32  1  0.68739000  0.96394200  0.14561700  1
  Si  Si33  1  0.31261000  0.96394200  0.14561700  1
  Si  Si34  1  0.50000000  0.77282350  0.64881750  1
  Si  Si35  1  0.00000000  0.27282350  0.35118250  1
  O  O36  1  0.50000000  0.70736600  0.75000000  1
  O  O37  1  0.50000000  0.66582400  0.93151700  1
  O  O38  1  0.00000000  0.16582400  0.06848300  1
  O  O39  1  0.00000000  0.60125600  0.12531800  1
  O  O40  1  0.83582200  0.62819900  0.86434700  1
  O  O41  1  0.16417800  0.62819900  0.86434700  1
  O  O42  1  0.16417800  0.62819900  0.63565300  1
  O  O43  1  0.83582200  0.62819900  0.63565300  1
  O  O44  1  0.00000000  0.60125600  0.37468200  1
  O  O45  1  0.82167850  0.08806150  0.92811050  1
  O  O46  1  0.17832150  0.08806150  0.92811050  1
  O  O47  1  0.32167850  0.58806150  0.07188950  1
  O  O48  1  0.67832150  0.58806150  0.07188950  1
  O  O49  1  0.75646900  0.57121000  0.25000000  1
  O  O50  1  0.24353100  0.57121000  0.25000000  1
  O  O51  1  0.24353100  0.42879000  0.75000000  1
  O  O52  1  0.75646900  0.42879000  0.75000000  1
  O  O53  1  0.82167850  0.91193850  0.07188950  1
  O  O54  1  0.17832150  0.91193850  0.07188950  1
  O  O55  1  0.67832150  0.41193850  0.92811050  1
  O  O56  1  0.32167850  0.41193850  0.92811050  1
  O  O57  1  0.00000000  0.39874400  0.87468200  1
  O  O58  1  0.16417800  0.37180100  0.13565300  1
  O  O59  1  0.83582200  0.37180100  0.13565300  1
  O  O60  1  0.16417800  0.37180100  0.36434700  1
  O  O61  1  0.83582200  0.37180100  0.36434700  1
  O  O62  1  0.00000000  0.39874400  0.62531800  1
  O  O63  1  0.50000000  0.33417600  0.06848300  1
  O  O64  1  0.00000000  0.83417600  0.93151700  1
  O  O65  1  0.50000000  0.29263400  0.25000000  1
  O  O66  1  0.00000000  0.20736600  0.25000000  1
  O  O67  1  0.00000000  0.16582400  0.43151700  1
  O  O68  1  0.50000000  0.66582400  0.56848300  1
  O  O69  1  0.50000000  0.10125600  0.62531800  1
  O  O70  1  0.33582200  0.12819900  0.36434700  1
  O  O71  1  0.66417800  0.12819900  0.36434700  1
  O  O72  1  0.66417800  0.12819900  0.13565300  1
  O  O73  1  0.33582200  0.12819900  0.13565300  1
  O  O74  1  0.50000000  0.10125600  0.87468200  1
  O  O75  1  0.32167850  0.58806150  0.42811050  1
  O  O76  1  0.67832150  0.58806150  0.42811050  1
  O  O77  1  0.82167850  0.08806150  0.57188950  1
  O  O78  1  0.17832150  0.08806150  0.57188950  1
  O  O79  1  0.25646900  0.07121000  0.75000000  1
  O  O80  1  0.74353100  0.07121000  0.75000000  1
  O  O81  1  0.74353100  0.92879000  0.25000000  1
  O  O82  1  0.25646900  0.92879000  0.25000000  1
  O  O83  1  0.32167850  0.41193850  0.57188950  1
  O  O84  1  0.67832150  0.41193850  0.57188950  1
  O  O85  1  0.17832150  0.91193850  0.42811050  1
  O  O86  1  0.82167850  0.91193850  0.42811050  1
  O  O87  1  0.50000000  0.89874400  0.37468200  1
  O  O88  1  0.66417800  0.87180100  0.63565300  1
  O  O89  1  0.33582200  0.87180100  0.63565300  1
  O  O90  1  0.66417800  0.87180100  0.86434700  1
  O  O91  1  0.33582200  0.87180100  0.86434700  1
  O  O92  1  0.50000000  0.89874400  0.12531800  1
  O  O93  1  0.00000000  0.83417600  0.56848300  1
  O  O94  1  0.50000000  0.33417600  0.43151700  1
  O  O95  1  0.00000000  0.79263400  0.75000000  1
