# generated using pymatgen
data_Li4NbIn3(PO4)6
_symmetry_space_group_name_H-M   'P 1'
_cell_length_a   8.75089700
_cell_length_b   9.01364800
_cell_length_c   15.20923989
_cell_angle_alpha   90.00000000
_cell_angle_beta   124.76787617
_cell_angle_gamma   90.00000000
_symmetry_Int_Tables_number   1
_chemical_formula_structural   Li4NbIn3(PO4)6
_chemical_formula_sum   'Li8 Nb2 In6 P12 O48'
_cell_volume   985.48924030
_cell_formula_units_Z   2
loop_
 _symmetry_equiv_pos_site_id
 _symmetry_equiv_pos_as_xyz
  1  'x, y, z'
loop_
 _atom_site_type_symbol
 _atom_site_label
 _atom_site_symmetry_multiplicity
 _atom_site_fract_x
 _atom_site_fract_y
 _atom_site_fract_z
 _atom_site_occupancy
  Li  Li0  1  0.03185600  0.95392600  0.82449800  1
  Li  Li1  1  0.40662800  0.02985000  0.17428700  1
  Li  Li2  1  0.59739900  0.53231000  0.32737300  1
  Li  Li3  1  0.96425400  0.46336500  0.67200800  1
  Li  Li4  1  0.03185600  0.04607400  0.32449800  1
  Li  Li5  1  0.40662800  0.97015000  0.67428700  1
  Li  Li6  1  0.59739900  0.46769000  0.82737300  1
  Li  Li7  1  0.96425400  0.53663500  0.17200800  1
  Nb  Nb8  1  0.14187800  0.28994700  0.89019900  1
  Nb  Nb9  1  0.14187800  0.71005300  0.39019900  1
  In  In10  1  0.36578300  0.70956800  0.11270800  1
  In  In11  1  0.63593800  0.20686300  0.38834600  1
  In  In12  1  0.86116800  0.79097600  0.60949700  1
  In  In13  1  0.36578300  0.29043200  0.61270800  1
  In  In14  1  0.63593800  0.79313700  0.88834600  1
  In  In15  1  0.86116800  0.20902400  0.10949700  1
  P  P16  1  0.54564900  0.49707000  0.50073400  1
  P  P17  1  0.25630700  0.35887300  0.15025000  1
  P  P18  1  0.95373900  0.63977700  0.85102400  1
  P  P19  1  0.04647200  0.14032500  0.65339000  1
  P  P20  1  0.74763100  0.85927400  0.35060100  1
  P  P21  1  0.45567200  0.00443000  0.99813000  1
  P  P22  1  0.54564900  0.50293000  0.00073400  1
  P  P23  1  0.25630700  0.64112700  0.65025000  1
  P  P24  1  0.95373900  0.36022300  0.35102400  1
  P  P25  1  0.04647200  0.85967500  0.15339000  1
  P  P26  1  0.74763100  0.14072600  0.85060100  1
  P  P27  1  0.45567200  0.99557000  0.49813000  1
  O  O28  1  0.45582900  0.08023600  0.41188700  1
  O  O29  1  0.60060800  0.87476000  0.55540300  1
  O  O30  1  0.21062300  0.87146200  0.14224000  1
  O  O31  1  0.90574300  0.16543200  0.83072600  1
  O  O32  1  0.51442000  0.40334300  0.40727500  1
  O  O33  1  0.17056400  0.33625700  0.02601800  1
  O  O34  1  0.90424800  0.75437700  0.76349900  1
  O  O35  1  0.34285000  0.51460100  0.18478700  1
  O  O36  1  0.98990200  0.48128200  0.81861900  1
  O  O37  1  0.73582700  0.57436900  0.55318300  1
  O  O38  1  0.13306400  0.69249500  0.95278800  1
  O  O39  1  0.40290300  0.23681800  0.21143600  1
  O  O40  1  0.59750800  0.73973200  0.28672400  1
  O  O41  1  0.86771600  0.20117300  0.55389600  1
  O  O42  1  0.25611700  0.08702100  0.93604100  1
  O  O43  1  0.01935800  0.99063000  0.69233000  1
  O  O44  1  0.66781300  0.01754500  0.31090400  1
  O  O45  1  0.10033900  0.26011800  0.74443000  1
  O  O46  1  0.84373400  0.84813000  0.47087800  1
  O  O47  1  0.45880300  0.90969300  0.08304200  1
  O  O48  1  0.09784700  0.64757100  0.66599700  1
  O  O49  1  0.79138600  0.37884200  0.36390100  1
  O  O50  1  0.54190900  0.58331600  0.08691400  1
  O  O51  1  0.38051500  0.38407600  0.94403600  1
  O  O52  1  0.60060800  0.12524000  0.05540300  1
  O  O53  1  0.45582900  0.91976400  0.91188700  1
  O  O54  1  0.21062300  0.12853800  0.64224000  1
  O  O55  1  0.90574300  0.83456800  0.33072600  1
  O  O56  1  0.51442000  0.59665700  0.90727500  1
  O  O57  1  0.17056400  0.66374300  0.52601800  1
  O  O58  1  0.90424800  0.24562300  0.26349900  1
  O  O59  1  0.34285000  0.48539900  0.68478700  1
  O  O60  1  0.98990200  0.51871800  0.31861900  1
  O  O61  1  0.73582700  0.42563100  0.05318300  1
  O  O62  1  0.13306400  0.30750500  0.45278800  1
  O  O63  1  0.40290300  0.76318200  0.71143600  1
  O  O64  1  0.59750800  0.26026800  0.78672400  1
  O  O65  1  0.86771600  0.79882700  0.05389600  1
  O  O66  1  0.25611700  0.91297900  0.43604100  1
  O  O67  1  0.01935800  0.00937000  0.19233000  1
  O  O68  1  0.66781300  0.98245500  0.81090400  1
  O  O69  1  0.10033900  0.73988200  0.24443000  1
  O  O70  1  0.84373400  0.15187000  0.97087800  1
  O  O71  1  0.45880300  0.09030700  0.58304200  1
  O  O72  1  0.09784700  0.35242900  0.16599700  1
  O  O73  1  0.79138600  0.62115800  0.86390100  1
  O  O74  1  0.38051500  0.61592400  0.44403600  1
  O  O75  1  0.54190900  0.41668400  0.58691400  1
