# generated using pymatgen
data_LiCr(PO3)4
_symmetry_space_group_name_H-M   'P 1'
_cell_length_a   15.37576600
_cell_length_b   7.30970400
_cell_length_c   9.53030676
_cell_angle_alpha   90.00000000
_cell_angle_beta   122.72051364
_cell_angle_gamma   90.00000000
_symmetry_Int_Tables_number   1
_chemical_formula_structural   LiCr(PO3)4
_chemical_formula_sum   'Li4 Cr4 P16 O48'
_cell_volume   901.16279594
_cell_formula_units_Z   4
loop_
 _symmetry_equiv_pos_site_id
 _symmetry_equiv_pos_as_xyz
  1  'x, y, z'
loop_
 _atom_site_type_symbol
 _atom_site_label
 _atom_site_symmetry_multiplicity
 _atom_site_fract_x
 _atom_site_fract_y
 _atom_site_fract_z
 _atom_site_occupancy
  Li  Li0  1  0.00000000  0.30894700  0.75000000  1
  Li  Li1  1  0.00000000  0.69105300  0.25000000  1
  Li  Li2  1  0.50000000  0.80894700  0.75000000  1
  Li  Li3  1  0.50000000  0.19105300  0.25000000  1
  Cr  Cr4  1  0.00000000  0.86285800  0.75000000  1
  Cr  Cr5  1  0.00000000  0.13714200  0.25000000  1
  Cr  Cr6  1  0.50000000  0.36285800  0.75000000  1
  Cr  Cr7  1  0.50000000  0.63714200  0.25000000  1
  P  P8  1  0.63784150  0.33582750  0.16681700  1
  P  P9  1  0.62983550  0.92764850  0.13651600  1
  P  P10  1  0.87016450  0.42764850  0.36348400  1
  P  P11  1  0.86215850  0.83582750  0.33318300  1
  P  P12  1  0.13784150  0.16417250  0.66681700  1
  P  P13  1  0.12983550  0.57235150  0.63651600  1
  P  P14  1  0.37016450  0.07235150  0.86348400  1
  P  P15  1  0.36215850  0.66417250  0.83318300  1
  P  P16  1  0.13784150  0.83582750  0.16681700  1
  P  P17  1  0.12983550  0.42764850  0.13651600  1
  P  P18  1  0.37016450  0.92764850  0.36348400  1
  P  P19  1  0.36215850  0.33582750  0.33318300  1
  P  P20  1  0.63784150  0.66417250  0.66681700  1
  P  P21  1  0.62983550  0.07235150  0.63651600  1
  P  P22  1  0.87016450  0.57235150  0.86348400  1
  P  P23  1  0.86215850  0.16417250  0.83318300  1
  O  O24  1  0.10024200  0.29307100  0.22291400  1
  O  O25  1  0.64088950  0.12623250  0.21974600  1
  O  O26  1  0.11528650  0.86008650  0.99357200  1
  O  O27  1  0.75053500  0.39920300  0.30386600  1
  O  O28  1  0.93542500  0.07896900  0.79279700  1
  O  O29  1  0.74946500  0.89920300  0.19613400  1
  O  O30  1  0.88471350  0.86008650  0.50642800  1
  O  O31  1  0.92840400  0.43891100  0.54803100  1
  O  O32  1  0.07159600  0.43891100  0.95196900  1
  O  O33  1  0.85911050  0.62623250  0.28025400  1
  O  O34  1  0.89975800  0.29307100  0.27708600  1
  O  O35  1  0.06457500  0.07896900  0.70720300  1
  O  O36  1  0.93542500  0.92103100  0.29279700  1
  O  O37  1  0.10024200  0.70692900  0.72291400  1
  O  O38  1  0.14088950  0.37376750  0.71974600  1
  O  O39  1  0.92840400  0.56108900  0.04803100  1
  O  O40  1  0.07159600  0.56108900  0.45196900  1
  O  O41  1  0.11528650  0.13991350  0.49357200  1
  O  O42  1  0.25053500  0.10079700  0.80386600  1
  O  O43  1  0.06457500  0.92103100  0.20720300  1
  O  O44  1  0.24946500  0.60079700  0.69613400  1
  O  O45  1  0.88471350  0.13991350  0.00642800  1
  O  O46  1  0.35911050  0.87376750  0.78025400  1
  O  O47  1  0.89975800  0.70692900  0.77708600  1
  O  O48  1  0.60024200  0.79307100  0.22291400  1
  O  O49  1  0.14088950  0.62623250  0.21974600  1
  O  O50  1  0.61528650  0.36008650  0.99357200  1
  O  O51  1  0.25053500  0.89920300  0.30386600  1
  O  O52  1  0.43542500  0.57896900  0.79279700  1
  O  O53  1  0.24946500  0.39920300  0.19613400  1
  O  O54  1  0.38471350  0.36008650  0.50642800  1
  O  O55  1  0.42840400  0.93891100  0.54803100  1
  O  O56  1  0.57159600  0.93891100  0.95196900  1
  O  O57  1  0.35911050  0.12623250  0.28025400  1
  O  O58  1  0.39975800  0.79307100  0.27708600  1
  O  O59  1  0.56457500  0.57896900  0.70720300  1
  O  O60  1  0.43542500  0.42103100  0.29279700  1
  O  O61  1  0.60024200  0.20692900  0.72291400  1
  O  O62  1  0.64088950  0.87376750  0.71974600  1
  O  O63  1  0.42840400  0.06108900  0.04803100  1
  O  O64  1  0.57159600  0.06108900  0.45196900  1
  O  O65  1  0.61528650  0.63991350  0.49357200  1
  O  O66  1  0.75053500  0.60079700  0.80386600  1
  O  O67  1  0.56457500  0.42103100  0.20720300  1
  O  O68  1  0.74946500  0.10079700  0.69613400  1
  O  O69  1  0.38471350  0.63991350  0.00642800  1
  O  O70  1  0.85911050  0.37376750  0.78025400  1
  O  O71  1  0.39975800  0.20692900  0.77708600  1
