# generated using pymatgen
data_Li5SbS4
_symmetry_space_group_name_H-M   'P 1'
_cell_length_a   3.91522000
_cell_length_b   7.14342000
_cell_length_c   13.47729600
_cell_angle_alpha   90.00000000
_cell_angle_beta   90.00000000
_cell_angle_gamma   90.00000000
_symmetry_Int_Tables_number   1
_chemical_formula_structural   Li5SbS4
_chemical_formula_sum   'Li10 Sb2 S8'
_cell_volume   376.93383465
_cell_formula_units_Z   2
loop_
 _symmetry_equiv_pos_site_id
 _symmetry_equiv_pos_as_xyz
  1  'x, y, z'
loop_
 _atom_site_type_symbol
 _atom_site_label
 _atom_site_symmetry_multiplicity
 _atom_site_fract_x
 _atom_site_fract_y
 _atom_site_fract_z
 _atom_site_occupancy
  Li  Li0  1  0.50000000  0.71713600  0.67642500  1
  Li  Li1  1  0.50000000  0.28286400  0.67642500  1
  Li  Li2  1  0.00000000  0.21713600  0.82357500  1
  Li  Li3  1  0.00000000  0.78286400  0.82357500  1
  Li  Li4  1  0.50000000  0.50000000  0.00000000  1
  Li  Li5  1  0.00000000  0.21713600  0.17642500  1
  Li  Li6  1  0.00000000  0.78286400  0.17642500  1
  Li  Li7  1  0.50000000  0.71713600  0.32357500  1
  Li  Li8  1  0.50000000  0.28286400  0.32357500  1
  Li  Li9  1  0.00000000  0.00000000  0.50000000  1
  Sb  Sb10  1  0.50000000  0.00000000  0.00000000  1
  Sb  Sb11  1  0.00000000  0.50000000  0.50000000  1
  S  S12  1  0.00000000  0.72955400  0.00000000  1
  S  S13  1  0.00000000  0.50000000  0.71039600  1
  S  S14  1  0.50000000  0.00000000  0.78960400  1
  S  S15  1  0.00000000  0.27044600  0.00000000  1
  S  S16  1  0.50000000  0.22955400  0.50000000  1
  S  S17  1  0.50000000  0.00000000  0.21039600  1
  S  S18  1  0.00000000  0.50000000  0.28960400  1
  S  S19  1  0.50000000  0.77044600  0.50000000  1
