# generated using pymatgen
data_Sn(PO3)2
_symmetry_space_group_name_H-M   'P 1'
_cell_length_a   11.41181600
_cell_length_b   11.44309000
_cell_length_c   9.77355700
_cell_angle_alpha   90.00000000
_cell_angle_beta   90.00000000
_cell_angle_gamma   90.00000000
_symmetry_Int_Tables_number   1
_chemical_formula_structural   Sn(PO3)2
_chemical_formula_sum   'Sn8 P16 O48'
_cell_volume   1276.29399084
_cell_formula_units_Z   8
loop_
 _symmetry_equiv_pos_site_id
 _symmetry_equiv_pos_as_xyz
  1  'x, y, z'
loop_
 _atom_site_type_symbol
 _atom_site_label
 _atom_site_symmetry_multiplicity
 _atom_site_fract_x
 _atom_site_fract_y
 _atom_site_fract_z
 _atom_site_occupancy
  Sn  Sn0  1  0.41779700  0.22874700  0.49142500  1
  Sn  Sn1  1  0.41779700  0.77125300  0.50857500  1
  Sn  Sn2  1  0.58220300  0.22874700  0.00857500  1
  Sn  Sn3  1  0.58220300  0.77125300  0.99142500  1
  Sn  Sn4  1  0.91779700  0.72874700  0.49142500  1
  Sn  Sn5  1  0.91779700  0.27125300  0.50857500  1
  Sn  Sn6  1  0.08220300  0.72874700  0.00857500  1
  Sn  Sn7  1  0.08220300  0.27125300  0.99142500  1
  P  P8  1  0.22892650  0.11120450  0.23813100  1
  P  P9  1  0.22892650  0.88879550  0.76186900  1
  P  P10  1  0.35223400  0.00000000  0.00000000  1
  P  P11  1  0.50000000  0.52840100  0.75000000  1
  P  P12  1  0.50000000  0.47159900  0.25000000  1
  P  P13  1  0.64776600  0.00000000  0.50000000  1
  P  P14  1  0.77107350  0.88879550  0.73813100  1
  P  P15  1  0.77107350  0.11120450  0.26186900  1
  P  P16  1  0.72892650  0.61120450  0.23813100  1
  P  P17  1  0.72892650  0.38879550  0.76186900  1
  P  P18  1  0.85223400  0.50000000  0.00000000  1
  P  P19  1  0.00000000  0.02840100  0.75000000  1
  P  P20  1  0.00000000  0.97159900  0.25000000  1
  P  P21  1  0.14776600  0.50000000  0.50000000  1
  P  P22  1  0.27107350  0.38879550  0.73813100  1
  P  P23  1  0.27107350  0.61120450  0.26186900  1
  O  O24  1  0.10276100  0.06510100  0.28674100  1
  O  O25  1  0.10276100  0.93489900  0.71325900  1
  O  O26  1  0.31215200  0.10207300  0.35852800  1
  O  O27  1  0.31215200  0.89792700  0.64147200  1
  O  O28  1  0.26298700  0.01223200  0.12711900  1
  O  O29  1  0.26298700  0.98776800  0.87288100  1
  O  O30  1  0.28309500  0.27020500  0.67339300  1
  O  O31  1  0.28309500  0.72979500  0.32660700  1
  O  O32  1  0.47087900  0.59354900  0.62136300  1
  O  O33  1  0.47087900  0.40645100  0.37863700  1
  O  O34  1  0.41770700  0.88743300  0.01976100  1
  O  O35  1  0.41770700  0.11256700  0.98023900  1
  O  O36  1  0.58229300  0.11256700  0.51976100  1
  O  O37  1  0.58229300  0.88743300  0.48023900  1
  O  O38  1  0.52912100  0.59354900  0.87863700  1
  O  O39  1  0.52912100  0.40645100  0.12136300  1
  O  O40  1  0.71690500  0.27020500  0.82660700  1
  O  O41  1  0.71690500  0.72979500  0.17339300  1
  O  O42  1  0.73701300  0.98776800  0.62711900  1
  O  O43  1  0.73701300  0.01223200  0.37288100  1
  O  O44  1  0.68784800  0.89792700  0.85852800  1
  O  O45  1  0.68784800  0.10207300  0.14147200  1
  O  O46  1  0.89723900  0.06510100  0.21325900  1
  O  O47  1  0.89723900  0.93489900  0.78674100  1
  O  O48  1  0.60276100  0.56510100  0.28674100  1
  O  O49  1  0.60276100  0.43489900  0.71325900  1
  O  O50  1  0.81215200  0.60207300  0.35852800  1
  O  O51  1  0.81215200  0.39792700  0.64147200  1
  O  O52  1  0.76298700  0.51223200  0.12711900  1
  O  O53  1  0.76298700  0.48776800  0.87288100  1
  O  O54  1  0.78309500  0.77020500  0.67339300  1
  O  O55  1  0.78309500  0.22979500  0.32660700  1
  O  O56  1  0.97087900  0.09354900  0.62136300  1
  O  O57  1  0.97087900  0.90645100  0.37863700  1
  O  O58  1  0.91770700  0.38743300  0.01976100  1
  O  O59  1  0.91770700  0.61256700  0.98023900  1
  O  O60  1  0.08229300  0.61256700  0.51976100  1
  O  O61  1  0.08229300  0.38743300  0.48023900  1
  O  O62  1  0.02912100  0.09354900  0.87863700  1
  O  O63  1  0.02912100  0.90645100  0.12136300  1
  O  O64  1  0.21690500  0.77020500  0.82660700  1
  O  O65  1  0.21690500  0.22979500  0.17339300  1
  O  O66  1  0.23701300  0.48776800  0.62711900  1
  O  O67  1  0.23701300  0.51223200  0.37288100  1
  O  O68  1  0.18784800  0.39792700  0.85852800  1
  O  O69  1  0.18784800  0.60207300  0.14147200  1
  O  O70  1  0.39723900  0.56510100  0.21325900  1
  O  O71  1  0.39723900  0.43489900  0.78674100  1
