# generated using pymatgen
data_Fe8O9
_symmetry_space_group_name_H-M   'P 1'
_cell_length_a   6.19122700
_cell_length_b   6.83548476
_cell_length_c   9.26247020
_cell_angle_alpha   102.96090821
_cell_angle_beta   90.29095650
_cell_angle_gamma   103.72882183
_symmetry_Int_Tables_number   1
_chemical_formula_structural   Fe8O9
_chemical_formula_sum   'Fe16 O18'
_cell_volume   370.38316944
_cell_formula_units_Z   2
loop_
 _symmetry_equiv_pos_site_id
 _symmetry_equiv_pos_as_xyz
  1  'x, y, z'
loop_
 _atom_site_type_symbol
 _atom_site_label
 _atom_site_symmetry_multiplicity
 _atom_site_fract_x
 _atom_site_fract_y
 _atom_site_fract_z
 _atom_site_occupancy
  Fe  Fe0  1  0.50348000  0.99352800  0.99792500  1
  Fe  Fe1  1  0.83345200  0.32780000  0.89032600  1
  Fe  Fe2  1  0.16615400  0.66933300  0.77760500  1
  Fe  Fe3  1  0.49388500  0.00768300  0.66364500  1
  Fe  Fe4  1  0.32827800  0.32870000  0.88797900  1
  Fe  Fe5  1  0.65856100  0.65602700  0.44706000  1
  Fe  Fe6  1  0.66184300  0.66240600  0.77465800  1
  Fe  Fe7  1  0.84035400  0.33752500  0.55738300  1
  Fe  Fe8  1  0.00037800  0.00008400  0.67128900  1
  Fe  Fe9  1  0.17187100  0.65729400  0.44549800  1
  Fe  Fe10  1  0.49811000  0.00429000  0.33940500  1
  Fe  Fe11  1  0.83841800  0.32991100  0.21816200  1
  Fe  Fe12  1  0.00741800  0.00393200  0.33541800  1
  Fe  Fe13  1  0.15887800  0.68083300  0.10826800  1
  Fe  Fe14  1  0.32745800  0.33147400  0.21789900  1
  Fe  Fe15  1  0.67457300  0.67600400  0.10940700  1
  O  O16  1  0.89339300  0.64026000  0.93846800  1
  O  O17  1  0.26944400  0.00130400  0.81886000  1
  O  O18  1  0.41290500  0.65780200  0.94317900  1
  O  O19  1  0.59744000  0.32004700  0.73257600  1
  O  O20  1  0.73503000  0.01119000  0.82374000  1
  O  O21  1  0.91722000  0.66604400  0.60868600  1
  O  O22  1  0.05943400  0.33446200  0.73744600  1
  O  O23  1  0.25471800  0.97883800  0.49407800  1
  O  O24  1  0.43305300  0.69565500  0.61675200  1
  O  O25  1  0.59885500  0.32537600  0.37082500  1
  O  O26  1  0.73238000  0.00153500  0.49973800  1
  O  O27  1  0.91156600  0.65692200  0.28082500  1
  O  O28  1  0.06717200  0.33549700  0.37206600  1
  O  O29  1  0.27775700  0.99932300  0.17884000  1
  O  O30  1  0.42765700  0.68019500  0.27692700  1
  O  O31  1  0.60096100  0.32865600  0.05715200  1
  O  O32  1  0.74001800  0.01189400  0.18903800  1
  O  O33  1  0.07455200  0.35484300  0.06331900  1
