# generated using pymatgen
data_MgAl10O16
_symmetry_space_group_name_H-M   'P 1'
_cell_length_a   5.71907015
_cell_length_b   5.71907015
_cell_length_c   27.38255244
_cell_angle_alpha   90.00000000
_cell_angle_beta   90.00000000
_cell_angle_gamma   120.00000000
_symmetry_Int_Tables_number   1
_chemical_formula_structural   MgAl10O16
_chemical_formula_sum   'Mg3 Al30 O48'
_cell_volume   775.63144372
_cell_formula_units_Z   3
loop_
 _symmetry_equiv_pos_site_id
 _symmetry_equiv_pos_as_xyz
  1  'x, y, z'
loop_
 _atom_site_type_symbol
 _atom_site_label
 _atom_site_symmetry_multiplicity
 _atom_site_fract_x
 _atom_site_fract_y
 _atom_site_fract_z
 _atom_site_occupancy
  Mg  Mg0  1  0.00000000  0.00000000  0.19001900  1
  Mg  Mg1  1  0.66666667  0.33333333  0.52335233  1
  Mg  Mg2  1  0.33333333  0.66666667  0.85668567  1
  Al  Al3  1  0.66666667  0.33333333  0.02354133  1
  Al  Al4  1  0.16129800  0.32259600  0.07919600  1
  Al  Al5  1  0.66666667  0.33333333  0.14407733  1
  Al  Al6  1  0.16129800  0.83870200  0.07919600  1
  Al  Al7  1  0.99753133  0.49876567  0.25317667  1
  Al  Al8  1  0.67740400  0.83870200  0.07919600  1
  Al  Al9  1  0.50123433  0.49876567  0.25317667  1
  Al  Al10  1  0.50123433  0.00246867  0.25317667  1
  Al  Al11  1  0.33333333  0.66666667  0.16888267  1
  Al  Al12  1  0.00000000  0.00000000  0.30822300  1
  Al  Al13  1  0.33333333  0.66666667  0.35687467  1
  Al  Al14  1  0.82796467  0.65592933  0.41252933  1
  Al  Al15  1  0.33333333  0.66666667  0.47741067  1
  Al  Al16  1  0.82796467  0.17203533  0.41252933  1
  Al  Al17  1  0.66419800  0.83209900  0.58651000  1
  Al  Al18  1  0.34407067  0.17203533  0.41252933  1
  Al  Al19  1  0.16790100  0.83209900  0.58651000  1
  Al  Al20  1  0.16790100  0.33580200  0.58651000  1
  Al  Al21  1  0.00000000  0.00000000  0.50221600  1
  Al  Al22  1  0.66666667  0.33333333  0.64155633  1
  Al  Al23  1  0.00000000  0.00000000  0.69020800  1
  Al  Al24  1  0.49463133  0.98926267  0.74586267  1
  Al  Al25  1  0.00000000  0.00000000  0.81074400  1
  Al  Al26  1  0.49463133  0.50536867  0.74586267  1
  Al  Al27  1  0.33086467  0.16543233  0.91984333  1
  Al  Al28  1  0.01073733  0.50536867  0.74586267  1
  Al  Al29  1  0.83456767  0.16543233  0.91984333  1
  Al  Al30  1  0.83456767  0.66913533  0.91984333  1
  Al  Al31  1  0.66666667  0.33333333  0.83554933  1
  Al  Al32  1  0.33333333  0.66666667  0.97488967  1
  O  O33  1  0.02502533  0.51251267  0.12417167  1
  O  O34  1  0.48748733  0.51251267  0.12417167  1
  O  O35  1  0.33476867  0.16738433  0.04689133  1
  O  O36  1  0.83261567  0.16738433  0.04689133  1
  O  O37  1  0.83261567  0.66523133  0.04689133  1
  O  O38  1  0.33333333  0.66666667  0.29125267  1
  O  O39  1  0.18704967  0.37409933  0.21156733  1
  O  O40  1  0.00000000  0.00000000  0.11729300  1
  O  O41  1  0.33333333  0.66666667  0.04368467  1
  O  O42  1  0.48748733  0.97497467  0.12417167  1
  O  O43  1  0.83185633  0.66371267  0.28586867  1
  O  O44  1  0.66666667  0.33333333  0.21070433  1
  O  O45  1  0.33628733  0.16814367  0.28586867  1
  O  O46  1  0.83185633  0.16814367  0.28586867  1
  O  O47  1  0.18704967  0.81295033  0.21156733  1
  O  O48  1  0.62590067  0.81295033  0.21156733  1
  O  O49  1  0.69169200  0.84584600  0.45750500  1
  O  O50  1  0.15415400  0.84584600  0.45750500  1
  O  O51  1  0.00143533  0.50071767  0.38022467  1
  O  O52  1  0.49928233  0.50071767  0.38022467  1
  O  O53  1  0.49928233  0.99856467  0.38022467  1
  O  O54  1  0.00000000  0.00000000  0.62458600  1
  O  O55  1  0.85371633  0.70743267  0.54490067  1
  O  O56  1  0.66666667  0.33333333  0.45062633  1
  O  O57  1  0.00000000  0.00000000  0.37701800  1
  O  O58  1  0.15415400  0.30830800  0.45750500  1
  O  O59  1  0.49852300  0.99704600  0.61920200  1
  O  O60  1  0.33333333  0.66666667  0.54403767  1
  O  O61  1  0.00295400  0.50147700  0.61920200  1
  O  O62  1  0.49852300  0.50147700  0.61920200  1
  O  O63  1  0.85371633  0.14628367  0.54490067  1
  O  O64  1  0.29256733  0.14628367  0.54490067  1
  O  O65  1  0.35835867  0.17917933  0.79083833  1
  O  O66  1  0.82082067  0.17917933  0.79083833  1
  O  O67  1  0.66810200  0.83405100  0.71355800  1
  O  O68  1  0.16594900  0.83405100  0.71355800  1
  O  O69  1  0.16594900  0.33189800  0.71355800  1
  O  O70  1  0.66666667  0.33333333  0.95791933  1
  O  O71  1  0.52038300  0.04076600  0.87823400  1
  O  O72  1  0.33333333  0.66666667  0.78395967  1
  O  O73  1  0.66666667  0.33333333  0.71035133  1
  O  O74  1  0.82082067  0.64164133  0.79083833  1
  O  O75  1  0.16518967  0.33037933  0.95253533  1
  O  O76  1  0.00000000  0.00000000  0.87737100  1
  O  O77  1  0.66962067  0.83481033  0.95253533  1
  O  O78  1  0.16518967  0.83481033  0.95253533  1
  O  O79  1  0.52038300  0.47961700  0.87823400  1
  O  O80  1  0.95923400  0.47961700  0.87823400  1
