# generated using pymatgen
data_Mn3OF5
_symmetry_space_group_name_H-M   'P 1'
_cell_length_a   9.42630600
_cell_length_b   7.13872000
_cell_length_c   7.53947703
_cell_angle_alpha   90.00000000
_cell_angle_beta   111.43762319
_cell_angle_gamma   90.00000000
_symmetry_Int_Tables_number   1
_chemical_formula_structural   Mn3OF5
_chemical_formula_sum   'Mn12 O4 F20'
_cell_volume   472.24454875
_cell_formula_units_Z   4
loop_
 _symmetry_equiv_pos_site_id
 _symmetry_equiv_pos_as_xyz
  1  'x, y, z'
loop_
 _atom_site_type_symbol
 _atom_site_label
 _atom_site_symmetry_multiplicity
 _atom_site_fract_x
 _atom_site_fract_y
 _atom_site_fract_z
 _atom_site_occupancy
  Mn  Mn0  1  0.00000000  0.50000000  0.00000000  1
  Mn  Mn1  1  0.34908800  0.50000000  0.84425000  1
  Mn  Mn2  1  0.00000000  0.50000000  0.50000000  1
  Mn  Mn3  1  0.34219500  0.50000000  0.32078000  1
  Mn  Mn4  1  0.65780500  0.50000000  0.67922000  1
  Mn  Mn5  1  0.65091200  0.50000000  0.15575000  1
  Mn  Mn6  1  0.50000000  0.00000000  0.00000000  1
  Mn  Mn7  1  0.84908800  0.00000000  0.84425000  1
  Mn  Mn8  1  0.50000000  0.00000000  0.50000000  1
  Mn  Mn9  1  0.84219500  0.00000000  0.32078000  1
  Mn  Mn10  1  0.15780500  0.00000000  0.67922000  1
  Mn  Mn11  1  0.15091200  0.00000000  0.15575000  1
  O  O12  1  0.43812400  0.50000000  0.12040800  1
  O  O13  1  0.56187600  0.50000000  0.87959200  1
  O  O14  1  0.93812400  0.00000000  0.12040800  1
  O  O15  1  0.06187600  0.00000000  0.87959200  1
  F  F16  1  0.83359600  0.69073900  0.82545600  1
  F  F17  1  0.00000000  0.20188300  0.50000000  1
  F  F18  1  0.75127500  0.50000000  0.44837600  1
  F  F19  1  0.12237200  0.50000000  0.80642100  1
  F  F20  1  0.87762800  0.50000000  0.19357900  1
  F  F21  1  0.24872500  0.50000000  0.55162400  1
  F  F22  1  0.00000000  0.79811700  0.50000000  1
  F  F23  1  0.83359600  0.30926100  0.82545600  1
  F  F24  1  0.16640400  0.30926100  0.17454400  1
  F  F25  1  0.16640400  0.69073900  0.17454400  1
  F  F26  1  0.33359600  0.19073900  0.82545600  1
  F  F27  1  0.50000000  0.70188300  0.50000000  1
  F  F28  1  0.25127500  0.00000000  0.44837600  1
  F  F29  1  0.62237200  0.00000000  0.80642100  1
  F  F30  1  0.37762800  0.00000000  0.19357900  1
  F  F31  1  0.74872500  0.00000000  0.55162400  1
  F  F32  1  0.50000000  0.29811700  0.50000000  1
  F  F33  1  0.33359600  0.80926100  0.82545600  1
  F  F34  1  0.66640400  0.80926100  0.17454400  1
  F  F35  1  0.66640400  0.19073900  0.17454400  1
