# generated using pymatgen
data_Bi3O4F
_symmetry_space_group_name_H-M   'P 1'
_cell_length_a   4.06674800
_cell_length_b   12.60057400
_cell_length_c   11.57310100
_cell_angle_alpha   90.00000000
_cell_angle_beta   90.00000000
_cell_angle_gamma   90.00000000
_symmetry_Int_Tables_number   1
_chemical_formula_structural   Bi3O4F
_chemical_formula_sum   'Bi12 O16 F4'
_cell_volume   593.04457060
_cell_formula_units_Z   4
loop_
 _symmetry_equiv_pos_site_id
 _symmetry_equiv_pos_as_xyz
  1  'x, y, z'
loop_
 _atom_site_type_symbol
 _atom_site_label
 _atom_site_symmetry_multiplicity
 _atom_site_fract_x
 _atom_site_fract_y
 _atom_site_fract_z
 _atom_site_occupancy
  Bi  Bi0  1  0.50000000  0.16915300  0.75000000  1
  Bi  Bi1  1  0.50000000  0.13331800  0.09306500  1
  Bi  Bi2  1  0.50000000  0.13331800  0.40693500  1
  Bi  Bi3  1  0.00000000  0.36668200  0.59306500  1
  Bi  Bi4  1  0.00000000  0.36668200  0.90693500  1
  Bi  Bi5  1  0.00000000  0.33084700  0.25000000  1
  Bi  Bi6  1  0.00000000  0.66915300  0.75000000  1
  Bi  Bi7  1  0.00000000  0.63331800  0.09306500  1
  Bi  Bi8  1  0.00000000  0.63331800  0.40693500  1
  Bi  Bi9  1  0.50000000  0.86668200  0.59306500  1
  Bi  Bi10  1  0.50000000  0.86668200  0.90693500  1
  Bi  Bi11  1  0.50000000  0.83084700  0.25000000  1
  O  O12  1  0.50000000  0.03855800  0.25000000  1
  O  O13  1  0.00000000  0.24682300  0.75000000  1
  O  O14  1  0.50000000  0.27556200  0.90166900  1
  O  O15  1  0.50000000  0.27556200  0.59833100  1
  O  O16  1  0.00000000  0.22443800  0.40166900  1
  O  O17  1  0.00000000  0.22443800  0.09833100  1
  O  O18  1  0.50000000  0.25317700  0.25000000  1
  O  O19  1  0.00000000  0.46144200  0.75000000  1
  O  O20  1  0.00000000  0.53855800  0.25000000  1
  O  O21  1  0.50000000  0.74682300  0.75000000  1
  O  O22  1  0.00000000  0.77556200  0.90166900  1
  O  O23  1  0.00000000  0.77556200  0.59833100  1
  O  O24  1  0.50000000  0.72443800  0.40166900  1
  O  O25  1  0.50000000  0.72443800  0.09833100  1
  O  O26  1  0.00000000  0.75317700  0.25000000  1
  O  O27  1  0.50000000  0.96144200  0.75000000  1
  F  F28  1  0.00000000  0.00000000  0.50000000  1
  F  F29  1  0.00000000  0.00000000  0.00000000  1
  F  F30  1  0.50000000  0.50000000  0.50000000  1
  F  F31  1  0.50000000  0.50000000  0.00000000  1
