# generated using pymatgen
data_Na3PH22(SO4)3
_symmetry_space_group_name_H-M   'P 1'
_cell_length_a   9.53422200
_cell_length_b   12.99038300
_cell_length_c   14.28264500
_cell_angle_alpha   90.00000000
_cell_angle_beta   90.00000000
_cell_angle_gamma   90.00000000
_symmetry_Int_Tables_number   1
_chemical_formula_structural   Na3PH22(SO4)3
_chemical_formula_sum   'Na12 P4 H88 S12 O48'
_cell_volume   1768.95122183
_cell_formula_units_Z   4
loop_
 _symmetry_equiv_pos_site_id
 _symmetry_equiv_pos_as_xyz
  1  'x, y, z'
loop_
 _atom_site_type_symbol
 _atom_site_label
 _atom_site_symmetry_multiplicity
 _atom_site_fract_x
 _atom_site_fract_y
 _atom_site_fract_z
 _atom_site_occupancy
  Na  Na0  1  0.01469600  0.99079000  0.60064800  1
  Na  Na1  1  0.99367400  0.20783700  0.23303800  1
  Na  Na2  1  0.00674500  0.23668200  0.53886300  1
  Na  Na3  1  0.50674500  0.26331800  0.03886300  1
  Na  Na4  1  0.49367400  0.29216300  0.73303800  1
  Na  Na5  1  0.51469600  0.50921000  0.10064800  1
  Na  Na6  1  0.48530400  0.49079000  0.60064800  1
  Na  Na7  1  0.50632600  0.70783700  0.23303800  1
  Na  Na8  1  0.49325500  0.73668200  0.53886300  1
  Na  Na9  1  0.99325500  0.76331800  0.03886300  1
  Na  Na10  1  0.00632600  0.79216300  0.73303800  1
  Na  Na11  1  0.98530400  0.00921000  0.10064800  1
  P  P12  1  0.47523600  0.08833500  0.40240900  1
  P  P13  1  0.97523600  0.41166500  0.90240900  1
  P  P14  1  0.02476400  0.58833500  0.40240900  1
  P  P15  1  0.52476400  0.91166500  0.90240900  1
  H  H16  1  0.85536800  0.99657100  0.79085500  1
  H  H17  1  0.00925200  0.03399100  0.81612500  1
  H  H18  1  0.37176800  0.06166000  0.03730800  1
  H  H19  1  0.74133500  0.07663200  0.23954500  1
  H  H20  1  0.09416500  0.07987700  0.41596300  1
  H  H21  1  0.45206400  0.08212100  0.70760800  1
  H  H22  1  0.22496000  0.07881700  0.48373800  1
  H  H23  1  0.76790400  0.10015700  0.55069500  1
  H  H24  1  0.38679200  0.09192300  0.14582000  1
  H  H25  1  0.66488300  0.08048500  0.98854500  1
  H  H26  1  0.12205800  0.12163500  0.69912900  1
  H  H27  1  0.73807600  0.11845400  0.13278000  1
  H  H28  1  0.19684300  0.15348000  0.08189400  1
  H  H29  1  0.78474700  0.15021200  0.65245900  1
  H  H30  1  0.40121000  0.11457200  0.60772400  1
  H  H31  1  0.67603600  0.13957400  0.78833300  1
  H  H32  1  0.34807900  0.17672900  0.89010600  1
  H  H33  1  0.76973200  0.17771000  0.97340300  1
  H  H34  1  0.17179800  0.22869900  0.72084300  1
  H  H35  1  0.06523700  0.20372400  0.02845400  1
  H  H36  1  0.79529400  0.20809700  0.39406500  1
  H  H37  1  0.78884100  0.22815700  0.79928000  1
  H  H38  1  0.28884100  0.27184300  0.29928000  1
  H  H39  1  0.29529400  0.29190300  0.89406500  1
  H  H40  1  0.56523700  0.29627600  0.52845400  1
  H  H41  1  0.67179800  0.27130100  0.22084300  1
  H  H42  1  0.26973200  0.32229000  0.47340300  1
  H  H43  1  0.84807900  0.32327100  0.39010600  1
  H  H44  1  0.17603600  0.36042600  0.28833300  1
  H  H45  1  0.90121000  0.38542800  0.10772400  1
  H  H46  1  0.28474700  0.34978800  0.15245900  1
  H  H47  1  0.69684300  0.34652000  0.58189400  1
  H  H48  1  0.23807600  0.38154600  0.63278000  1
  H  H49  1  0.62205800  0.37836500  0.19912900  1
  H  H50  1  0.16488300  0.41951500  0.48854500  1
  H  H51  1  0.88679200  0.40807700  0.64582000  1
  H  H52  1  0.26790400  0.39984300  0.05069500  1
  H  H53  1  0.72496000  0.42118300  0.98373800  1
  H  H54  1  0.95206400  0.41787900  0.20760800  1
  H  H55  1  0.59416500  0.42012300  0.91596300  1
  H  H56  1  0.24133500  0.42336800  0.73954500  1
  H  H57  1  0.87176800  0.43834000  0.53730800  1
  H  H58  1  0.50925200  0.46600900  0.31612500  1
  H  H59  1  0.35536800  0.50342900  0.29085500  1
  H  H60  1  0.64463200  0.49657100  0.79085500  1
  H  H61  1  0.49074800  0.53399100  0.81612500  1
  H  H62  1  0.12823200  0.56166000  0.03730800  1
  H  H63  1  0.75866500  0.57663200  0.23954500  1
  H  H64  1  0.40583500  0.57987700  0.41596300  1
  H  H65  1  0.04793600  0.58212100  0.70760800  1
  H  H66  1  0.27504000  0.57881700  0.48373800  1
  H  H67  1  0.73209600  0.60015700  0.55069500  1
  H  H68  1  0.11320800  0.59192300  0.14582000  1
  H  H69  1  0.83511700  0.58048500  0.98854500  1
  H  H70  1  0.37794200  0.62163500  0.69912900  1
  H  H71  1  0.76192400  0.61845400  0.13278000  1
  H  H72  1  0.30315700  0.65348000  0.08189400  1
  H  H73  1  0.71525300  0.65021200  0.65245900  1
  H  H74  1  0.09879000  0.61457200  0.60772400  1
  H  H75  1  0.82396400  0.63957400  0.78833300  1
  H  H76  1  0.15192100  0.67672900  0.89010600  1
  H  H77  1  0.73026800  0.67771000  0.97340300  1
  H  H78  1  0.32820200  0.72869900  0.72084300  1
  H  H79  1  0.43476300  0.70372400  0.02845400  1
  H  H80  1  0.70470600  0.70809700  0.39406500  1
  H  H81  1  0.71115900  0.72815700  0.79928000  1
  H  H82  1  0.21115900  0.77184300  0.29928000  1
  H  H83  1  0.20470600  0.79190300  0.89406500  1
  H  H84  1  0.93476300  0.79627600  0.52845400  1
  H  H85  1  0.82820200  0.77130100  0.22084300  1
  H  H86  1  0.23026800  0.82229000  0.47340300  1
  H  H87  1  0.65192100  0.82327100  0.39010600  1
  H  H88  1  0.32396400  0.86042600  0.28833300  1
  H  H89  1  0.59879000  0.88542800  0.10772400  1
  H  H90  1  0.21525300  0.84978800  0.15245900  1
  H  H91  1  0.80315700  0.84652000  0.58189400  1
  H  H92  1  0.26192400  0.88154600  0.63278000  1
  H  H93  1  0.87794200  0.87836500  0.19912900  1
  H  H94  1  0.33511700  0.91951500  0.48854500  1
  H  H95  1  0.61320800  0.90807700  0.64582000  1
  H  H96  1  0.23209600  0.89984300  0.05069500  1
  H  H97  1  0.77504000  0.92118300  0.98373800  1
  H  H98  1  0.54793600  0.91787900  0.20760800  1
  H  H99  1  0.90583500  0.92012300  0.91596300  1
  H  H100  1  0.25866500  0.92336800  0.73954500  1
  H  H101  1  0.62823200  0.93834000  0.53730800  1
  H  H102  1  0.99074800  0.96600900  0.31612500  1
  H  H103  1  0.14463200  0.00342900  0.29085500  1
  S  S104  1  0.38382200  0.02350400  0.28412600  1
  S  S105  1  0.68204600  0.03996800  0.40806900  1
  S  S106  1  0.96792000  0.25427600  0.89668000  1
  S  S107  1  0.46792000  0.24572400  0.39668000  1
  S  S108  1  0.18204600  0.46003200  0.90806900  1
  S  S109  1  0.88382200  0.47649600  0.78412600  1
  S  S110  1  0.11617800  0.52350400  0.28412600  1
  S  S111  1  0.81795400  0.53996800  0.40806900  1
  S  S112  1  0.53208000  0.75427600  0.89668000  1
  S  S113  1  0.03208000  0.74572400  0.39668000  1
  S  S114  1  0.31795400  0.96003200  0.90806900  1
  S  S115  1  0.61617800  0.97649600  0.78412600  1
  O  O116  1  0.04392800  0.02348500  0.28969300  1
  O  O117  1  0.39416500  0.04836800  0.48952000  1
  O  O118  1  0.11984900  0.08677100  0.48221700  1
  O  O119  1  0.79931900  0.09931700  0.18619600  1
  O  O120  1  0.36990500  0.12003400  0.08174300  1
  O  O121  1  0.83665900  0.11720200  0.60009800  1
  O  O122  1  0.40082700  0.13661900  0.67425500  1
  O  O123  1  0.09262000  0.16183600  0.08365100  1
  O  O124  1  0.69244800  0.15005600  0.01194000  1
  O  O125  1  0.09588600  0.19295500  0.68858600  1
  O  O126  1  0.70807700  0.20542100  0.76014700  1
  O  O127  1  0.37967000  0.24817100  0.88597200  1
  O  O128  1  0.87967000  0.25182900  0.38597200  1
  O  O129  1  0.20807700  0.29457900  0.26014700  1
  O  O130  1  0.59588600  0.30704500  0.18858600  1
  O  O131  1  0.19244800  0.34994400  0.51194000  1
  O  O132  1  0.59262000  0.33816400  0.58365100  1
  O  O133  1  0.90082700  0.36338100  0.17425500  1
  O  O134  1  0.33665900  0.38279800  0.10009800  1
  O  O135  1  0.86990500  0.37996600  0.58174300  1
  O  O136  1  0.29931900  0.40068300  0.68619600  1
  O  O137  1  0.61984900  0.41322900  0.98221700  1
  O  O138  1  0.89416500  0.45163200  0.98952000  1
  O  O139  1  0.54392800  0.47651500  0.78969300  1
  O  O140  1  0.45607200  0.52348500  0.28969300  1
  O  O141  1  0.10583500  0.54836800  0.48952000  1
  O  O142  1  0.38015100  0.58677100  0.48221700  1
  O  O143  1  0.70068100  0.59931700  0.18619600  1
  O  O144  1  0.13009500  0.62003400  0.08174300  1
  O  O145  1  0.66334100  0.61720200  0.60009800  1
  O  O146  1  0.09917300  0.63661900  0.67425500  1
  O  O147  1  0.40738000  0.66183600  0.08365100  1
  O  O148  1  0.80755200  0.65005600  0.01194000  1
  O  O149  1  0.40411400  0.69295500  0.68858600  1
  O  O150  1  0.79192300  0.70542100  0.76014700  1
  O  O151  1  0.12033000  0.74817100  0.88597200  1
  O  O152  1  0.62033000  0.75182900  0.38597200  1
  O  O153  1  0.29192300  0.79457900  0.26014700  1
  O  O154  1  0.90411400  0.80704500  0.18858600  1
  O  O155  1  0.30755200  0.84994400  0.51194000  1
  O  O156  1  0.90738000  0.83816400  0.58365100  1
  O  O157  1  0.59917300  0.86338100  0.17425500  1
  O  O158  1  0.16334100  0.88279800  0.10009800  1
  O  O159  1  0.63009500  0.87996600  0.58174300  1
  O  O160  1  0.20068100  0.90068300  0.68619600  1
  O  O161  1  0.88015100  0.91322900  0.98221700  1
  O  O162  1  0.60583500  0.95163200  0.98952000  1
  O  O163  1  0.95607200  0.97651500  0.78969300  1
