# generated using pymatgen
data_Li2VF4
_symmetry_space_group_name_H-M   'P 1'
_cell_length_a   14.43046168
_cell_length_b   14.43046168
_cell_length_c   9.16619418
_cell_angle_alpha   90.00000000
_cell_angle_beta   90.00000000
_cell_angle_gamma   120.00000000
_symmetry_Int_Tables_number   1
_chemical_formula_structural   Li2VF4
_chemical_formula_sum   'Li36 V18 F72'
_cell_volume   1653.02772182
_cell_formula_units_Z   18
loop_
 _symmetry_equiv_pos_site_id
 _symmetry_equiv_pos_as_xyz
  1  'x, y, z'
loop_
 _atom_site_type_symbol
 _atom_site_label
 _atom_site_symmetry_multiplicity
 _atom_site_fract_x
 _atom_site_fract_y
 _atom_site_fract_z
 _atom_site_occupancy
  Li  Li0  1  0.61745833  0.49369267  0.41369667  1
  Li  Li1  1  0.49369267  0.87623433  0.58630333  1
  Li  Li2  1  0.81600600  0.76404100  0.39850200  1
  Li  Li3  1  0.12376567  0.61745833  0.58630333  1
  Li  Li4  1  0.76404100  0.94803500  0.60149800  1
  Li  Li5  1  0.05196500  0.81600600  0.60149800  1
  Li  Li6  1  0.94803500  0.18399400  0.39850200  1
  Li  Li7  1  0.23595900  0.05196500  0.39850200  1
  Li  Li8  1  0.87623433  0.38254167  0.41369667  1
  Li  Li9  1  0.18399400  0.23595900  0.60149800  1
  Li  Li10  1  0.50630733  0.12376567  0.41369667  1
  Li  Li11  1  0.38254167  0.50630733  0.58630333  1
  Li  Li12  1  0.28412500  0.82702600  0.74703000  1
  Li  Li13  1  0.16035933  0.20956767  0.91963667  1
  Li  Li14  1  0.48267267  0.09737433  0.73183533  1
  Li  Li15  1  0.79043233  0.95079167  0.91963667  1
  Li  Li16  1  0.43070767  0.28136833  0.93483133  1
  Li  Li17  1  0.71863167  0.14933933  0.93483133  1
  Li  Li18  1  0.61470167  0.51732733  0.73183533  1
  Li  Li19  1  0.90262567  0.38529833  0.73183533  1
  Li  Li20  1  0.54290100  0.71587500  0.74703000  1
  Li  Li21  1  0.85066067  0.56929233  0.93483133  1
  Li  Li22  1  0.17297400  0.45709900  0.74703000  1
  Li  Li23  1  0.04920833  0.83964067  0.91963667  1
  Li  Li24  1  0.95079167  0.16035933  0.08036333  1
  Li  Li25  1  0.82702600  0.54290100  0.25297000  1
  Li  Li26  1  0.14933933  0.43070767  0.06516867  1
  Li  Li27  1  0.45709900  0.28412500  0.25297000  1
  Li  Li28  1  0.09737433  0.61470167  0.26816467  1
  Li  Li29  1  0.38529833  0.48267267  0.26816467  1
  Li  Li30  1  0.28136833  0.85066067  0.06516867  1
  Li  Li31  1  0.56929233  0.71863167  0.06516867  1
  Li  Li32  1  0.20956767  0.04920833  0.08036333  1
  Li  Li33  1  0.51732733  0.90262567  0.26816467  1
  Li  Li34  1  0.83964067  0.79043233  0.08036333  1
  Li  Li35  1  0.71587500  0.17297400  0.25297000  1
  V  V36  1  0.59992033  0.71661167  0.42606967  1
  V  V37  1  0.88330867  0.59992033  0.57393033  1
  V  V38  1  0.71661167  0.11669133  0.57393033  1
  V  V39  1  0.28338833  0.88330867  0.42606967  1
  V  V40  1  0.11669133  0.40007967  0.42606967  1
  V  V41  1  0.40007967  0.28338833  0.57393033  1
  V  V42  1  0.26658700  0.04994500  0.75940300  1
  V  V43  1  0.54997533  0.93325367  0.90726367  1
  V  V44  1  0.38327833  0.45002467  0.90726367  1
  V  V45  1  0.95005500  0.21664200  0.75940300  1
  V  V46  1  0.78335800  0.73341300  0.75940300  1
  V  V47  1  0.06674633  0.61672167  0.90726367  1
  V  V48  1  0.93325367  0.38327833  0.09273633  1
  V  V49  1  0.21664200  0.26658700  0.24059700  1
  V  V50  1  0.04994500  0.78335800  0.24059700  1
  V  V51  1  0.61672167  0.54997533  0.09273633  1
  V  V52  1  0.45002467  0.06674633  0.09273633  1
  V  V53  1  0.73341300  0.95005500  0.24059700  1
  F  F54  1  0.53794633  0.77832167  0.57301667  1
  F  F55  1  0.33979500  0.98704900  0.62025000  1
  F  F56  1  0.75962467  0.53794633  0.42698333  1
  F  F57  1  0.35274600  0.33979500  0.37975000  1
  F  F58  1  0.88936033  0.75448667  0.57444567  1
  F  F59  1  0.90564733  0.78124167  0.24886167  1
  F  F60  1  0.78124167  0.87559433  0.75113833  1
  F  F61  1  0.98704900  0.64725400  0.37975000  1
  F  F62  1  0.75448667  0.86512633  0.42555433  1
  F  F63  1  0.13487367  0.88936033  0.42555433  1
  F  F64  1  0.77832167  0.24037533  0.42698333  1
  F  F65  1  0.12440567  0.90564733  0.75113833  1
  F  F66  1  0.87559433  0.09435267  0.24886167  1
  F  F67  1  0.22167833  0.75962467  0.57301667  1
  F  F68  1  0.86512633  0.11063967  0.57444567  1
  F  F69  1  0.24551333  0.13487367  0.57444567  1
  F  F70  1  0.01295100  0.35274600  0.62025000  1
  F  F71  1  0.21875833  0.12440567  0.24886167  1
  F  F72  1  0.09435267  0.21875833  0.75113833  1
  F  F73  1  0.11063967  0.24551333  0.42555433  1
  F  F74  1  0.64725400  0.66020500  0.62025000  1
  F  F75  1  0.24037533  0.46205367  0.57301667  1
  F  F76  1  0.66020500  0.01295100  0.37975000  1
  F  F77  1  0.46205367  0.22167833  0.42698333  1
  F  F78  1  0.20461300  0.11165500  0.90635000  1
  F  F79  1  0.00646167  0.32038233  0.95358333  1
  F  F80  1  0.42629133  0.87127967  0.76031667  1
  F  F81  1  0.01941267  0.67312833  0.71308333  1
  F  F82  1  0.55602700  0.08782000  0.90777900  1
  F  F83  1  0.57231400  0.11457500  0.58219500  1
  F  F84  1  0.44790833  0.20892767  0.08447167  1
  F  F85  1  0.65371567  0.98058733  0.71308333  1
  F  F86  1  0.42115333  0.19845967  0.75888767  1
  F  F87  1  0.80154033  0.22269367  0.75888767  1
  F  F88  1  0.44498833  0.57370867  0.76031667  1
  F  F89  1  0.79107233  0.23898067  0.08447167  1
  F  F90  1  0.54226100  0.42768600  0.58219500  1
  F  F91  1  0.88834500  0.09295800  0.90635000  1
  F  F92  1  0.53179300  0.44397300  0.90777900  1
  F  F93  1  0.91218000  0.46820700  0.90777900  1
  F  F94  1  0.67961767  0.68607933  0.95358333  1
  F  F95  1  0.88542500  0.45773900  0.58219500  1
  F  F96  1  0.76101933  0.55209167  0.08447167  1
  F  F97  1  0.77730633  0.57884667  0.75888767  1
  F  F98  1  0.31392067  0.99353833  0.95358333  1
  F  F99  1  0.90704200  0.79538700  0.90635000  1
  F  F100  1  0.32687167  0.34628433  0.71308333  1
  F  F101  1  0.12872033  0.55501167  0.76031667  1
  F  F102  1  0.87127967  0.44498833  0.23968333  1
  F  F103  1  0.67312833  0.65371567  0.28691667  1
  F  F104  1  0.09295800  0.20461300  0.09365000  1
  F  F105  1  0.68607933  0.00646167  0.04641667  1
  F  F106  1  0.22269367  0.42115333  0.24111233  1
  F  F107  1  0.23898067  0.44790833  0.91552833  1
  F  F108  1  0.11457500  0.54226100  0.41780500  1
  F  F109  1  0.32038233  0.31392067  0.04641667  1
  F  F110  1  0.08782000  0.53179300  0.09222100  1
  F  F111  1  0.46820700  0.55602700  0.09222100  1
  F  F112  1  0.11165500  0.90704200  0.09365000  1
  F  F113  1  0.45773900  0.57231400  0.41780500  1
  F  F114  1  0.20892767  0.76101933  0.91552833  1
  F  F115  1  0.55501167  0.42629133  0.23968333  1
  F  F116  1  0.19845967  0.77730633  0.24111233  1
  F  F117  1  0.57884667  0.80154033  0.24111233  1
  F  F118  1  0.34628433  0.01941267  0.28691667  1
  F  F119  1  0.55209167  0.79107233  0.91552833  1
  F  F120  1  0.42768600  0.88542500  0.41780500  1
  F  F121  1  0.44397300  0.91218000  0.09222100  1
  F  F122  1  0.98058733  0.32687167  0.28691667  1
  F  F123  1  0.57370867  0.12872033  0.23968333  1
  F  F124  1  0.99353833  0.67961767  0.04641667  1
  F  F125  1  0.79538700  0.88834500  0.09365000  1
