# generated using pymatgen
data_Li3Cr2(PO4)3
_symmetry_space_group_name_H-M   'P 1'
_cell_length_a   14.77561800
_cell_length_b   8.75958200
_cell_length_c   8.55285725
_cell_angle_alpha   90.00000000
_cell_angle_beta   123.96044654
_cell_angle_gamma   90.00000000
_symmetry_Int_Tables_number   1
_chemical_formula_structural   Li3Cr2(PO4)3
_chemical_formula_sum   'Li12 Cr8 P12 O48'
_cell_volume   918.15615093
_cell_formula_units_Z   4
loop_
 _symmetry_equiv_pos_site_id
 _symmetry_equiv_pos_as_xyz
  1  'x, y, z'
loop_
 _atom_site_type_symbol
 _atom_site_label
 _atom_site_symmetry_multiplicity
 _atom_site_fract_x
 _atom_site_fract_y
 _atom_site_fract_z
 _atom_site_occupancy
  Li  Li0  1  0.74905050  0.75392850  0.27761900  1
  Li  Li1  1  0.50000000  0.65059600  0.00000000  1
  Li  Li2  1  0.25094950  0.75392850  0.72238100  1
  Li  Li3  1  0.50000000  0.34643300  0.50000000  1
  Li  Li4  1  0.70300550  0.95356550  0.90382500  1
  Li  Li5  1  0.29699450  0.95356550  0.09617500  1
  Li  Li6  1  0.24905050  0.25392850  0.27761900  1
  Li  Li7  1  0.00000000  0.15059600  0.00000000  1
  Li  Li8  1  0.75094950  0.25392850  0.72238100  1
  Li  Li9  1  0.00000000  0.84643300  0.50000000  1
  Li  Li10  1  0.20300550  0.45356550  0.90382500  1
  Li  Li11  1  0.79699450  0.45356550  0.09617500  1
  Cr  Cr12  1  0.60832150  0.75317350  0.39210000  1
  Cr  Cr13  1  0.39167850  0.75317350  0.60790000  1
  Cr  Cr14  1  0.60448200  0.25017900  0.89457200  1
  Cr  Cr15  1  0.39551800  0.25017900  0.10542800  1
  Cr  Cr16  1  0.10832150  0.25317350  0.39210000  1
  Cr  Cr17  1  0.89167850  0.25317350  0.60790000  1
  Cr  Cr18  1  0.10448200  0.75017900  0.89457200  1
  Cr  Cr19  1  0.89551800  0.75017900  0.10542800  1
  P  P20  1  0.14868700  0.89957900  0.29766400  1
  P  P21  1  0.85131300  0.89957900  0.70233600  1
  P  P22  1  0.50000000  0.95573000  0.00000000  1
  P  P23  1  0.50000000  0.04006000  0.50000000  1
  P  P24  1  0.14327550  0.10634950  0.79151300  1
  P  P25  1  0.85672450  0.10634950  0.20848700  1
  P  P26  1  0.64868700  0.39957900  0.29766400  1
  P  P27  1  0.35131300  0.39957900  0.70233600  1
  P  P28  1  0.00000000  0.45573000  0.00000000  1
  P  P29  1  0.00000000  0.54006000  0.50000000  1
  P  P30  1  0.64327550  0.60634950  0.79151300  1
  P  P31  1  0.35672450  0.60634950  0.20848700  1
  O  O32  1  0.85601300  0.14302500  0.38038000  1
  O  O33  1  0.43119850  0.94553850  0.54419200  1
  O  O34  1  0.15341900  0.07736000  0.29560100  1
  O  O35  1  0.54193600  0.66520400  0.78012800  1
  O  O36  1  0.23894800  0.83091700  0.48824100  1
  O  O37  1  0.54083200  0.34480900  0.26838900  1
  O  O38  1  0.76105200  0.83091700  0.51175900  1
  O  O39  1  0.84658100  0.07736000  0.70439900  1
  O  O40  1  0.41449350  0.84683250  0.84188700  1
  O  O41  1  0.56880150  0.94553850  0.45580800  1
  O  O42  1  0.41585550  0.15033950  0.33729600  1
  O  O43  1  0.14398700  0.14302500  0.61962000  1
  O  O44  1  0.83915800  0.85516400  0.86440700  1
  O  O45  1  0.58550650  0.84683250  0.15811300  1
  O  O46  1  0.43465700  0.04974400  0.05565500  1
  O  O47  1  0.58414450  0.15033950  0.66270400  1
  O  O48  1  0.15895600  0.92840900  0.81533700  1
  O  O49  1  0.24015900  0.17397300  0.98275900  1
  O  O50  1  0.45806400  0.66520400  0.21987200  1
  O  O51  1  0.75984100  0.17397300  0.01724100  1
  O  O52  1  0.45916800  0.34480900  0.73161100  1
  O  O53  1  0.84104400  0.92840900  0.18466300  1
  O  O54  1  0.56534300  0.04974400  0.94434500  1
  O  O55  1  0.16084200  0.85516400  0.13559300  1
  O  O56  1  0.35601300  0.64302500  0.38038000  1
  O  O57  1  0.93119850  0.44553850  0.54419200  1
  O  O58  1  0.65341900  0.57736000  0.29560100  1
  O  O59  1  0.04193600  0.16520400  0.78012800  1
  O  O60  1  0.73894800  0.33091700  0.48824100  1
  O  O61  1  0.04083200  0.84480900  0.26838900  1
  O  O62  1  0.26105200  0.33091700  0.51175900  1
  O  O63  1  0.34658100  0.57736000  0.70439900  1
  O  O64  1  0.91449350  0.34683250  0.84188700  1
  O  O65  1  0.06880150  0.44553850  0.45580800  1
  O  O66  1  0.91585550  0.65033950  0.33729600  1
  O  O67  1  0.64398700  0.64302500  0.61962000  1
  O  O68  1  0.33915800  0.35516400  0.86440700  1
  O  O69  1  0.08550650  0.34683250  0.15811300  1
  O  O70  1  0.93465700  0.54974400  0.05565500  1
  O  O71  1  0.08414450  0.65033950  0.66270400  1
  O  O72  1  0.65895600  0.42840900  0.81533700  1
  O  O73  1  0.74015900  0.67397300  0.98275900  1
  O  O74  1  0.95806400  0.16520400  0.21987200  1
  O  O75  1  0.25984100  0.67397300  0.01724100  1
  O  O76  1  0.95916800  0.84480900  0.73161100  1
  O  O77  1  0.34104400  0.42840900  0.18466300  1
  O  O78  1  0.06534300  0.54974400  0.94434500  1
  O  O79  1  0.66084200  0.35516400  0.13559300  1
