# generated using pymatgen
data_Li3Fe2(SiO4)2
_symmetry_space_group_name_H-M   'P 1'
_cell_length_a   5.17006899
_cell_length_b   6.61499570
_cell_length_c   10.56600161
_cell_angle_alpha   90.07944221
_cell_angle_beta   90.55388029
_cell_angle_gamma   90.22513145
_symmetry_Int_Tables_number   1
_chemical_formula_structural   Li3Fe2(SiO4)2
_chemical_formula_sum   'Li6 Fe4 Si4 O16'
_cell_volume   361.33704675
_cell_formula_units_Z   2
loop_
 _symmetry_equiv_pos_site_id
 _symmetry_equiv_pos_as_xyz
  1  'x, y, z'
loop_
 _atom_site_type_symbol
 _atom_site_label
 _atom_site_symmetry_multiplicity
 _atom_site_fract_x
 _atom_site_fract_y
 _atom_site_fract_z
 _atom_site_occupancy
  Li  Li0  1  0.36456700  0.75279100  0.91198800  1
  Li  Li1  1  0.76512000  0.00287600  0.83935600  1
  Li  Li2  1  0.24385600  0.50281900  0.65988100  1
  Li  Li3  1  0.35893100  0.74526700  0.42133300  1
  Li  Li4  1  0.76566600  0.49814900  0.34533200  1
  Li  Li5  1  0.24215700  0.00033900  0.15714400  1
  Fe  Fe6  1  0.76550500  0.48024300  0.82105800  1
  Fe  Fe7  1  0.25356700  0.00956500  0.66794300  1
  Fe  Fe8  1  0.75387800  0.00911100  0.33220100  1
  Fe  Fe9  1  0.24437000  0.48632000  0.16346700  1
  Si  Si10  1  0.25162600  0.25099000  0.91117300  1
  Si  Si11  1  0.74582500  0.75931100  0.59227300  1
  Si  Si12  1  0.25451100  0.25161500  0.41305800  1
  Si  Si13  1  0.74770400  0.74107500  0.09146500  1
  O  O14  1  0.79449600  0.74321400  0.94036600  1
  O  O15  1  0.94084900  0.24225300  0.88683000  1
  O  O16  1  0.38044200  0.04286100  0.85331700  1
  O  O17  1  0.36419700  0.46295600  0.84798400  1
  O  O18  1  0.86805200  0.95521800  0.66153400  1
  O  O19  1  0.86859300  0.55107600  0.64701400  1
  O  O20  1  0.42473800  0.75535000  0.60204900  1
  O  O21  1  0.31247700  0.26172700  0.56134900  1
  O  O22  1  0.79253300  0.76859000  0.43223900  1
  O  O23  1  0.94360300  0.24192700  0.37444400  1
  O  O24  1  0.36746500  0.45778100  0.33815800  1
  O  O25  1  0.38241500  0.04586700  0.34269500  1
  O  O26  1  0.88692800  0.55072200  0.16738400  1
  O  O27  1  0.85658500  0.94546900  0.16550500  1
  O  O28  1  0.42559600  0.72918000  0.11366900  1
  O  O29  1  0.31054100  0.25527900  0.06777100  1
