# generated using pymatgen
data_LiCoP2O7
_symmetry_space_group_name_H-M   'P 1'
_cell_length_a   6.38736298
_cell_length_b   9.21250789
_cell_length_c   10.57256037
_cell_angle_alpha   114.72643922
_cell_angle_beta   86.06021979
_cell_angle_gamma   107.12389183
_symmetry_Int_Tables_number   1
_chemical_formula_structural   LiCoP2O7
_chemical_formula_sum   'Li4 Co4 P8 O28'
_cell_volume   538.97448963
_cell_formula_units_Z   4
loop_
 _symmetry_equiv_pos_site_id
 _symmetry_equiv_pos_as_xyz
  1  'x, y, z'
loop_
 _atom_site_type_symbol
 _atom_site_label
 _atom_site_symmetry_multiplicity
 _atom_site_fract_x
 _atom_site_fract_y
 _atom_site_fract_z
 _atom_site_occupancy
  Li  Li0  1  0.01342414  0.66738098  0.48722177  1
  Li  Li1  1  0.33948393  0.52812796  0.41335600  1
  Li  Li2  1  0.55933271  0.52691626  0.98295378  1
  Li  Li3  1  0.93470336  0.98539521  0.94501310  1
  Co  Co4  1  0.28750215  0.12524056  0.77101692  1
  Co  Co5  1  0.36854820  0.75023737  0.74455635  1
  Co  Co6  1  0.63466722  0.24136597  0.25259242  1
  Co  Co7  1  0.71773264  0.88222381  0.21373425  1
  P  P8  1  0.10877285  0.13662382  0.29702650  1
  P  P9  1  0.31108037  0.76736516  0.03843362  1
  P  P10  1  0.08194792  0.39387836  0.78808664  1
  P  P11  1  0.41184883  0.15663459  0.53222432  1
  P  P12  1  0.57745411  0.83847687  0.45992972  1
  P  P13  1  0.92696675  0.61849057  0.19697636  1
  P  P14  1  0.69667726  0.23962883  0.95155173  1
  P  P15  1  0.88558382  0.84445712  0.70161903  1
  O  O16  1  0.04745836  0.58151760  0.33876225  1
  O  O17  1  0.08395642  0.63009819  0.08664421  1
  O  O18  1  0.04933894  0.75117650  0.70663326  1
  O  O19  1  0.99797313  0.96703643  0.29008724  1
  O  O20  1  0.26067905  0.93932775  0.96445326  1
  O  O21  1  0.19444363  0.07904107  0.45867364  1
  O  O22  1  0.35643290  0.29167431  0.55831274  1
  O  O23  1  0.44712053  0.74635729  0.17812079  1
  O  O24  1  0.31160353  0.23566759  0.21281971  1
  O  O25  1  0.11564167  0.21677760  0.84216389  1
  O  O26  1  0.40996177  0.71930557  0.94786489  1
  O  O27  1  0.29833576  0.51235005  0.81616419  1
  O  O28  1  0.43087513  0.01090605  0.68005001  1
  O  O29  1  0.37260711  0.78080658  0.54052514  1
  O  O30  1  0.60196522  0.21077150  0.44327187  1
  O  O31  1  0.56671295  0.98341273  0.31176393  1
  O  O32  1  0.71859496  0.48987075  0.18183013  1
  O  O33  1  0.60892437  0.29357399  0.04200373  1
  O  O34  1  0.69048904  0.73405114  0.79208692  1
  O  O35  1  0.87319124  0.79148870  0.12936895  1
  O  O36  1  0.55356274  0.24999910  0.81717735  1
  O  O37  1  0.78008397  0.91552005  0.54242549  1
  O  O38  1  0.63304452  0.70188502  0.43518650  1
  O  O39  1  0.74718025  0.06590788  0.02615414  1
  O  O40  1  0.99218038  0.00042724  0.72981513  1
  O  O41  1  0.94568005  0.24280212  0.26662542  1
  O  O42  1  0.92322571  0.37426781  0.90048914  1
  O  O43  1  0.98594639  0.46220395  0.64246955  1
