# generated using pymatgen
data_Rb14Na3Al17Si31O96
_symmetry_space_group_name_H-M   'P 1'
_cell_length_a   17.60675400
_cell_length_b   17.69619532
_cell_length_c   17.86837826
_cell_angle_alpha   60.48014613
_cell_angle_beta   60.58391090
_cell_angle_gamma   60.75125401
_symmetry_Int_Tables_number   1
_chemical_formula_structural   Rb14Na3Al17Si31O96
_chemical_formula_sum   'Rb14 Na3 Al17 Si31 O96'
_cell_volume   3990.42629023
_cell_formula_units_Z   1
loop_
 _symmetry_equiv_pos_site_id
 _symmetry_equiv_pos_as_xyz
  1  'x, y, z'
loop_
 _atom_site_type_symbol
 _atom_site_label
 _atom_site_symmetry_multiplicity
 _atom_site_fract_x
 _atom_site_fract_y
 _atom_site_fract_z
 _atom_site_occupancy
  Rb  Rb0  1  0.25693200  0.25653200  0.24992300  1
  Rb  Rb1  1  0.24985200  0.73456100  0.26103600  1
  Rb  Rb2  1  0.73814700  0.25421700  0.26338100  1
  Rb  Rb3  1  0.26372200  0.26526700  0.74328100  1
  Rb  Rb4  1  0.73977500  0.73841400  0.27493700  1
  Rb  Rb5  1  0.75226100  0.25369900  0.74227600  1
  Rb  Rb6  1  0.25662500  0.75327900  0.74297100  1
  Rb  Rb7  1  0.97732400  0.41326700  0.68500900  1
  Rb  Rb8  1  0.41674200  0.97929500  0.68538600  1
  Rb  Rb9  1  0.69968000  0.40732000  0.96198700  1
  Rb  Rb10  1  0.40947300  0.70290000  0.96289600  1
  Rb  Rb11  1  0.75186700  0.75316800  0.74346800  1
  Rb  Rb12  1  0.91205200  0.73898700  0.89429200  1
  Rb  Rb13  1  0.93383500  0.94678800  0.90269800  1
  Na  Na14  1  0.01452400  0.47795600  0.00181100  1
  Na  Na15  1  0.52771100  0.00736500  0.97408200  1
  Na  Na16  1  0.97755300  0.97676400  0.56897300  1
  Al  Al17  1  0.85086500  0.39955900  0.21958400  1
  Al  Al18  1  0.21742100  0.40081500  0.85507900  1
  Al  Al19  1  0.40131400  0.21599600  0.85451200  1
  Al  Al20  1  0.15391700  0.96928000  0.59771200  1
  Al  Al21  1  0.97085400  0.15299100  0.59711400  1
  Al  Al22  1  0.15355200  0.96543900  0.77662900  1
  Al  Al23  1  0.96602100  0.15364900  0.77605000  1
  Al  Al24  1  0.15037300  0.60250900  0.96420700  1
  Al  Al25  1  0.60116700  0.15139000  0.96492500  1
  Al  Al26  1  0.14736900  0.78294800  0.96415300  1
  Al  Al27  1  0.78257800  0.14790700  0.96378200  1
  Al  Al28  1  0.78038900  0.96505800  0.59950900  1
  Al  Al29  1  0.96793000  0.77821200  0.59811500  1
  Al  Al30  1  0.60325400  0.96138800  0.78204000  1
  Al  Al31  1  0.96227900  0.60075200  0.78119300  1
  Al  Al32  1  0.59938900  0.77824200  0.96961900  1
  Al  Al33  1  0.77755000  0.60006500  0.96937400  1
  Si  Si34  1  0.39168500  0.21022100  0.03476100  1
  Si  Si35  1  0.21213600  0.39216700  0.03491500  1
  Si  Si36  1  0.39623200  0.03429300  0.21285400  1
  Si  Si37  1  0.03374500  0.39947300  0.21006900  1
  Si  Si38  1  0.03652300  0.21669500  0.38685600  1
  Si  Si39  1  0.21487000  0.03824100  0.38721600  1
  Si  Si40  1  0.86729600  0.20556800  0.03611300  1
  Si  Si41  1  0.20470100  0.86776500  0.03740700  1
  Si  Si42  1  0.38843300  0.86345800  0.04074200  1
  Si  Si43  1  0.86070900  0.38964900  0.03860200  1
  Si  Si44  1  0.03003200  0.85734500  0.21420000  1
  Si  Si45  1  0.85664000  0.03204400  0.21413100  1
  Si  Si46  1  0.03609700  0.85924100  0.38690900  1
  Si  Si47  1  0.86058100  0.03334900  0.38861600  1
  Si  Si48  1  0.60226700  0.78701200  0.14478200  1
  Si  Si49  1  0.78099400  0.60602600  0.14701000  1
  Si  Si50  1  0.39636400  0.85524500  0.21853000  1
  Si  Si51  1  0.21452900  0.85855600  0.39227400  1
  Si  Si52  1  0.85659800  0.21285500  0.39546600  1
  Si  Si53  1  0.60373400  0.96668100  0.14438300  1
  Si  Si54  1  0.96467600  0.60551500  0.14378700  1
  Si  Si55  1  0.03364800  0.20896600  0.86524500  1
  Si  Si56  1  0.20924500  0.03324700  0.86522100  1
  Si  Si57  1  0.78368200  0.96422300  0.14453100  1
  Si  Si58  1  0.96315100  0.78482300  0.14363600  1
  Si  Si59  1  0.03092200  0.39257300  0.86486700  1
  Si  Si60  1  0.39269400  0.03191200  0.86516200  1
  Si  Si61  1  0.14692000  0.78543300  0.59903000  1
  Si  Si62  1  0.78706700  0.14188700  0.60188500  1
  Si  Si63  1  0.14446400  0.60845800  0.78103300  1
  Si  Si64  1  0.60851100  0.14168300  0.78228200  1
  O  O65  1  0.22456400  0.48954400  0.99866000  1
  O  O66  1  0.60541500  0.03369600  0.04253000  1
  O  O67  1  0.03146000  0.60914700  0.04065600  1
  O  O68  1  0.30720000  0.30609800  0.04599600  1
  O  O69  1  0.36891500  0.13698000  0.14183700  1
  O  O70  1  0.14030500  0.37374400  0.14216500  1
  O  O71  1  0.03113800  0.81375600  0.04196000  1
  O  O72  1  0.81172400  0.03225500  0.04282400  1
  O  O73  1  0.49982200  0.99967800  0.21762500  1
  O  O74  1  0.99957100  0.50266500  0.21664300  1
  O  O75  1  0.22160100  0.79282300  0.00005100  1
  O  O76  1  0.79243300  0.22108300  0.99895100  1
  O  O77  1  0.03900800  0.31899400  0.30828200  1
  O  O78  1  0.31824300  0.04060400  0.31043300  1
  O  O79  1  0.14197000  0.14283200  0.35448500  1
  O  O80  1  0.99507600  0.78534500  0.21690300  1
  O  O81  1  0.78463700  0.99638500  0.21698700  1
  O  O82  1  0.22349300  0.00907300  0.48246900  1
  O  O83  1  0.83967200  0.30655000  0.04110200  1
  O  O84  1  0.30320700  0.84068500  0.04930700  1
  O  O85  1  0.13373500  0.85280100  0.14187300  1
  O  O86  1  0.85260000  0.13522500  0.14118600  1
  O  O87  1  0.48027500  0.78525500  0.00635200  1
  O  O88  1  0.78740200  0.48358400  0.99683600  1
  O  O89  1  0.03990000  0.03873300  0.60400200  1
  O  O90  1  0.04310900  0.82658500  0.31010800  1
  O  O91  1  0.82779600  0.04250300  0.31050000  1
  O  O92  1  0.84390500  0.37117600  0.14225500  1
  O  O93  1  0.36880100  0.84986200  0.14628800  1
  O  O94  1  0.59719400  0.82046500  0.04557000  1
  O  O95  1  0.81421400  0.60675400  0.04454900  1
  O  O96  1  0.04746200  0.04730800  0.80283900  1
  O  O97  1  0.49905200  0.78253300  0.22255700  1
  O  O98  1  0.77273800  0.50891800  0.22453800  1
  O  O99  1  0.39522100  0.96012500  0.18339200  1
  O  O100  1  0.96421800  0.40387700  0.17256600  1
  O  O101  1  0.68187300  0.68877300  0.17341200  1
  O  O102  1  0.85682900  0.13768500  0.36495500  1
  O  O103  1  0.14316100  0.85541900  0.35962900  1
  O  O104  1  0.82397400  0.31277000  0.32308600  1
  O  O105  1  0.31837700  0.82681200  0.31762000  1
  O  O106  1  0.85618700  0.63304500  0.15347500  1
  O  O107  1  0.62686800  0.85941600  0.15602800  1
  O  O108  1  0.78831800  0.99961100  0.48442200  1
  O  O109  1  0.00638400  0.78516900  0.48277100  1
  O  O110  1  0.23139500  0.99097100  0.79262700  1
  O  O111  1  0.18617200  0.96501100  0.38177500  1
  O  O112  1  0.96400700  0.18339700  0.38669000  1
  O  O113  1  0.14040300  0.13978500  0.84925900  1
  O  O114  1  0.03570700  0.30938600  0.84394000  1
  O  O115  1  0.31013500  0.03368500  0.84491600  1
  O  O116  1  0.21765100  0.78367600  0.49226400  1
  O  O117  1  0.78259700  0.21218000  0.49705400  1
  O  O118  1  0.95514700  0.68254500  0.17868100  1
  O  O119  1  0.68068000  0.95604400  0.18010900  1
  O  O120  1  0.85515300  0.85670700  0.15508300  1
  O  O121  1  0.48541900  0.98638200  0.79453000  1
  O  O122  1  0.04406900  0.81893100  0.59743800  1
  O  O123  1  0.82156400  0.03949700  0.59996600  1
  O  O124  1  0.01119200  0.22360300  0.48206100  1
  O  O125  1  0.13419300  0.37912100  0.84703500  1
  O  O126  1  0.37446900  0.13579400  0.84797500  1
  O  O127  1  0.68618000  0.16722700  0.67959200  1
  O  O128  1  0.17241200  0.68413200  0.67669000  1
  O  O129  1  0.16211000  0.85606500  0.61797800  1
  O  O130  1  0.85786900  0.15810100  0.62020600  1
  O  O131  1  0.31886200  0.31840800  0.82515400  1
  O  O132  1  0.04095100  0.60390400  0.81486600  1
  O  O133  1  0.60243000  0.03916100  0.81831900  1
  O  O134  1  0.22216000  0.51010800  0.77946000  1
  O  O135  1  0.51035100  0.21949700  0.77646100  1
  O  O136  1  0.96066000  0.96146700  0.18616000  1
  O  O137  1  0.20311900  0.95443800  0.66964700  1
  O  O138  1  0.95576300  0.20243100  0.66885700  1
  O  O139  1  0.14131200  0.64117900  0.85464100  1
  O  O140  1  0.63545600  0.14363300  0.85709600  1
  O  O141  1  0.16985100  0.39228300  0.97221100  1
  O  O142  1  0.39539800  0.16785100  0.97073900  1
  O  O143  1  0.96960500  0.96683500  0.37256000  1
  O  O144  1  0.48801800  0.22263900  0.00454100  1
  O  O145  1  0.14632400  0.85773800  0.85679200  1
  O  O146  1  0.85830200  0.14556400  0.85693300  1
  O  O147  1  0.67071200  0.19226700  0.96642600  1
  O  O148  1  0.19101700  0.67116100  0.96760900  1
  O  O149  1  0.99120600  0.23133400  0.79234100  1
  O  O150  1  0.86052400  0.85743900  0.62645300  1
  O  O151  1  0.66969700  0.96501400  0.67131000  1
  O  O152  1  0.96566700  0.66848700  0.67086100  1
  O  O153  1  0.98308900  0.48514900  0.79511300  1
  O  O154  1  0.97380600  0.17032400  0.97317600  1
  O  O155  1  0.17094300  0.97340000  0.97344200  1
  O  O156  1  0.85544300  0.63577100  0.86208600  1
  O  O157  1  0.63095100  0.85230600  0.86097800  1
  O  O158  1  0.66345700  0.66458600  0.97971300  1
  O  O159  1  0.96821300  0.38688400  0.97325400  1
  O  O160  1  0.38689800  0.96837900  0.97413700  1
