# generated using pymatgen
data_Ba3La2Br12
_symmetry_space_group_name_H-M   'P 1'
_cell_length_a   12.42147200
_cell_length_b   12.42147200
_cell_length_c   7.55899600
_cell_angle_alpha   90.00000000
_cell_angle_beta   90.00000000
_cell_angle_gamma   90.00000000
_symmetry_Int_Tables_number   1
_chemical_formula_structural   Ba3La2Br12
_chemical_formula_sum   'Ba6 La4 Br24'
_cell_volume   1166.29991771
_cell_formula_units_Z   2
loop_
 _symmetry_equiv_pos_site_id
 _symmetry_equiv_pos_as_xyz
  1  'x, y, z'
loop_
 _atom_site_type_symbol
 _atom_site_label
 _atom_site_symmetry_multiplicity
 _atom_site_fract_x
 _atom_site_fract_y
 _atom_site_fract_z
 _atom_site_occupancy
  Ba  Ba0  1  0.00000000  0.00000000  0.00000000  1
  Ba  Ba1  1  0.18272600  0.68272600  0.50000000  1
  Ba  Ba2  1  0.31727400  0.18272600  0.50000000  1
  Ba  Ba3  1  0.50000000  0.50000000  0.00000000  1
  Ba  Ba4  1  0.68272600  0.81727400  0.50000000  1
  Ba  Ba5  1  0.81727400  0.31727400  0.50000000  1
  La  La6  1  0.13570400  0.36429600  0.00000000  1
  La  La7  1  0.36429600  0.86429600  0.00000000  1
  La  La8  1  0.63570400  0.13570400  0.00000000  1
  La  La9  1  0.86429600  0.63570400  0.00000000  1
  Br  Br10  1  0.00000000  0.50000000  0.25707700  1
  Br  Br11  1  0.00000000  0.50000000  0.74292300  1
  Br  Br12  1  0.05642200  0.20856800  0.26980700  1
  Br  Br13  1  0.05642200  0.20856800  0.73019300  1
  Br  Br14  1  0.19210700  0.69210700  0.00000000  1
  Br  Br15  1  0.20856800  0.94357800  0.26980700  1
  Br  Br16  1  0.20856800  0.94357800  0.73019300  1
  Br  Br17  1  0.29143200  0.44357800  0.26980700  1
  Br  Br18  1  0.29143200  0.44357800  0.73019300  1
  Br  Br19  1  0.30789300  0.19210700  0.00000000  1
  Br  Br20  1  0.44357800  0.70856800  0.26980700  1
  Br  Br21  1  0.44357800  0.70856800  0.73019300  1
  Br  Br22  1  0.50000000  0.00000000  0.74292300  1
  Br  Br23  1  0.50000000  0.00000000  0.25707700  1
  Br  Br24  1  0.55642200  0.29143200  0.26980700  1
  Br  Br25  1  0.55642200  0.29143200  0.73019300  1
  Br  Br26  1  0.69210700  0.80789300  0.00000000  1
  Br  Br27  1  0.70856800  0.55642200  0.26980700  1
  Br  Br28  1  0.70856800  0.55642200  0.73019300  1
  Br  Br29  1  0.79143200  0.05642200  0.26980700  1
  Br  Br30  1  0.79143200  0.05642200  0.73019300  1
  Br  Br31  1  0.80789300  0.30789300  0.00000000  1
  Br  Br32  1  0.94357800  0.79143200  0.26980700  1
  Br  Br33  1  0.94357800  0.79143200  0.73019300  1
