# generated using pymatgen
data_MgSiO3
_symmetry_space_group_name_H-M   'P 1'
_cell_length_a   11.64156400
_cell_length_b   11.64156400
_cell_length_c   11.54264200
_cell_angle_alpha   90.00000000
_cell_angle_beta   90.00000000
_cell_angle_gamma   90.00000000
_symmetry_Int_Tables_number   1
_chemical_formula_structural   MgSiO3
_chemical_formula_sum   'Mg32 Si32 O96'
_cell_volume   1564.32824243
_cell_formula_units_Z   32
loop_
 _symmetry_equiv_pos_site_id
 _symmetry_equiv_pos_as_xyz
  1  'x, y, z'
loop_
 _atom_site_type_symbol
 _atom_site_label
 _atom_site_symmetry_multiplicity
 _atom_site_fract_x
 _atom_site_fract_y
 _atom_site_fract_z
 _atom_site_occupancy
  Mg  Mg0  1  0.50000000  0.50000000  0.25215300  1
  Mg  Mg1  1  0.50000000  0.00000000  0.00215300  1
  Mg  Mg2  1  0.50000000  0.25000000  0.37500000  1
  Mg  Mg3  1  0.62797500  0.26397800  0.60986650  1
  Mg  Mg4  1  0.62797500  0.76397800  0.14013350  1
  Mg  Mg5  1  0.73602200  0.12797500  0.35986650  1
  Mg  Mg6  1  0.73602200  0.62797500  0.39013350  1
  Mg  Mg7  1  0.25000000  0.50000000  0.62500000  1
  Mg  Mg8  1  0.75000000  0.50000000  0.62500000  1
  Mg  Mg9  1  0.76397800  0.37202500  0.85986650  1
  Mg  Mg10  1  0.76397800  0.87202500  0.89013350  1
  Mg  Mg11  1  0.87202500  0.23602200  0.10986650  1
  Mg  Mg12  1  0.87202500  0.73602200  0.64013350  1
  Mg  Mg13  1  0.50000000  0.50000000  0.74784700  1
  Mg  Mg14  1  0.50000000  0.75000000  0.37500000  1
  Mg  Mg15  1  0.50000000  0.00000000  0.49784700  1
  Mg  Mg16  1  0.00000000  0.00000000  0.75215300  1
  Mg  Mg17  1  0.00000000  0.50000000  0.50215300  1
  Mg  Mg18  1  0.00000000  0.75000000  0.87500000  1
  Mg  Mg19  1  0.12797500  0.76397800  0.10986650  1
  Mg  Mg20  1  0.12797500  0.26397800  0.64013350  1
  Mg  Mg21  1  0.23602200  0.62797500  0.85986650  1
  Mg  Mg22  1  0.23602200  0.12797500  0.89013350  1
  Mg  Mg23  1  0.75000000  0.00000000  0.12500000  1
  Mg  Mg24  1  0.25000000  0.00000000  0.12500000  1
  Mg  Mg25  1  0.26397800  0.87202500  0.35986650  1
  Mg  Mg26  1  0.26397800  0.37202500  0.39013350  1
  Mg  Mg27  1  0.37202500  0.73602200  0.60986650  1
  Mg  Mg28  1  0.37202500  0.23602200  0.14013350  1
  Mg  Mg29  1  0.00000000  0.00000000  0.24784700  1
  Mg  Mg30  1  0.00000000  0.25000000  0.87500000  1
  Mg  Mg31  1  0.00000000  0.50000000  0.99784700  1
  Si  Si32  1  0.73922850  0.12526950  0.86977900  1
  Si  Si33  1  0.75000000  0.00000000  0.62500000  1
  Si  Si34  1  0.87473050  0.23922850  0.61977900  1
  Si  Si35  1  0.50000000  0.25000000  0.87500000  1
  Si  Si36  1  0.00000000  0.00000000  0.50000000  1
  Si  Si37  1  0.50000000  0.50000000  0.50000000  1
  Si  Si38  1  0.00000000  0.25000000  0.37500000  1
  Si  Si39  1  0.12526950  0.76077150  0.61977900  1
  Si  Si40  1  0.23922850  0.12526950  0.38022100  1
  Si  Si41  1  0.75000000  0.50000000  0.12500000  1
  Si  Si42  1  0.76077150  0.37473050  0.36977900  1
  Si  Si43  1  0.37473050  0.23922850  0.63022100  1
  Si  Si44  1  0.50000000  0.00000000  0.25000000  1
  Si  Si45  1  0.50000000  0.00000000  0.75000000  1
  Si  Si46  1  0.12526950  0.26077150  0.13022100  1
  Si  Si47  1  0.76077150  0.87473050  0.38022100  1
  Si  Si48  1  0.23922850  0.62526950  0.36977900  1
  Si  Si49  1  0.25000000  0.50000000  0.12500000  1
  Si  Si50  1  0.37473050  0.73922850  0.11977900  1
  Si  Si51  1  0.00000000  0.75000000  0.37500000  1
  Si  Si52  1  0.50000000  0.50000000  0.00000000  1
  Si  Si53  1  0.00000000  0.00000000  0.00000000  1
  Si  Si54  1  0.50000000  0.75000000  0.87500000  1
  Si  Si55  1  0.62526950  0.26077150  0.11977900  1
  Si  Si56  1  0.73922850  0.62526950  0.88022100  1
  Si  Si57  1  0.25000000  0.00000000  0.62500000  1
  Si  Si58  1  0.26077150  0.87473050  0.86977900  1
  Si  Si59  1  0.87473050  0.73922850  0.13022100  1
  Si  Si60  1  0.00000000  0.50000000  0.75000000  1
  Si  Si61  1  0.00000000  0.50000000  0.25000000  1
  Si  Si62  1  0.62526950  0.76077150  0.63022100  1
  Si  Si63  1  0.26077150  0.37473050  0.88022100  1
  O  O64  1  0.64358900  0.22357400  0.82037850  1
  O  O65  1  0.78693550  0.33460050  0.67379200  1
  O  O66  1  0.79460600  0.04298600  0.76532450  1
  O  O67  1  0.89770250  0.96387050  0.59250000  1
  O  O68  1  0.43734000  0.41287700  0.40636550  1
  O  O69  1  0.45701400  0.29460600  0.73467550  1
  O  O70  1  0.95701400  0.29460600  0.51532450  1
  O  O71  1  0.97403150  0.19112950  0.70765000  1
  O  O72  1  0.02596850  0.80887050  0.70765000  1
  O  O73  1  0.03612950  0.89770250  0.40750000  1
  O  O74  1  0.03612950  0.39770250  0.34250000  1
  O  O75  1  0.56266000  0.58712300  0.40636550  1
  O  O76  1  0.58712300  0.93734000  0.15636550  1
  O  O77  1  0.58712300  0.43734000  0.59363450  1
  O  O78  1  0.10229750  0.03612950  0.59250000  1
  O  O79  1  0.14358900  0.22357400  0.42962150  1
  O  O80  1  0.66539950  0.28693550  0.42379200  1
  O  O81  1  0.66539950  0.78693550  0.32620800  1
  O  O82  1  0.19112950  0.02596850  0.29235000  1
  O  O83  1  0.69112950  0.02596850  0.95765000  1
  O  O84  1  0.70539400  0.45701400  0.26532450  1
  O  O85  1  0.71306450  0.16539950  0.17379200  1
  O  O86  1  0.72357400  0.35641100  0.07037850  1
  O  O87  1  0.72357400  0.85641100  0.67962150  1
  O  O88  1  0.77642600  0.64358900  0.17962150  1
  O  O89  1  0.77642600  0.14358900  0.57037850  1
  O  O90  1  0.28693550  0.33460050  0.57620800  1
  O  O91  1  0.79460600  0.54298600  0.98467550  1
  O  O92  1  0.80887050  0.47403150  0.45765000  1
  O  O93  1  0.80887050  0.97403150  0.29235000  1
  O  O94  1  0.33460050  0.71306450  0.42379200  1
  O  O95  1  0.83460050  0.71306450  0.82620800  1
  O  O96  1  0.85641100  0.27642600  0.32037850  1
  O  O97  1  0.89770250  0.46387050  0.15750000  1
  O  O98  1  0.41287700  0.56266000  0.59363450  1
  O  O99  1  0.91287700  0.56266000  0.65636550  1
  O  O100  1  0.93734000  0.41287700  0.84363450  1
  O  O101  1  0.46387050  0.10229750  0.84250000  1
  O  O102  1  0.96387050  0.10229750  0.40750000  1
  O  O103  1  0.47403150  0.19112950  0.54235000  1
  O  O104  1  0.02596850  0.30887050  0.04235000  1
  O  O105  1  0.04298600  0.20539400  0.23467550  1
  O  O106  1  0.54298600  0.20539400  0.01532450  1
  O  O107  1  0.56266000  0.08712300  0.34363450  1
  O  O108  1  0.60229750  0.03612950  0.65750000  1
  O  O109  1  0.70539400  0.95701400  0.48467550  1
  O  O110  1  0.71306450  0.66539950  0.57620800  1
  O  O111  1  0.35641100  0.27642600  0.92962150  1
  O  O112  1  0.14358900  0.72357400  0.32037850  1
  O  O113  1  0.28693550  0.83460050  0.17379200  1
  O  O114  1  0.29460600  0.54298600  0.26532450  1
  O  O115  1  0.39770250  0.46387050  0.09250000  1
  O  O116  1  0.93734000  0.91287700  0.90636550  1
  O  O117  1  0.95701400  0.79460600  0.23467550  1
  O  O118  1  0.45701400  0.79460600  0.01532450  1
  O  O119  1  0.47403150  0.69112950  0.20765000  1
  O  O120  1  0.52596850  0.30887050  0.20765000  1
  O  O121  1  0.53612950  0.39770250  0.90750000  1
  O  O122  1  0.53612950  0.89770250  0.84250000  1
  O  O123  1  0.06266000  0.08712300  0.90636550  1
  O  O124  1  0.08712300  0.43734000  0.65636550  1
  O  O125  1  0.08712300  0.93734000  0.09363450  1
  O  O126  1  0.60229750  0.53612950  0.09250000  1
  O  O127  1  0.64358900  0.72357400  0.92962150  1
  O  O128  1  0.16539950  0.78693550  0.92379200  1
  O  O129  1  0.16539950  0.28693550  0.82620800  1
  O  O130  1  0.69112950  0.52596850  0.79235000  1
  O  O131  1  0.19112950  0.52596850  0.45765000  1
  O  O132  1  0.20539400  0.95701400  0.76532450  1
  O  O133  1  0.21306450  0.66539950  0.67379200  1
  O  O134  1  0.22357400  0.85641100  0.57037850  1
  O  O135  1  0.22357400  0.35641100  0.17962150  1
  O  O136  1  0.27642600  0.14358900  0.67962150  1
  O  O137  1  0.27642600  0.64358900  0.07037850  1
  O  O138  1  0.78693550  0.83460050  0.07620800  1
  O  O139  1  0.29460600  0.04298600  0.48467550  1
  O  O140  1  0.30887050  0.97403150  0.95765000  1
  O  O141  1  0.30887050  0.47403150  0.79235000  1
  O  O142  1  0.83460050  0.21306450  0.92379200  1
  O  O143  1  0.33460050  0.21306450  0.32620800  1
  O  O144  1  0.35641100  0.77642600  0.82037850  1
  O  O145  1  0.39770250  0.96387050  0.65750000  1
  O  O146  1  0.91287700  0.06266000  0.09363450  1
  O  O147  1  0.41287700  0.06266000  0.15636550  1
  O  O148  1  0.43734000  0.91287700  0.34363450  1
  O  O149  1  0.96387050  0.60229750  0.34250000  1
  O  O150  1  0.46387050  0.60229750  0.90750000  1
  O  O151  1  0.97403150  0.69112950  0.04235000  1
  O  O152  1  0.52596850  0.80887050  0.54235000  1
  O  O153  1  0.54298600  0.70539400  0.73467550  1
  O  O154  1  0.04298600  0.70539400  0.51532450  1
  O  O155  1  0.06266000  0.58712300  0.84363450  1
  O  O156  1  0.10229750  0.53612950  0.15750000  1
  O  O157  1  0.20539400  0.45701400  0.98467550  1
  O  O158  1  0.21306450  0.16539950  0.07620800  1
  O  O159  1  0.85641100  0.77642600  0.42962150  1
