# generated using pymatgen
data_NaV2O4
_symmetry_space_group_name_H-M   'P 1'
_cell_length_a   5.09222101
_cell_length_b   6.06516100
_cell_length_c   11.49360102
_cell_angle_alpha   90.00000000
_cell_angle_beta   90.00000000
_cell_angle_gamma   90.00000000
_symmetry_Int_Tables_number   1
_chemical_formula_structural   NaV2O4
_chemical_formula_sum   'Na4 V8 O16'
_cell_volume   354.98147955
_cell_formula_units_Z   4
loop_
 _symmetry_equiv_pos_site_id
 _symmetry_equiv_pos_as_xyz
  1  'x, y, z'
loop_
 _atom_site_type_symbol
 _atom_site_label
 _atom_site_symmetry_multiplicity
 _atom_site_fract_x
 _atom_site_fract_y
 _atom_site_fract_z
 _atom_site_occupancy
  Na  Na0  1  0.02613600  0.50000000  0.00000000  1
  Na  Na1  1  0.97386400  0.00000000  0.50000000  1
  Na  Na2  1  0.35036700  0.50000000  0.50000000  1
  Na  Na3  1  0.64963300  0.00000000  0.00000000  1
  V  V4  1  0.00899700  0.00000000  0.24220200  1
  V  V5  1  0.99100300  0.50000000  0.25779800  1
  V  V6  1  0.50000000  0.75000000  0.25000000  1
  V  V7  1  0.50000000  0.25000000  0.25000000  1
  V  V8  1  0.00899700  0.00000000  0.75779800  1
  V  V9  1  0.99100300  0.50000000  0.74220200  1
  V  V10  1  0.50000000  0.25000000  0.75000000  1
  V  V11  1  0.50000000  0.75000000  0.75000000  1
  O  O12  1  0.32235700  0.00000000  0.84396200  1
  O  O13  1  0.32235700  0.00000000  0.15603800  1
  O  O14  1  0.67764300  0.50000000  0.34396200  1
  O  O15  1  0.67764300  0.50000000  0.65603800  1
  O  O16  1  0.31334200  0.50000000  0.83365200  1
  O  O17  1  0.31334200  0.50000000  0.16634800  1
  O  O18  1  0.68665800  0.00000000  0.33365200  1
  O  O19  1  0.68665800  0.00000000  0.66634800  1
  O  O20  1  0.15845200  0.75328200  0.34286000  1
  O  O21  1  0.15845200  0.75328200  0.65714000  1
  O  O22  1  0.15845200  0.24671800  0.34286000  1
  O  O23  1  0.15845200  0.24671800  0.65714000  1
  O  O24  1  0.84154800  0.74671800  0.15714000  1
  O  O25  1  0.84154800  0.25328200  0.15714000  1
  O  O26  1  0.84154800  0.74671800  0.84286000  1
  O  O27  1  0.84154800  0.25328200  0.84286000  1
