# generated using pymatgen
data_La2P4O13
_symmetry_space_group_name_H-M   'P 1'
_cell_length_a   7.34803000
_cell_length_b   18.26579000
_cell_length_c   8.91831700
_cell_angle_alpha   90.00000000
_cell_angle_beta   90.00000000
_cell_angle_gamma   90.00000000
_symmetry_Int_Tables_number   1
_chemical_formula_structural   La2P4O13
_chemical_formula_sum   'La8 P16 O52'
_cell_volume   1196.99486204
_cell_formula_units_Z   4
loop_
 _symmetry_equiv_pos_site_id
 _symmetry_equiv_pos_as_xyz
  1  'x, y, z'
loop_
 _atom_site_type_symbol
 _atom_site_label
 _atom_site_symmetry_multiplicity
 _atom_site_fract_x
 _atom_site_fract_y
 _atom_site_fract_z
 _atom_site_occupancy
  La  La0  1  0.24887600  0.64683100  0.14249700  1
  La  La1  1  0.75112400  0.64683100  0.35750300  1
  La  La2  1  0.25112400  0.85316900  0.64249700  1
  La  La3  1  0.74887600  0.85316900  0.85750300  1
  La  La4  1  0.74887600  0.14683100  0.14249700  1
  La  La5  1  0.25112400  0.14683100  0.35750300  1
  La  La6  1  0.75112400  0.35316900  0.64249700  1
  La  La7  1  0.24887600  0.35316900  0.85750300  1
  P  P8  1  0.28492600  0.55857300  0.76816900  1
  P  P9  1  0.71507400  0.55857300  0.73183100  1
  P  P10  1  0.75535950  0.65831350  0.99467500  1
  P  P11  1  0.24464050  0.65831350  0.50532500  1
  P  P12  1  0.25535950  0.84168650  0.00532500  1
  P  P13  1  0.74464050  0.84168650  0.49467500  1
  P  P14  1  0.78492600  0.94142700  0.23183100  1
  P  P15  1  0.21507400  0.94142700  0.26816900  1
  P  P16  1  0.78492600  0.05857300  0.76816900  1
  P  P17  1  0.21507400  0.05857300  0.73183100  1
  P  P18  1  0.25535950  0.15831350  0.99467500  1
  P  P19  1  0.74464050  0.15831350  0.50532500  1
  P  P20  1  0.75535950  0.34168650  0.00532500  1
  P  P21  1  0.24464050  0.34168650  0.49467500  1
  P  P22  1  0.28492600  0.44142700  0.23183100  1
  P  P23  1  0.71507400  0.44142700  0.26816900  1
  O  O24  1  0.22797400  0.51943200  0.21206800  1
  O  O25  1  0.77202600  0.51943200  0.28793200  1
  O  O26  1  0.50000000  0.56217000  0.75000000  1
  O  O27  1  0.78972750  0.58611050  0.89094800  1
  O  O28  1  0.21027250  0.58611050  0.60905200  1
  O  O29  1  0.23327450  0.61220250  0.88920300  1
  O  O30  1  0.76672550  0.61220250  0.61079700  1
  O  O31  1  0.58393000  0.64397000  0.09114400  1
  O  O32  1  0.41607000  0.64397000  0.40885600  1
  O  O33  1  0.08288350  0.66006850  0.39538000  1
  O  O34  1  0.91711650  0.66006850  0.10462000  1
  O  O35  1  0.74372650  0.72439650  0.89288000  1
  O  O36  1  0.25627350  0.72439650  0.60712000  1
  O  O37  1  0.24372650  0.77560350  0.10712000  1
  O  O38  1  0.75627350  0.77560350  0.39288000  1
  O  O39  1  0.41711650  0.83993150  0.89538000  1
  O  O40  1  0.58288350  0.83993150  0.60462000  1
  O  O41  1  0.91607000  0.85603000  0.59114400  1
  O  O42  1  0.08393000  0.85603000  0.90885600  1
  O  O43  1  0.73327450  0.88779750  0.11079700  1
  O  O44  1  0.26672550  0.88779750  0.38920300  1
  O  O45  1  0.28972750  0.91388950  0.10905200  1
  O  O46  1  0.71027250  0.91388950  0.39094800  1
  O  O47  1  0.00000000  0.93783000  0.25000000  1
  O  O48  1  0.27202600  0.98056800  0.71206800  1
  O  O49  1  0.72797400  0.98056800  0.78793200  1
  O  O50  1  0.72797400  0.01943200  0.21206800  1
  O  O51  1  0.27202600  0.01943200  0.28793200  1
  O  O52  1  0.00000000  0.06217000  0.75000000  1
  O  O53  1  0.28972750  0.08611050  0.89094800  1
  O  O54  1  0.71027250  0.08611050  0.60905200  1
  O  O55  1  0.73327450  0.11220250  0.88920300  1
  O  O56  1  0.26672550  0.11220250  0.61079700  1
  O  O57  1  0.08393000  0.14397000  0.09114400  1
  O  O58  1  0.91607000  0.14397000  0.40885600  1
  O  O59  1  0.58288350  0.16006850  0.39538000  1
  O  O60  1  0.41711650  0.16006850  0.10462000  1
  O  O61  1  0.24372650  0.22439650  0.89288000  1
  O  O62  1  0.75627350  0.22439650  0.60712000  1
  O  O63  1  0.74372650  0.27560350  0.10712000  1
  O  O64  1  0.25627350  0.27560350  0.39288000  1
  O  O65  1  0.91711650  0.33993150  0.89538000  1
  O  O66  1  0.08288350  0.33993150  0.60462000  1
  O  O67  1  0.41607000  0.35603000  0.59114400  1
  O  O68  1  0.58393000  0.35603000  0.90885600  1
  O  O69  1  0.23327450  0.38779750  0.11079700  1
  O  O70  1  0.76672550  0.38779750  0.38920300  1
  O  O71  1  0.78972750  0.41388950  0.10905200  1
  O  O72  1  0.21027250  0.41388950  0.39094800  1
  O  O73  1  0.50000000  0.43783000  0.25000000  1
  O  O74  1  0.77202600  0.48056800  0.71206800  1
  O  O75  1  0.22797400  0.48056800  0.78793200  1
