# generated using pymatgen
data_LiCoSiO4
_symmetry_space_group_name_H-M   'P 1'
_cell_length_a   8.56102200
_cell_length_b   5.48846600
_cell_length_c   8.57161215
_cell_angle_alpha   90.00000000
_cell_angle_beta   106.98386228
_cell_angle_gamma   90.00000000
_symmetry_Int_Tables_number   1
_chemical_formula_structural   LiCoSiO4
_chemical_formula_sum   'Li4 Co4 Si4 O16'
_cell_volume   385.18804316
_cell_formula_units_Z   4
loop_
 _symmetry_equiv_pos_site_id
 _symmetry_equiv_pos_as_xyz
  1  'x, y, z'
loop_
 _atom_site_type_symbol
 _atom_site_label
 _atom_site_symmetry_multiplicity
 _atom_site_fract_x
 _atom_site_fract_y
 _atom_site_fract_z
 _atom_site_occupancy
  Li  Li0  1  0.23294650  0.05802850  0.53779700  1
  Li  Li1  1  0.23294650  0.94197150  0.03779700  1
  Li  Li2  1  0.73294650  0.55802850  0.53779700  1
  Li  Li3  1  0.73294650  0.44197150  0.03779700  1
  Co  Co4  1  0.38777950  0.28493050  0.86068800  1
  Co  Co5  1  0.38777950  0.71506950  0.36068800  1
  Co  Co6  1  0.88777950  0.78493050  0.86068800  1
  Co  Co7  1  0.88777950  0.21506950  0.36068800  1
  Si  Si8  1  0.50851300  0.76490200  0.74480100  1
  Si  Si9  1  0.50851300  0.23509800  0.24480100  1
  Si  Si10  1  0.00851300  0.26490200  0.74480100  1
  Si  Si11  1  0.00851300  0.73509800  0.24480100  1
  O  O12  1  0.86936200  0.09714300  0.78896100  1
  O  O13  1  0.68204650  0.70788250  0.88628100  1
  O  O14  1  0.43518450  0.04569550  0.72786700  1
  O  O15  1  0.54009550  0.70081250  0.56855600  1
  O  O16  1  0.86936200  0.90285700  0.28896100  1
  O  O17  1  0.68204650  0.29211750  0.38628100  1
  O  O18  1  0.43518450  0.95430450  0.22786700  1
  O  O19  1  0.54009550  0.29918750  0.06855600  1
  O  O20  1  0.36936200  0.59714300  0.78896100  1
  O  O21  1  0.18204650  0.20788250  0.88628100  1
  O  O22  1  0.93518450  0.54569550  0.72786700  1
  O  O23  1  0.04009550  0.20081250  0.56855600  1
  O  O24  1  0.36936200  0.40285700  0.28896100  1
  O  O25  1  0.18204650  0.79211750  0.38628100  1
  O  O26  1  0.93518450  0.45430450  0.22786700  1
  O  O27  1  0.04009550  0.79918750  0.06855600  1
