# generated using pymatgen
data_LiMnSiO4
_symmetry_space_group_name_H-M   'P 1'
_cell_length_a   4.91734300
_cell_length_b   6.40770400
_cell_length_c   9.04231500
_cell_angle_alpha   90.00000000
_cell_angle_beta   90.00000000
_cell_angle_gamma   90.00000000
_symmetry_Int_Tables_number   1
_chemical_formula_structural   LiMnSiO4
_chemical_formula_sum   'Li4 Mn4 Si4 O16'
_cell_volume   284.91320388
_cell_formula_units_Z   4
loop_
 _symmetry_equiv_pos_site_id
 _symmetry_equiv_pos_as_xyz
  1  'x, y, z'
loop_
 _atom_site_type_symbol
 _atom_site_label
 _atom_site_symmetry_multiplicity
 _atom_site_fract_x
 _atom_site_fract_y
 _atom_site_fract_z
 _atom_site_occupancy
  Li  Li0  1  0.46220800  0.25000000  0.33700100  1
  Li  Li1  1  0.03779200  0.25000000  0.83700100  1
  Li  Li2  1  0.96220800  0.75000000  0.16299900  1
  Li  Li3  1  0.53779200  0.75000000  0.66299900  1
  Mn  Mn4  1  0.00000000  0.00000000  0.50000000  1
  Mn  Mn5  1  0.50000000  0.00000000  0.00000000  1
  Mn  Mn6  1  0.00000000  0.50000000  0.50000000  1
  Mn  Mn7  1  0.50000000  0.50000000  0.00000000  1
  Si  Si8  1  0.96469000  0.25000000  0.17933500  1
  Si  Si9  1  0.53531000  0.25000000  0.67933500  1
  Si  Si10  1  0.46469000  0.75000000  0.32066500  1
  Si  Si11  1  0.03531000  0.75000000  0.82066500  1
  O  O12  1  0.81456900  0.03803100  0.11885700  1
  O  O13  1  0.68543100  0.03803100  0.61885700  1
  O  O14  1  0.90113500  0.25000000  0.36377800  1
  O  O15  1  0.28619700  0.25000000  0.13167400  1
  O  O16  1  0.21380300  0.25000000  0.63167400  1
  O  O17  1  0.59886500  0.25000000  0.86377800  1
  O  O18  1  0.81456900  0.46196900  0.11885700  1
  O  O19  1  0.68543100  0.46196900  0.61885700  1
  O  O20  1  0.31456900  0.53803100  0.38114300  1
  O  O21  1  0.18543100  0.53803100  0.88114300  1
  O  O22  1  0.78619700  0.75000000  0.36832600  1
  O  O23  1  0.40113500  0.75000000  0.13622200  1
  O  O24  1  0.71380300  0.75000000  0.86832600  1
  O  O25  1  0.09886500  0.75000000  0.63622200  1
  O  O26  1  0.31456900  0.96196900  0.38114300  1
  O  O27  1  0.18543100  0.96196900  0.88114300  1
