# generated using pymatgen
data_La2Mg3H48(NO5)12
_symmetry_space_group_name_H-M   'P 1'
_cell_length_a   11.11913814
_cell_length_b   11.11913814
_cell_length_c   34.90142397
_cell_angle_alpha   90.00000000
_cell_angle_beta   90.00000000
_cell_angle_gamma   120.00000000
_symmetry_Int_Tables_number   1
_chemical_formula_structural   La2Mg3H48(NO5)12
_chemical_formula_sum   'La6 Mg9 H144 N36 O180'
_cell_volume   3736.93918062
_cell_formula_units_Z   3
loop_
 _symmetry_equiv_pos_site_id
 _symmetry_equiv_pos_as_xyz
  1  'x, y, z'
loop_
 _atom_site_type_symbol
 _atom_site_label
 _atom_site_symmetry_multiplicity
 _atom_site_fract_x
 _atom_site_fract_y
 _atom_site_fract_z
 _atom_site_occupancy
  La  La0  1  0.00000000  0.00000000  0.24992300  1
  La  La1  1  0.66666667  0.33333333  0.08341033  1
  La  La2  1  0.66666667  0.33333333  0.58325633  1
  La  La3  1  0.33333333  0.66666667  0.41674367  1
  La  La4  1  0.33333333  0.66666667  0.91658967  1
  La  La5  1  0.00000000  0.00000000  0.75007700  1
  Mg  Mg6  1  0.00000000  0.00000000  0.00000000  1
  Mg  Mg7  1  0.33333333  0.66666667  0.09460667  1
  Mg  Mg8  1  0.33333333  0.66666667  0.23872667  1
  Mg  Mg9  1  0.66666667  0.33333333  0.33333333  1
  Mg  Mg10  1  0.00000000  0.00000000  0.42794000  1
  Mg  Mg11  1  0.00000000  0.00000000  0.57206000  1
  Mg  Mg12  1  0.33333333  0.66666667  0.66666667  1
  Mg  Mg13  1  0.66666667  0.33333333  0.76127333  1
  Mg  Mg14  1  0.66666667  0.33333333  0.90539333  1
  H  H15  1  0.12186567  0.93252033  0.05902933  1
  H  H16  1  0.81065467  0.87813433  0.05902933  1
  H  H17  1  0.06747967  0.18934533  0.05902933  1
  H  H18  1  0.54480100  0.40081300  0.27430400  1
  H  H19  1  0.85601200  0.45519900  0.27430400  1
  H  H20  1  0.59918700  0.14398800  0.27430400  1
  H  H21  1  0.23303400  0.00447500  0.02501100  1
  H  H22  1  0.77144100  0.76696600  0.02501100  1
  H  H23  1  0.99552500  0.22855900  0.02501100  1
  H  H24  1  0.43363267  0.32885833  0.30832233  1
  H  H25  1  0.89522567  0.56636733  0.30832233  1
  H  H26  1  0.67114167  0.10477433  0.30832233  1
  H  H27  1  0.09760933  0.49706867  0.05846567  1
  H  H28  1  0.39945933  0.90239067  0.05846567  1
  H  H29  1  0.50293133  0.60054067  0.05846567  1
  H  H30  1  0.56905733  0.83626467  0.27486767  1
  H  H31  1  0.26720733  0.43094267  0.27486767  1
  H  H32  1  0.16373533  0.73279267  0.27486767  1
  H  H33  1  0.21496433  0.48604267  0.03495267  1
  H  H34  1  0.27107833  0.78503567  0.03495267  1
  H  H35  1  0.51395733  0.72892167  0.03495267  1
  H  H36  1  0.45170233  0.84729067  0.29838067  1
  H  H37  1  0.39558833  0.54829767  0.29838067  1
  H  H38  1  0.15270933  0.60441167  0.29838067  1
  H  H39  1  0.11891433  0.60457667  0.14667667  1
  H  H40  1  0.48566233  0.88108567  0.14667667  1
  H  H41  1  0.39542333  0.51433767  0.14667667  1
  H  H42  1  0.54775233  0.72875667  0.18665667  1
  H  H43  1  0.18100433  0.45224767  0.18665667  1
  H  H44  1  0.27124333  0.81899567  0.18665667  1
  H  H45  1  0.13251533  0.72084067  0.11748567  1
  H  H46  1  0.58832533  0.86748467  0.11748567  1
  H  H47  1  0.27915933  0.41167467  0.11748567  1
  H  H48  1  0.53415133  0.61249267  0.21584767  1
  H  H49  1  0.07834133  0.46584867  0.21584767  1
  H  H50  1  0.38750733  0.92165867  0.21584767  1
  H  H51  1  0.95890000  0.76422300  0.10475400  1
  H  H52  1  0.80532300  0.04110000  0.10475400  1
  H  H53  1  0.23577700  0.19467700  0.10475400  1
  H  H54  1  0.70776667  0.56911033  0.22857933  1
  H  H55  1  0.86134367  0.29223333  0.22857933  1
  H  H56  1  0.43088967  0.13865633  0.22857933  1
  H  H57  1  0.08363567  0.88231133  0.12851133  1
  H  H58  1  0.79867567  0.91636433  0.12851133  1
  H  H59  1  0.11768867  0.20132433  0.12851133  1
  H  H60  1  0.58303100  0.45102200  0.20482200  1
  H  H61  1  0.86799100  0.41696900  0.20482200  1
  H  H62  1  0.54897800  0.13200900  0.20482200  1
  H  H63  1  0.78853233  0.26585367  0.39236267  1
  H  H64  1  0.47732133  0.21146767  0.39236267  1
  H  H65  1  0.73414633  0.52267867  0.39236267  1
  H  H66  1  0.21146767  0.73414633  0.60763733  1
  H  H67  1  0.52267867  0.78853233  0.60763733  1
  H  H68  1  0.26585367  0.47732133  0.60763733  1
  H  H69  1  0.89970067  0.33780833  0.35834433  1
  H  H70  1  0.43810767  0.10029933  0.35834433  1
  H  H71  1  0.66219167  0.56189233  0.35834433  1
  H  H72  1  0.10029933  0.66219167  0.64165567  1
  H  H73  1  0.56189233  0.89970067  0.64165567  1
  H  H74  1  0.33780833  0.43810767  0.64165567  1
  H  H75  1  0.76427600  0.83040200  0.39179900  1
  H  H76  1  0.06612600  0.23572400  0.39179900  1
  H  H77  1  0.16959800  0.93387400  0.39179900  1
  H  H78  1  0.23572400  0.16959800  0.60820100  1
  H  H79  1  0.93387400  0.76427600  0.60820100  1
  H  H80  1  0.83040200  0.06612600  0.60820100  1
  H  H81  1  0.88163100  0.81937600  0.36828600  1
  H  H82  1  0.93774500  0.11836900  0.36828600  1
  H  H83  1  0.18062400  0.06225500  0.36828600  1
  H  H84  1  0.11836900  0.18062400  0.63171400  1
  H  H85  1  0.06225500  0.88163100  0.63171400  1
  H  H86  1  0.81937600  0.93774500  0.63171400  1
  H  H87  1  0.78558100  0.93791000  0.48001000  1
  H  H88  1  0.15232900  0.21441900  0.48001000  1
  H  H89  1  0.06209000  0.84767100  0.48001000  1
  H  H90  1  0.21441900  0.06209000  0.51999000  1
  H  H91  1  0.84767100  0.78558100  0.51999000  1
  H  H92  1  0.93791000  0.15232900  0.51999000  1
  H  H93  1  0.79918200  0.05417400  0.45081900  1
  H  H94  1  0.25499200  0.20081800  0.45081900  1
  H  H95  1  0.94582600  0.74500800  0.45081900  1
  H  H96  1  0.20081800  0.94582600  0.54918100  1
  H  H97  1  0.74500800  0.79918200  0.54918100  1
  H  H98  1  0.05417400  0.25499200  0.54918100  1
  H  H99  1  0.62556667  0.09755633  0.43808733  1
  H  H100  1  0.47198967  0.37443333  0.43808733  1
  H  H101  1  0.90244367  0.52801033  0.43808733  1
  H  H102  1  0.37443333  0.90244367  0.56191267  1
  H  H103  1  0.52801033  0.62556667  0.56191267  1
  H  H104  1  0.09755633  0.47198967  0.56191267  1
  H  H105  1  0.75030233  0.21564467  0.46184467  1
  H  H106  1  0.46534233  0.24969767  0.46184467  1
  H  H107  1  0.78435533  0.53465767  0.46184467  1
  H  H108  1  0.24969767  0.78435533  0.53815533  1
  H  H109  1  0.53465767  0.75030233  0.53815533  1
  H  H110  1  0.21564467  0.46534233  0.53815533  1
  H  H111  1  0.45519900  0.59918700  0.72569600  1
  H  H112  1  0.14398800  0.54480100  0.72569600  1
  H  H113  1  0.40081300  0.85601200  0.72569600  1
  H  H114  1  0.87813433  0.06747967  0.94097067  1
  H  H115  1  0.18934533  0.12186567  0.94097067  1
  H  H116  1  0.93252033  0.81065467  0.94097067  1
  H  H117  1  0.56636733  0.67114167  0.69167767  1
  H  H118  1  0.10477433  0.43363267  0.69167767  1
  H  H119  1  0.32885833  0.89522567  0.69167767  1
  H  H120  1  0.76696600  0.99552500  0.97498900  1
  H  H121  1  0.22855900  0.23303400  0.97498900  1
  H  H122  1  0.00447500  0.77144100  0.97498900  1
  H  H123  1  0.43094267  0.16373533  0.72513233  1
  H  H124  1  0.73279267  0.56905733  0.72513233  1
  H  H125  1  0.83626467  0.26720733  0.72513233  1
  H  H126  1  0.90239067  0.50293133  0.94153433  1
  H  H127  1  0.60054067  0.09760933  0.94153433  1
  H  H128  1  0.49706867  0.39945933  0.94153433  1
  H  H129  1  0.54829767  0.15270933  0.70161933  1
  H  H130  1  0.60441167  0.45170233  0.70161933  1
  H  H131  1  0.84729067  0.39558833  0.70161933  1
  H  H132  1  0.78503567  0.51395733  0.96504733  1
  H  H133  1  0.72892167  0.21496433  0.96504733  1
  H  H134  1  0.48604267  0.27107833  0.96504733  1
  H  H135  1  0.45224767  0.27124333  0.81334333  1
  H  H136  1  0.81899567  0.54775233  0.81334333  1
  H  H137  1  0.72875667  0.18100433  0.81334333  1
  H  H138  1  0.88108567  0.39542333  0.85332333  1
  H  H139  1  0.51433767  0.11891433  0.85332333  1
  H  H140  1  0.60457667  0.48566233  0.85332333  1
  H  H141  1  0.46584867  0.38750733  0.78415233  1
  H  H142  1  0.92165867  0.53415133  0.78415233  1
  H  H143  1  0.61249267  0.07834133  0.78415233  1
  H  H144  1  0.86748467  0.27915933  0.88251433  1
  H  H145  1  0.41167467  0.13251533  0.88251433  1
  H  H146  1  0.72084067  0.58832533  0.88251433  1
  H  H147  1  0.29223333  0.43088967  0.77142067  1
  H  H148  1  0.13865633  0.70776667  0.77142067  1
  H  H149  1  0.56911033  0.86134367  0.77142067  1
  H  H150  1  0.04110000  0.23577700  0.89524600  1
  H  H151  1  0.19467700  0.95890000  0.89524600  1
  H  H152  1  0.76422300  0.80532300  0.89524600  1
  H  H153  1  0.41696900  0.54897800  0.79517800  1
  H  H154  1  0.13200900  0.58303100  0.79517800  1
  H  H155  1  0.45102200  0.86799100  0.79517800  1
  H  H156  1  0.91636433  0.11768867  0.87148867  1
  H  H157  1  0.20132433  0.08363567  0.87148867  1
  H  H158  1  0.88231133  0.79867567  0.87148867  1
  N  N159  1  0.21422900  0.96770200  0.30057900  1
  N  N160  1  0.75347300  0.78577100  0.30057900  1
  N  N161  1  0.03229800  0.24652700  0.30057900  1
  N  N162  1  0.45243767  0.36563133  0.03275433  1
  N  N163  1  0.91319367  0.54756233  0.03275433  1
  N  N164  1  0.63436867  0.08680633  0.03275433  1
  N  N165  1  0.96335833  0.74828767  0.20173967  1
  N  N166  1  0.78492933  0.03664167  0.20173967  1
  N  N167  1  0.25171233  0.21507067  0.20173967  1
  N  N168  1  0.70330833  0.58504567  0.13159367  1
  N  N169  1  0.88173733  0.29669167  0.13159367  1
  N  N170  1  0.41495433  0.11826267  0.13159367  1
  N  N171  1  0.88089567  0.30103533  0.63391233  1
  N  N172  1  0.42013967  0.11910433  0.63391233  1
  N  N173  1  0.69896467  0.57986033  0.63391233  1
  N  N174  1  0.11910433  0.69896467  0.36608767  1
  N  N175  1  0.57986033  0.88089567  0.36608767  1
  N  N176  1  0.30103533  0.42013967  0.36608767  1
  N  N177  1  0.63002500  0.08162100  0.53507300  1
  N  N178  1  0.45159600  0.36997500  0.53507300  1
  N  N179  1  0.91837900  0.54840400  0.53507300  1
  N  N180  1  0.36997500  0.91837900  0.46492700  1
  N  N181  1  0.54840400  0.63002500  0.46492700  1
  N  N182  1  0.08162100  0.45159600  0.46492700  1
  N  N183  1  0.54756233  0.63436867  0.96724567  1
  N  N184  1  0.08680633  0.45243767  0.96724567  1
  N  N185  1  0.36563133  0.91319367  0.96724567  1
  N  N186  1  0.78577100  0.03229800  0.69942100  1
  N  N187  1  0.24652700  0.21422900  0.69942100  1
  N  N188  1  0.96770200  0.75347300  0.69942100  1
  N  N189  1  0.29669167  0.41495433  0.86840633  1
  N  N190  1  0.11826267  0.70330833  0.86840633  1
  N  N191  1  0.58504567  0.88173733  0.86840633  1
  N  N192  1  0.03664167  0.25171233  0.79826033  1
  N  N193  1  0.21507067  0.96335833  0.79826033  1
  N  N194  1  0.74828767  0.78492933  0.79826033  1
  O  O195  1  0.17759067  0.05592833  0.30925833  1
  O  O196  1  0.87833767  0.82240933  0.30925833  1
  O  O197  1  0.94407167  0.12166233  0.30925833  1
  O  O198  1  0.48907600  0.27740500  0.02407500  1
  O  O199  1  0.78832900  0.51092400  0.02407500  1
  O  O200  1  0.72259500  0.21167100  0.02407500  1
  O  O201  1  0.30274167  0.95552733  0.31930733  1
  O  O202  1  0.65278567  0.69725833  0.31930733  1
  O  O203  1  0.04447267  0.34721433  0.31930733  1
  O  O204  1  0.36392500  0.37780600  0.01402600  1
  O  O205  1  0.01388100  0.63607500  0.01402600  1
  O  O206  1  0.62219400  0.98611900  0.01402600  1
  O  O207  1  0.15487733  0.88974967  0.27135267  1
  O  O208  1  0.73487233  0.84512267  0.27135267  1
  O  O209  1  0.11025033  0.26512767  0.27135267  1
  O  O210  1  0.51178933  0.44358367  0.06198067  1
  O  O211  1  0.93179433  0.48821067  0.06198067  1
  O  O212  1  0.55641633  0.06820567  0.06198067  1
  O  O213  1  0.05152067  0.87306933  0.19213033  1
  O  O214  1  0.82154867  0.94847933  0.19213033  1
  O  O215  1  0.12693067  0.17845133  0.19213033  1
  O  O216  1  0.61514600  0.46026400  0.14120300  1
  O  O217  1  0.84511800  0.38485400  0.14120300  1
  O  O218  1  0.53973600  0.15488200  0.14120300  1
  O  O219  1  0.95328000  0.64677300  0.18406900  1
  O  O220  1  0.69349300  0.04672000  0.18406900  1
  O  O221  1  0.35322700  0.30650700  0.18406900  1
  O  O222  1  0.71338667  0.68656033  0.14926433  1
  O  O223  1  0.97317367  0.28661333  0.14926433  1
  O  O224  1  0.31343967  0.02682633  0.14926433  1
  O  O225  1  0.88570933  0.73284867  0.23073767  1
  O  O226  1  0.84713933  0.11429067  0.23073767  1
  O  O227  1  0.26715133  0.15286067  0.23073767  1
  O  O228  1  0.78095733  0.60048467  0.10259567  1
  O  O229  1  0.81952733  0.21904267  0.10259567  1
  O  O230  1  0.39951533  0.18047267  0.10259567  1
  O  O231  1  0.14362533  0.98657967  0.03502667  1
  O  O232  1  0.84295433  0.85637467  0.03502667  1
  O  O233  1  0.01342033  0.15704567  0.03502667  1
  O  O234  1  0.52304133  0.34675367  0.29830667  1
  O  O235  1  0.82371233  0.47695867  0.29830667  1
  O  O236  1  0.65324633  0.17628767  0.29830667  1
  O  O237  1  0.19011500  0.50517700  0.06026400  1
  O  O238  1  0.31506200  0.80988500  0.06026400  1
  O  O239  1  0.49482300  0.68493800  0.06026400  1
  O  O240  1  0.47655167  0.82815633  0.27306933  1
  O  O241  1  0.35160467  0.52344833  0.27306933  1
  O  O242  1  0.17184367  0.64839533  0.27306933  1
  O  O243  1  0.32999400  0.50870200  0.12734200  1
  O  O244  1  0.17870800  0.67000600  0.12734200  1
  O  O245  1  0.49129800  0.82129200  0.12734200  1
  O  O246  1  0.33667267  0.82463133  0.20599133  1
  O  O247  1  0.48795867  0.66332733  0.20599133  1
  O  O248  1  0.17536867  0.51204133  0.20599133  1
  O  O249  1  0.05982033  0.83079167  0.10428167  1
  O  O250  1  0.77097133  0.94017967  0.10428167  1
  O  O251  1  0.16920833  0.22902867  0.10428167  1
  O  O252  1  0.60684633  0.50254167  0.22905167  1
  O  O253  1  0.89569533  0.39315367  0.22905167  1
  O  O254  1  0.49745833  0.10430467  0.22905167  1
  O  O255  1  0.84425733  0.38926167  0.64259167  1
  O  O256  1  0.54500433  0.15574267  0.64259167  1
  O  O257  1  0.61073833  0.45499567  0.64259167  1
  O  O258  1  0.15574267  0.61073833  0.35740833  1
  O  O259  1  0.45499567  0.84425733  0.35740833  1
  O  O260  1  0.38926167  0.54500433  0.35740833  1
  O  O261  1  0.96940833  0.28886067  0.65264067  1
  O  O262  1  0.31945233  0.03059167  0.65264067  1
  O  O263  1  0.71113933  0.68054767  0.65264067  1
  O  O264  1  0.03059167  0.71113933  0.34735933  1
  O  O265  1  0.68054767  0.96940833  0.34735933  1
  O  O266  1  0.28886067  0.31945233  0.34735933  1
  O  O267  1  0.82154400  0.22308300  0.60468600  1
  O  O268  1  0.40153900  0.17845600  0.60468600  1
  O  O269  1  0.77691700  0.59846100  0.60468600  1
  O  O270  1  0.17845600  0.77691700  0.39531400  1
  O  O271  1  0.59846100  0.82154400  0.39531400  1
  O  O272  1  0.22308300  0.40153900  0.39531400  1
  O  O273  1  0.71818733  0.20640267  0.52546367  1
  O  O274  1  0.48821533  0.28181267  0.52546367  1
  O  O275  1  0.79359733  0.51178467  0.52546367  1
  O  O276  1  0.28181267  0.79359733  0.47453633  1
  O  O277  1  0.51178467  0.71818733  0.47453633  1
  O  O278  1  0.20640267  0.48821533  0.47453633  1
  O  O279  1  0.61994667  0.98010633  0.51740233  1
  O  O280  1  0.36015967  0.38005333  0.51740233  1
  O  O281  1  0.01989367  0.63984033  0.51740233  1
  O  O282  1  0.38005333  0.01989367  0.48259767  1
  O  O283  1  0.63984033  0.61994667  0.48259767  1
  O  O284  1  0.98010633  0.36015967  0.48259767  1
  O  O285  1  0.55237600  0.06618200  0.56407100  1
  O  O286  1  0.51380600  0.44762400  0.56407100  1
  O  O287  1  0.93381800  0.48619400  0.56407100  1
  O  O288  1  0.44762400  0.93381800  0.43592900  1
  O  O289  1  0.48619400  0.55237600  0.43592900  1
  O  O290  1  0.06618200  0.51380600  0.43592900  1
  O  O291  1  0.81029200  0.31991300  0.36836000  1
  O  O292  1  0.50962100  0.18970800  0.36836000  1
  O  O293  1  0.68008700  0.49037900  0.36836000  1
  O  O294  1  0.18970800  0.68008700  0.63164000  1
  O  O295  1  0.49037900  0.81029200  0.63164000  1
  O  O296  1  0.31991300  0.50962100  0.63164000  1
  O  O297  1  0.85678167  0.83851033  0.39359733  1
  O  O298  1  0.98172867  0.14321833  0.39359733  1
  O  O299  1  0.16148967  0.01827133  0.39359733  1
  O  O300  1  0.14321833  0.16148967  0.60640267  1
  O  O301  1  0.01827133  0.85678167  0.60640267  1
  O  O302  1  0.83851033  0.98172867  0.60640267  1
  O  O303  1  0.99666067  0.84203533  0.46067533  1
  O  O304  1  0.84537467  0.00333933  0.46067533  1
  O  O305  1  0.15796467  0.15462533  0.46067533  1
  O  O306  1  0.00333933  0.15796467  0.53932467  1
  O  O307  1  0.15462533  0.99666067  0.53932467  1
  O  O308  1  0.84203533  0.84537467  0.53932467  1
  O  O309  1  0.72648700  0.16412500  0.43761500  1
  O  O310  1  0.43763800  0.27351300  0.43761500  1
  O  O311  1  0.83587500  0.56236200  0.43761500  1
  O  O312  1  0.27351300  0.83587500  0.56238500  1
  O  O313  1  0.56236200  0.72648700  0.56238500  1
  O  O314  1  0.16412500  0.43763800  0.56238500  1
  O  O315  1  0.51092400  0.72259500  0.97592500  1
  O  O316  1  0.21167100  0.48907600  0.97592500  1
  O  O317  1  0.27740500  0.78832900  0.97592500  1
  O  O318  1  0.82240933  0.94407167  0.69074167  1
  O  O319  1  0.12166233  0.17759067  0.69074167  1
  O  O320  1  0.05592833  0.87833767  0.69074167  1
  O  O321  1  0.63607500  0.62219400  0.98597400  1
  O  O322  1  0.98611900  0.36392500  0.98597400  1
  O  O323  1  0.37780600  0.01388100  0.98597400  1
  O  O324  1  0.69725833  0.04447267  0.68069267  1
  O  O325  1  0.34721433  0.30274167  0.68069267  1
  O  O326  1  0.95552733  0.65278567  0.68069267  1
  O  O327  1  0.48821067  0.55641633  0.93801933  1
  O  O328  1  0.06820567  0.51178933  0.93801933  1
  O  O329  1  0.44358367  0.93179433  0.93801933  1
  O  O330  1  0.84512267  0.11025033  0.72864733  1
  O  O331  1  0.26512767  0.15487733  0.72864733  1
  O  O332  1  0.88974967  0.73487233  0.72864733  1
  O  O333  1  0.38485400  0.53973600  0.85879700  1
  O  O334  1  0.15488200  0.61514600  0.85879700  1
  O  O335  1  0.46026400  0.84511800  0.85879700  1
  O  O336  1  0.94847933  0.12693067  0.80786967  1
  O  O337  1  0.17845133  0.05152067  0.80786967  1
  O  O338  1  0.87306933  0.82154867  0.80786967  1
  O  O339  1  0.28661333  0.31343967  0.85073567  1
  O  O340  1  0.02682633  0.71338667  0.85073567  1
  O  O341  1  0.68656033  0.97317367  0.85073567  1
  O  O342  1  0.04672000  0.35322700  0.81593100  1
  O  O343  1  0.30650700  0.95328000  0.81593100  1
  O  O344  1  0.64677300  0.69349300  0.81593100  1
  O  O345  1  0.21904267  0.39951533  0.89740433  1
  O  O346  1  0.18047267  0.78095733  0.89740433  1
  O  O347  1  0.60048467  0.81952733  0.89740433  1
  O  O348  1  0.11429067  0.26715133  0.76926233  1
  O  O349  1  0.15286067  0.88570933  0.76926233  1
  O  O350  1  0.73284867  0.84713933  0.76926233  1
  O  O351  1  0.47695867  0.65324633  0.70169333  1
  O  O352  1  0.17628767  0.52304133  0.70169333  1
  O  O353  1  0.34675367  0.82371233  0.70169333  1
  O  O354  1  0.85637467  0.01342033  0.96497333  1
  O  O355  1  0.15704567  0.14362533  0.96497333  1
  O  O356  1  0.98657967  0.84295433  0.96497333  1
  O  O357  1  0.52344833  0.17184367  0.72693067  1
  O  O358  1  0.64839533  0.47655167  0.72693067  1
  O  O359  1  0.82815633  0.35160467  0.72693067  1
  O  O360  1  0.80988500  0.49482300  0.93973600  1
  O  O361  1  0.68493800  0.19011500  0.93973600  1
  O  O362  1  0.50517700  0.31506200  0.93973600  1
  O  O363  1  0.66332733  0.17536867  0.79400867  1
  O  O364  1  0.51204133  0.33667267  0.79400867  1
  O  O365  1  0.82463133  0.48795867  0.79400867  1
  O  O366  1  0.67000600  0.49129800  0.87265800  1
  O  O367  1  0.82129200  0.32999400  0.87265800  1
  O  O368  1  0.50870200  0.17870800  0.87265800  1
  O  O369  1  0.39315367  0.49745833  0.77094833  1
  O  O370  1  0.10430467  0.60684633  0.77094833  1
  O  O371  1  0.50254167  0.89569533  0.77094833  1
  O  O372  1  0.94017967  0.16920833  0.89571833  1
  O  O373  1  0.22902867  0.05982033  0.89571833  1
  O  O374  1  0.83079167  0.77097133  0.89571833  1
