# generated using pymatgen
data_Li2Cr4O13
_symmetry_space_group_name_H-M   'P 1'
_cell_length_a   13.67560000
_cell_length_b   6.83939400
_cell_length_c   14.05801036
_cell_angle_alpha   90.00000000
_cell_angle_beta   108.82969894
_cell_angle_gamma   90.00000000
_symmetry_Int_Tables_number   1
_chemical_formula_structural   Li2Cr4O13
_chemical_formula_sum   'Li8 Cr16 O52'
_cell_volume   1244.51538868
_cell_formula_units_Z   4
loop_
 _symmetry_equiv_pos_site_id
 _symmetry_equiv_pos_as_xyz
  1  'x, y, z'
loop_
 _atom_site_type_symbol
 _atom_site_label
 _atom_site_symmetry_multiplicity
 _atom_site_fract_x
 _atom_site_fract_y
 _atom_site_fract_z
 _atom_site_occupancy
  Li  Li0  1  0.73201150  0.00240150  0.09011200  1
  Li  Li1  1  0.76798850  0.50240150  0.40988800  1
  Li  Li2  1  0.23201150  0.49759850  0.59011200  1
  Li  Li3  1  0.26798850  0.99759850  0.90988800  1
  Li  Li4  1  0.23201150  0.50240150  0.09011200  1
  Li  Li5  1  0.26798850  0.00240150  0.40988800  1
  Li  Li6  1  0.73201150  0.99759850  0.59011200  1
  Li  Li7  1  0.76798850  0.49759850  0.90988800  1
  Cr  Cr8  1  0.98914650  0.14392750  0.13353700  1
  Cr  Cr9  1  0.98914650  0.85607250  0.63353700  1
  Cr  Cr10  1  0.72951950  0.50387550  0.15736700  1
  Cr  Cr11  1  0.77048050  0.00387550  0.34263300  1
  Cr  Cr12  1  0.22951950  0.99612450  0.65736700  1
  Cr  Cr13  1  0.27048050  0.49612450  0.84263300  1
  Cr  Cr14  1  0.01085350  0.14392750  0.36646300  1
  Cr  Cr15  1  0.01085350  0.85607250  0.86646300  1
  Cr  Cr16  1  0.48914650  0.64392750  0.13353700  1
  Cr  Cr17  1  0.48914650  0.35607250  0.63353700  1
  Cr  Cr18  1  0.22951950  0.00387550  0.15736700  1
  Cr  Cr19  1  0.27048050  0.50387550  0.34263300  1
  Cr  Cr20  1  0.72951950  0.49612450  0.65736700  1
  Cr  Cr21  1  0.77048050  0.99612450  0.84263300  1
  Cr  Cr22  1  0.51085350  0.64392750  0.36646300  1
  Cr  Cr23  1  0.51085350  0.35607250  0.86646300  1
  O  O24  1  0.98343550  0.30742250  0.05098600  1
  O  O25  1  0.88650100  0.01071600  0.09982800  1
  O  O26  1  0.98343550  0.69257750  0.55098600  1
  O  O27  1  0.90632400  0.99104000  0.35086700  1
  O  O28  1  0.74904400  0.70033200  0.10073900  1
  O  O29  1  0.75481200  0.31143500  0.10094200  1
  O  O30  1  0.79781800  0.50575300  0.27600600  1
  O  O31  1  0.88650100  0.98928400  0.59982800  1
  O  O32  1  0.40632400  0.50896000  0.85086700  1
  O  O33  1  0.70218200  0.00575300  0.22399400  1
  O  O34  1  0.74518800  0.81143500  0.39905800  1
  O  O35  1  0.75095600  0.20033200  0.39926100  1
  O  O36  1  0.24904400  0.79966800  0.60073900  1
  O  O37  1  0.25481200  0.18856500  0.60094200  1
  O  O38  1  0.29781800  0.99424700  0.77600600  1
  O  O39  1  0.59367600  0.49104000  0.14913300  1
  O  O40  1  0.11349900  0.01071600  0.40017200  1
  O  O41  1  0.20218200  0.49424700  0.72399400  1
  O  O42  1  0.24518800  0.68856500  0.89905800  1
  O  O43  1  0.25095600  0.29966800  0.89926100  1
  O  O44  1  0.00000000  0.25834300  0.25000000  1
  O  O45  1  0.09367600  0.00896000  0.64913300  1
  O  O46  1  0.01656450  0.30742250  0.44901400  1
  O  O47  1  0.11349900  0.98928400  0.90017200  1
  O  O48  1  0.00000000  0.74165700  0.75000000  1
  O  O49  1  0.01656450  0.69257750  0.94901400  1
  O  O50  1  0.48343550  0.80742250  0.05098600  1
  O  O51  1  0.38650100  0.51071600  0.09982800  1
  O  O52  1  0.48343550  0.19257750  0.55098600  1
  O  O53  1  0.40632400  0.49104000  0.35086700  1
  O  O54  1  0.24904400  0.20033200  0.10073900  1
  O  O55  1  0.25481200  0.81143500  0.10094200  1
  O  O56  1  0.29781800  0.00575300  0.27600600  1
  O  O57  1  0.38650100  0.48928400  0.59982800  1
  O  O58  1  0.90632400  0.00896000  0.85086700  1
  O  O59  1  0.20218200  0.50575300  0.22399400  1
  O  O60  1  0.24518800  0.31143500  0.39905800  1
  O  O61  1  0.25095600  0.70033200  0.39926100  1
  O  O62  1  0.74904400  0.29966800  0.60073900  1
  O  O63  1  0.75481200  0.68856500  0.60094200  1
  O  O64  1  0.79781800  0.49424700  0.77600600  1
  O  O65  1  0.09367600  0.99104000  0.14913300  1
  O  O66  1  0.61349900  0.51071600  0.40017200  1
  O  O67  1  0.70218200  0.99424700  0.72399400  1
  O  O68  1  0.74518800  0.18856500  0.89905800  1
  O  O69  1  0.75095600  0.79966800  0.89926100  1
  O  O70  1  0.50000000  0.75834300  0.25000000  1
  O  O71  1  0.59367600  0.50896000  0.64913300  1
  O  O72  1  0.51656450  0.80742250  0.44901400  1
  O  O73  1  0.61349900  0.48928400  0.90017200  1
  O  O74  1  0.50000000  0.24165700  0.75000000  1
  O  O75  1  0.51656450  0.19257750  0.94901400  1
