# generated using pymatgen
data_BaLu2O4
_symmetry_space_group_name_H-M   'P 1'
_cell_length_a   3.38208200
_cell_length_b   11.13200800
_cell_length_c   11.31706800
_cell_angle_alpha   90.00000000
_cell_angle_beta   90.00000000
_cell_angle_gamma   90.00000000
_symmetry_Int_Tables_number   1
_chemical_formula_structural   BaLu2O4
_chemical_formula_sum   'Ba4 Lu8 O16'
_cell_volume   426.08041119
_cell_formula_units_Z   4
loop_
 _symmetry_equiv_pos_site_id
 _symmetry_equiv_pos_as_xyz
  1  'x, y, z'
loop_
 _atom_site_type_symbol
 _atom_site_label
 _atom_site_symmetry_multiplicity
 _atom_site_fract_x
 _atom_site_fract_y
 _atom_site_fract_z
 _atom_site_occupancy
  Ba  Ba0  1  0.00000000  0.11034900  0.75000000  1
  Ba  Ba1  1  0.50000000  0.38965100  0.25000000  1
  Ba  Ba2  1  0.50000000  0.61034900  0.75000000  1
  Ba  Ba3  1  0.00000000  0.88965100  0.25000000  1
  Lu  Lu4  1  0.00000000  0.36431600  0.93004600  1
  Lu  Lu5  1  0.00000000  0.36431600  0.56995400  1
  Lu  Lu6  1  0.50000000  0.13568400  0.06995400  1
  Lu  Lu7  1  0.50000000  0.13568400  0.43004600  1
  Lu  Lu8  1  0.50000000  0.86431600  0.93004600  1
  Lu  Lu9  1  0.50000000  0.86431600  0.56995400  1
  Lu  Lu10  1  0.00000000  0.63568400  0.06995400  1
  Lu  Lu11  1  0.00000000  0.63568400  0.43004600  1
  O  O12  1  0.00000000  0.00000000  0.50000000  1
  O  O13  1  0.00000000  0.00000000  0.00000000  1
  O  O14  1  0.00000000  0.43061700  0.75000000  1
  O  O15  1  0.00000000  0.25955500  0.10014200  1
  O  O16  1  0.00000000  0.25955500  0.39985800  1
  O  O17  1  0.50000000  0.06938300  0.25000000  1
  O  O18  1  0.50000000  0.24044500  0.89985800  1
  O  O19  1  0.50000000  0.24044500  0.60014200  1
  O  O20  1  0.50000000  0.50000000  0.50000000  1
  O  O21  1  0.50000000  0.50000000  0.00000000  1
  O  O22  1  0.50000000  0.93061700  0.75000000  1
  O  O23  1  0.50000000  0.75955500  0.10014200  1
  O  O24  1  0.50000000  0.75955500  0.39985800  1
  O  O25  1  0.00000000  0.56938300  0.25000000  1
  O  O26  1  0.00000000  0.74044500  0.89985800  1
  O  O27  1  0.00000000  0.74044500  0.60014200  1
