# generated using pymatgen
data_Sr2WO5
_symmetry_space_group_name_H-M   'P 1'
_cell_length_a   5.61578400
_cell_length_b   7.38261600
_cell_length_c   11.09988500
_cell_angle_alpha   90.00000000
_cell_angle_beta   90.00000000
_cell_angle_gamma   90.00000000
_symmetry_Int_Tables_number   1
_chemical_formula_structural   Sr2WO5
_chemical_formula_sum   'Sr8 W4 O20'
_cell_volume   460.19209480
_cell_formula_units_Z   4
loop_
 _symmetry_equiv_pos_site_id
 _symmetry_equiv_pos_as_xyz
  1  'x, y, z'
loop_
 _atom_site_type_symbol
 _atom_site_label
 _atom_site_symmetry_multiplicity
 _atom_site_fract_x
 _atom_site_fract_y
 _atom_site_fract_z
 _atom_site_occupancy
  Sr  Sr0  1  0.25000000  0.51295000  0.27617800  1
  Sr  Sr1  1  0.25000000  0.01295000  0.22382200  1
  Sr  Sr2  1  0.75000000  0.48705000  0.72382200  1
  Sr  Sr3  1  0.75000000  0.98705000  0.77617800  1
  Sr  Sr4  1  0.25000000  0.82387800  0.58235200  1
  Sr  Sr5  1  0.25000000  0.32387800  0.91764800  1
  Sr  Sr6  1  0.75000000  0.17612200  0.41764800  1
  Sr  Sr7  1  0.75000000  0.67612200  0.08235200  1
  W  W8  1  0.25000000  0.81732900  0.93663600  1
  W  W9  1  0.25000000  0.31732900  0.56336400  1
  W  W10  1  0.75000000  0.18267100  0.06336400  1
  W  W11  1  0.75000000  0.68267100  0.43663600  1
  O  O12  1  0.50115800  0.83748000  0.39126900  1
  O  O13  1  0.99884200  0.33748000  0.10873100  1
  O  O14  1  0.00115800  0.16252000  0.60873100  1
  O  O15  1  0.49884200  0.66252000  0.89126900  1
  O  O16  1  0.49884200  0.16252000  0.60873100  1
  O  O17  1  0.00115800  0.66252000  0.89126900  1
  O  O18  1  0.99884200  0.83748000  0.39126900  1
  O  O19  1  0.50115800  0.33748000  0.10873100  1
  O  O20  1  0.50000000  0.50000000  0.50000000  1
  O  O21  1  0.00000000  0.00000000  0.00000000  1
  O  O22  1  0.00000000  0.50000000  0.50000000  1
  O  O23  1  0.50000000  0.00000000  0.00000000  1
  O  O24  1  0.25000000  0.72788600  0.10569500  1
  O  O25  1  0.25000000  0.22788600  0.39430500  1
  O  O26  1  0.75000000  0.27211400  0.89430500  1
  O  O27  1  0.75000000  0.77211400  0.60569500  1
  O  O28  1  0.25000000  0.95698700  0.79266900  1
  O  O29  1  0.25000000  0.45698700  0.70733100  1
  O  O30  1  0.75000000  0.04301300  0.20733100  1
  O  O31  1  0.75000000  0.54301300  0.29266900  1
