# generated using pymatgen
data_Nb(PO3)4
_symmetry_space_group_name_H-M   'P 1'
_cell_length_a   12.26152000
_cell_length_b   8.56865600
_cell_length_c   10.26022653
_cell_angle_alpha   90.00000000
_cell_angle_beta   119.00441499
_cell_angle_gamma   90.00000000
_symmetry_Int_Tables_number   1
_chemical_formula_structural   Nb(PO3)4
_chemical_formula_sum   'Nb4 P16 O48'
_cell_volume   942.78936583
_cell_formula_units_Z   4
loop_
 _symmetry_equiv_pos_site_id
 _symmetry_equiv_pos_as_xyz
  1  'x, y, z'
loop_
 _atom_site_type_symbol
 _atom_site_label
 _atom_site_symmetry_multiplicity
 _atom_site_fract_x
 _atom_site_fract_y
 _atom_site_fract_z
 _atom_site_occupancy
  Nb  Nb0  1  0.75000000  0.75000000  0.00000000  1
  Nb  Nb1  1  0.25000000  0.75000000  0.50000000  1
  Nb  Nb2  1  0.25000000  0.25000000  0.00000000  1
  Nb  Nb3  1  0.75000000  0.25000000  0.50000000  1
  P  P4  1  0.81575850  0.50434050  0.30507900  1
  P  P5  1  0.99281200  0.73381300  0.53108400  1
  P  P6  1  0.50718800  0.23381300  0.96891600  1
  P  P7  1  0.31575850  0.99565950  0.80507900  1
  P  P8  1  0.18424150  0.50434050  0.19492100  1
  P  P9  1  0.99281200  0.26618700  0.03108400  1
  P  P10  1  0.50718800  0.76618700  0.46891600  1
  P  P11  1  0.68424150  0.99565950  0.69492100  1
  P  P12  1  0.31575850  0.00434050  0.30507900  1
  P  P13  1  0.49281200  0.23381300  0.53108400  1
  P  P14  1  0.00718800  0.73381300  0.96891600  1
  P  P15  1  0.81575850  0.49565950  0.80507900  1
  P  P16  1  0.68424150  0.00434050  0.19492100  1
  P  P17  1  0.49281200  0.76618700  0.03108400  1
  P  P18  1  0.00718800  0.26618700  0.46891600  1
  P  P19  1  0.18424150  0.49565950  0.69492100  1
  O  O20  1  0.73026350  0.92801950  0.84782400  1
  O  O21  1  0.56795550  0.76265050  0.94503800  1
  O  O22  1  0.06795550  0.73734950  0.44503800  1
  O  O23  1  0.06645700  0.60174400  0.66112200  1
  O  O24  1  0.86489450  0.64022750  0.42660300  1
  O  O25  1  0.22287600  0.90869300  0.32903700  1
  O  O26  1  0.36489450  0.85977250  0.92660300  1
  O  O27  1  0.26973650  0.92801950  0.65217600  1
  O  O28  1  0.96748400  0.87567000  0.58955700  1
  O  O29  1  0.43354300  0.10174400  0.83887800  1
  O  O30  1  0.27712400  0.40869300  0.17096300  1
  O  O31  1  0.53251600  0.37567000  0.91044300  1
  O  O32  1  0.96748400  0.12433000  0.08955700  1
  O  O33  1  0.22287600  0.09130700  0.82903700  1
  O  O34  1  0.06645700  0.39825600  0.16112200  1
  O  O35  1  0.53251600  0.62433000  0.41044300  1
  O  O36  1  0.23026350  0.57198050  0.34782400  1
  O  O37  1  0.13510550  0.64022750  0.07339700  1
  O  O38  1  0.27712400  0.59130700  0.67096300  1
  O  O39  1  0.63510550  0.85977250  0.57339700  1
  O  O40  1  0.43354300  0.89825600  0.33887800  1
  O  O41  1  0.43204450  0.76265050  0.55496200  1
  O  O42  1  0.93204450  0.73734950  0.05496200  1
  O  O43  1  0.76973650  0.57198050  0.15217600  1
  O  O44  1  0.23026350  0.42801950  0.84782400  1
  O  O45  1  0.06795550  0.26265050  0.94503800  1
  O  O46  1  0.56795550  0.23734950  0.44503800  1
  O  O47  1  0.56645700  0.10174400  0.66112200  1
  O  O48  1  0.36489450  0.14022750  0.42660300  1
  O  O49  1  0.72287600  0.40869300  0.32903700  1
  O  O50  1  0.86489450  0.35977250  0.92660300  1
  O  O51  1  0.76973650  0.42801950  0.65217600  1
  O  O52  1  0.46748400  0.37567000  0.58955700  1
  O  O53  1  0.93354300  0.60174400  0.83887800  1
  O  O54  1  0.77712400  0.90869300  0.17096300  1
  O  O55  1  0.03251600  0.87567000  0.91044300  1
  O  O56  1  0.46748400  0.62433000  0.08955700  1
  O  O57  1  0.72287600  0.59130700  0.82903700  1
  O  O58  1  0.56645700  0.89825600  0.16112200  1
  O  O59  1  0.03251600  0.12433000  0.41044300  1
  O  O60  1  0.73026350  0.07198050  0.34782400  1
  O  O61  1  0.63510550  0.14022750  0.07339700  1
  O  O62  1  0.77712400  0.09130700  0.67096300  1
  O  O63  1  0.13510550  0.35977250  0.57339700  1
  O  O64  1  0.93354300  0.39825600  0.33887800  1
  O  O65  1  0.93204450  0.26265050  0.55496200  1
  O  O66  1  0.43204450  0.23734950  0.05496200  1
  O  O67  1  0.26973650  0.07198050  0.15217600  1
