# generated using pymatgen
data_V3OF11
_symmetry_space_group_name_H-M   'P 1'
_cell_length_a   5.42271300
_cell_length_b   5.27472300
_cell_length_c   14.93741363
_cell_angle_alpha   90.00000000
_cell_angle_beta   100.23461780
_cell_angle_gamma   90.00000000
_symmetry_Int_Tables_number   1
_chemical_formula_structural   V3OF11
_chemical_formula_sum   'V6 O2 F22'
_cell_volume   420.46109078
_cell_formula_units_Z   2
loop_
 _symmetry_equiv_pos_site_id
 _symmetry_equiv_pos_as_xyz
  1  'x, y, z'
loop_
 _atom_site_type_symbol
 _atom_site_label
 _atom_site_symmetry_multiplicity
 _atom_site_fract_x
 _atom_site_fract_y
 _atom_site_fract_z
 _atom_site_occupancy
  V  V0  1  0.22023200  0.46219300  0.99594500  1
  V  V1  1  0.08402000  0.99922800  0.66644400  1
  V  V2  1  0.91598000  0.49922800  0.33355600  1
  V  V3  1  0.77976800  0.96219300  0.00405500  1
  V  V4  1  0.58409900  0.49950900  0.66626500  1
  V  V5  1  0.41590100  0.99950900  0.33373500  1
  O  O6  1  0.03014200  0.77398700  0.01921800  1
  O  O7  1  0.96985800  0.27398700  0.98078200  1
  F  F8  1  0.23274700  0.69204200  0.35875500  1
  F  F9  1  0.09898300  0.19194700  0.30873800  1
  F  F10  1  0.21388800  0.58810900  0.88520400  1
  F  F11  1  0.04618100  0.91080200  0.55090600  1
  F  F12  1  0.88046600  0.58748400  0.21764600  1
  F  F13  1  0.11953400  0.08748400  0.78235400  1
  F  F14  1  0.95381900  0.41080200  0.44909400  1
  F  F15  1  0.78611200  0.08810900  0.11479600  1
  F  F16  1  0.90101700  0.69194700  0.69126200  1
  F  F17  1  0.73200300  0.80716900  0.35797400  1
  F  F18  1  0.54038600  0.73328200  0.02214700  1
  F  F19  1  0.76725300  0.19204200  0.64124500  1
  F  F20  1  0.59958400  0.30720500  0.30867300  1
  F  F21  1  0.68290800  0.94404800  0.88442800  1
  F  F22  1  0.54685100  0.58946200  0.55088800  1
  F  F23  1  0.37441200  0.91353200  0.21756600  1
  F  F24  1  0.62558800  0.41353200  0.78243400  1
  F  F25  1  0.45314900  0.08946200  0.44911200  1
  F  F26  1  0.31709200  0.44404800  0.11557200  1
  F  F27  1  0.40041600  0.80720500  0.69132700  1
  F  F28  1  0.45961400  0.23328200  0.97785300  1
  F  F29  1  0.26799700  0.30716900  0.64202600  1
