# generated using pymatgen
data_Ca(CuO)2
_symmetry_space_group_name_H-M   'P 1'
_cell_length_a   5.33417600
_cell_length_b   5.33417600
_cell_length_c   9.48318000
_cell_angle_alpha   90.00000000
_cell_angle_beta   90.00000000
_cell_angle_gamma   90.00000000
_symmetry_Int_Tables_number   1
_chemical_formula_structural   Ca(CuO)2
_chemical_formula_sum   'Ca4 Cu8 O8'
_cell_volume   269.82903244
_cell_formula_units_Z   4
loop_
 _symmetry_equiv_pos_site_id
 _symmetry_equiv_pos_as_xyz
  1  'x, y, z'
loop_
 _atom_site_type_symbol
 _atom_site_label
 _atom_site_symmetry_multiplicity
 _atom_site_fract_x
 _atom_site_fract_y
 _atom_site_fract_z
 _atom_site_occupancy
  Ca  Ca0  1  0.00000000  0.00000000  0.00000000  1
  Ca  Ca1  1  0.00000000  0.50000000  0.25000000  1
  Ca  Ca2  1  0.50000000  0.50000000  0.50000000  1
  Ca  Ca3  1  0.50000000  0.00000000  0.75000000  1
  Cu  Cu4  1  0.50000000  0.75000000  0.12500000  1
  Cu  Cu5  1  0.25000000  0.00000000  0.37500000  1
  Cu  Cu6  1  0.75000000  0.00000000  0.37500000  1
  Cu  Cu7  1  0.50000000  0.25000000  0.12500000  1
  Cu  Cu8  1  0.00000000  0.25000000  0.62500000  1
  Cu  Cu9  1  0.75000000  0.50000000  0.87500000  1
  Cu  Cu10  1  0.25000000  0.50000000  0.87500000  1
  Cu  Cu11  1  0.00000000  0.75000000  0.62500000  1
  O  O12  1  0.00000000  0.00000000  0.23892900  1
  O  O13  1  0.00000000  0.50000000  0.01107100  1
  O  O14  1  0.50000000  0.50000000  0.26107100  1
  O  O15  1  0.00000000  0.50000000  0.48892900  1
  O  O16  1  0.50000000  0.50000000  0.73892900  1
  O  O17  1  0.50000000  0.00000000  0.51107100  1
  O  O18  1  0.00000000  0.00000000  0.76107100  1
  O  O19  1  0.50000000  0.00000000  0.98892900  1
