# generated using pymatgen
data_MnAgH8(OF)4
_symmetry_space_group_name_H-M   'P 1'
_cell_length_a   7.01775200
_cell_length_b   7.17153000
_cell_length_c   7.48269536
_cell_angle_alpha   90.00000000
_cell_angle_beta   104.51014519
_cell_angle_gamma   90.00000000
_symmetry_Int_Tables_number   1
_chemical_formula_structural   MnAgH8(OF)4
_chemical_formula_sum   'Mn2 Ag2 H16 O8 F8'
_cell_volume   364.57727686
_cell_formula_units_Z   2
loop_
 _symmetry_equiv_pos_site_id
 _symmetry_equiv_pos_as_xyz
  1  'x, y, z'
loop_
 _atom_site_type_symbol
 _atom_site_label
 _atom_site_symmetry_multiplicity
 _atom_site_fract_x
 _atom_site_fract_y
 _atom_site_fract_z
 _atom_site_occupancy
  Mn  Mn0  1  0.73360900  0.25000000  0.44961500  1
  Mn  Mn1  1  0.26639100  0.75000000  0.55038500  1
  Ag  Ag2  1  0.96153100  0.25000000  0.96229500  1
  Ag  Ag3  1  0.03846900  0.75000000  0.03770500  1
  H  H4  1  0.04306800  0.36908500  0.36527200  1
  H  H5  1  0.95693200  0.86908500  0.63472800  1
  H  H6  1  0.95693200  0.63091500  0.63472800  1
  H  H7  1  0.04306800  0.13091500  0.36527200  1
  H  H8  1  0.46926500  0.36439600  0.61862700  1
  H  H9  1  0.53073500  0.86439600  0.38137300  1
  H  H10  1  0.53073500  0.63560400  0.38137300  1
  H  H11  1  0.46926500  0.13560400  0.61862700  1
  H  H12  1  0.34234300  0.45954100  0.11969800  1
  H  H13  1  0.65765700  0.95954100  0.88030200  1
  H  H14  1  0.65765700  0.54045900  0.88030200  1
  H  H15  1  0.34234300  0.04045900  0.11969800  1
  H  H16  1  0.29281000  0.49317000  0.90306500  1
  H  H17  1  0.70719000  0.99317000  0.09693500  1
  H  H18  1  0.70719000  0.50683000  0.09693500  1
  H  H19  1  0.29281000  0.00683000  0.90306500  1
  O  O20  1  0.95799700  0.25000000  0.33706000  1
  O  O21  1  0.04200300  0.75000000  0.66294000  1
  O  O22  1  0.50143300  0.25000000  0.55411100  1
  O  O23  1  0.49856700  0.75000000  0.44588900  1
  O  O24  1  0.23149600  0.47849900  0.00864400  1
  O  O25  1  0.76850400  0.97849900  0.99135600  1
  O  O26  1  0.76850400  0.52150100  0.99135600  1
  O  O27  1  0.23149600  0.02150100  0.00864400  1
  F  F28  1  0.59591200  0.46141700  0.27280000  1
  F  F29  1  0.40408800  0.96141700  0.72720000  1
  F  F30  1  0.40408800  0.53858300  0.72720000  1
  F  F31  1  0.59591200  0.03858300  0.27280000  1
  F  F32  1  0.85614500  0.45045700  0.62522700  1
  F  F33  1  0.14385500  0.95045700  0.37477300  1
  F  F34  1  0.14385500  0.54954300  0.37477300  1
  F  F35  1  0.85614500  0.04954300  0.62522700  1
