# generated using pymatgen
data_Na2Ca29ZrSi16(O7F2)8
_symmetry_space_group_name_H-M   'P 1'
_cell_length_a   7.75027500
_cell_length_b   11.38093315
_cell_length_c   20.22545509
_cell_angle_alpha   85.41554640
_cell_angle_beta   84.58918270
_cell_angle_gamma   88.57269025
_symmetry_Int_Tables_number   1
_chemical_formula_structural   Na2Ca29ZrSi16(O7F2)8
_chemical_formula_sum   'Na2 Ca29 Zr1 Si16 O56 F16'
_cell_volume   1770.09087704
_cell_formula_units_Z   1
loop_
 _symmetry_equiv_pos_site_id
 _symmetry_equiv_pos_as_xyz
  1  'x, y, z'
loop_
 _atom_site_type_symbol
 _atom_site_label
 _atom_site_symmetry_multiplicity
 _atom_site_fract_x
 _atom_site_fract_y
 _atom_site_fract_z
 _atom_site_occupancy
  Na  Na0  1  0.84898100  0.13692600  0.44456300  1
  Na  Na1  1  0.36924900  0.62531800  0.30290600  1
  Ca  Ca2  1  0.16247900  0.57767000  0.92401800  1
  Ca  Ca3  1  0.35454500  0.00525900  0.66136500  1
  Ca  Ca4  1  0.32788500  0.72711600  0.78278900  1
  Ca  Ca5  1  0.41097500  0.11864600  0.95679000  1
  Ca  Ca6  1  0.60788800  0.86100100  0.52164500  1
  Ca  Ca7  1  0.68586200  0.35315000  0.71282700  1
  Ca  Ca8  1  0.71143900  0.92389600  0.82034900  1
  Ca  Ca9  1  0.83853900  0.99130700  0.15790000  1
  Ca  Ca10  1  0.58338000  0.42585200  0.91206900  1
  Ca  Ca11  1  0.84003700  0.64834400  0.18401600  1
  Ca  Ca12  1  0.91233200  0.60261800  0.57661700  1
  Ca  Ca13  1  0.79452700  0.08282100  0.63345500  1
  Ca  Ca14  1  0.09762700  0.84898000  0.01042300  1
  Ca  Ca15  1  0.80856000  0.59832300  0.78287500  1
  Ca  Ca16  1  0.13385300  0.42153900  0.22652700  1
  Ca  Ca17  1  0.90122100  0.13299600  0.98977400  1
  Ca  Ca18  1  0.16102100  0.89793900  0.32319200  1
  Ca  Ca19  1  0.09197600  0.45357200  0.42639000  1
  Ca  Ca20  1  0.10256700  0.91595200  0.53676200  1
  Ca  Ca21  1  0.18981300  0.37822500  0.75600000  1
  Ca  Ca22  1  0.42478200  0.54891300  0.10093400  1
  Ca  Ca23  1  0.13742100  0.00134200  0.83099800  1
  Ca  Ca24  1  0.28206800  0.07983800  0.18733600  1
  Ca  Ca25  1  0.42974400  0.18188400  0.49361700  1
  Ca  Ca26  1  0.39558700  0.53325300  0.58994400  1
  Ca  Ca27  1  0.57204200  0.87169500  0.05401300  1
  Ca  Ca28  1  0.61966000  0.35310500  0.24810800  1
  Ca  Ca29  1  0.62926000  0.99594400  0.32771000  1
  Ca  Ca30  1  0.87008400  0.38658100  0.07997100  1
  Zr  Zr31  1  0.63993300  0.50673900  0.40501800  1
  Si  Si32  1  0.45763900  0.12647400  0.77347300  1
  Si  Si33  1  0.53747500  0.73434100  0.91084900  1
  Si  Si34  1  0.75004400  0.35062900  0.51465600  1
  Si  Si35  1  0.67006100  0.77215500  0.66008900  1
  Si  Si36  1  0.96356400  0.15624400  0.27173100  1
  Si  Si37  1  0.93611100  0.73992400  0.42247900  1
  Si  Si38  1  0.76739800  0.19622700  0.86382700  1
  Si  Si39  1  0.78125500  0.62213900  0.01052800  1
  Si  Si40  1  0.24570100  0.35255300  0.99831500  1
  Si  Si41  1  0.22863800  0.78479600  0.14455900  1
  Si  Si42  1  0.02269600  0.31233000  0.61860600  1
  Si  Si43  1  0.99107100  0.84178000  0.71678100  1
  Si  Si44  1  0.22604500  0.14373300  0.37785700  1
  Si  Si45  1  0.29366100  0.68463400  0.46430700  1
  Si  Si46  1  0.48557800  0.24765300  0.10259300  1
  Si  Si47  1  0.51202300  0.86542100  0.22359500  1
  O  O48  1  0.07816400  0.27098600  0.01765500  1
  O  O49  1  0.26507700  0.18437200  0.78592000  1
  O  O50  1  0.21472200  0.80410100  0.88671900  1
  O  O51  1  0.22855900  0.47736300  0.03370200  1
  O  O52  1  0.34002100  0.80829200  0.93961700  1
  O  O53  1  0.29376200  0.37714800  0.91846000  1
  O  O54  1  0.67917200  0.22124300  0.54104800  1
  O  O55  1  0.62888200  0.68576900  0.60219400  1
  O  O56  1  0.43058100  0.98201200  0.78012800  1
  O  O57  1  0.60271500  0.72702300  0.73630200  1
  O  O58  1  0.55999300  0.16682900  0.70114600  1
  O  O59  1  0.45554800  0.61042800  0.89238900  1
  O  O60  1  0.57461200  0.15546300  0.83554800  1
  O  O61  1  0.75653200  0.18449900  0.28097700  1
  O  O62  1  0.60337500  0.70568100  0.99110000  1
  O  O63  1  0.88062100  0.84338700  0.36916700  1
  O  O64  1  0.59038800  0.44949600  0.51386300  1
  O  O65  1  0.87812500  0.07037300  0.86437500  1
  O  O66  1  0.90769100  0.77116100  0.50080200  1
  O  O67  1  0.82694200  0.36171500  0.43569700  1
  O  O68  1  0.60946900  0.90625400  0.63683800  1
  O  O69  1  0.91380200  0.39586300  0.55395800  1
  O  O70  1  0.89492500  0.77221500  0.65820800  1
  O  O71  1  0.12580800  0.58416900  0.14853300  1
  O  O72  1  0.99644400  0.01849700  0.25127100  1
  O  O73  1  0.16116400  0.41100400  0.63444700  1
  O  O74  1  0.95354600  0.77434600  0.79145200  1
  O  O75  1  0.14975300  0.66808500  0.20215300  1
  O  O76  1  0.86008700  0.28487100  0.79543200  1
  O  O77  1  0.08936900  0.23317000  0.21632100  1
  O  O78  1  0.86378100  0.60533100  0.41912300  1
  O  O79  1  0.90437700  0.97296500  0.72314600  1
  O  O80  1  0.92673700  0.39822000  0.81680400  1
  O  O81  1  0.03391700  0.17635900  0.34665500  1
  O  O82  1  0.16077400  0.72892700  0.40430900  1
  O  O83  1  0.33371700  0.06560500  0.32226700  1
  O  O84  1  0.32126500  0.78478100  0.51490800  1
  O  O85  1  0.15528600  0.20676200  0.57142400  1
  O  O86  1  0.04893900  0.85351900  0.12673300  1
  O  O87  1  0.19771700  0.56972600  0.50590800  1
  O  O88  1  0.10416700  0.08874800  0.60813900  1
  O  O89  1  0.42931400  0.27981300  0.02104900  1
  O  O90  1  0.19901300  0.84101400  0.69417800  1
  O  O91  1  0.30247000  0.86660400  0.20455000  1
  O  O92  1  0.58262100  0.36595700  0.12091300  1
  O  O93  1  0.49300100  0.81933000  0.30080000  1
  O  O94  1  0.53323700  0.35313500  0.36951700  1
  O  O95  1  0.56524400  0.00502400  0.21324200  1
  O  O96  1  0.39744500  0.44703700  0.37995000  1
  O  O97  1  0.48353700  0.65014000  0.42799600  1
  O  O98  1  0.73618000  0.59500100  0.09103200  1
  O  O99  1  0.65552000  0.14792400  0.07446200  1
  O  O100  1  0.78452500  0.49542900  0.97684600  1
  O  O101  1  0.82600900  0.17515900  0.09968600  1
  O  O102  1  0.64776600  0.80256100  0.16933300  1
  O  O103  1  0.95926400  0.69101300  0.98827100  1
  F  F104  1  0.15510700  0.03588100  0.94480000  1
  F  F105  1  0.44396400  0.45239900  0.69036900  1
  F  F106  1  0.59732100  0.04278100  0.43451200  1
  F  F107  1  0.59605300  0.45449500  0.80191000  1
  F  F108  1  0.85904200  0.43660800  0.19440300  1
  F  F109  1  0.60317300  0.97744800  0.95360700  1
  F  F110  1  0.83703200  0.99723800  0.53359300  1
  F  F111  1  0.83690600  0.52022500  0.68344700  1
  F  F112  1  0.08861700  0.49585300  0.32002600  1
  F  F113  1  0.13139400  0.01362300  0.43108500  1
  F  F114  1  0.35256900  0.00925500  0.06067700  1
  F  F115  1  0.16444700  0.56341100  0.80415800  1
  F  F116  1  0.40832800  0.48720000  0.21974000  1
  F  F117  1  0.39193200  0.00596700  0.54724700  1
  F  F118  1  0.68801500  0.54885800  0.29796100  1
  F  F119  1  0.84613300  0.94907900  0.04065400  1
