# generated using pymatgen
data_V2(OF)3
_symmetry_space_group_name_H-M   'P 1'
_cell_length_a   5.18563500
_cell_length_b   5.24131897
_cell_length_c   13.24656399
_cell_angle_alpha   89.13408405
_cell_angle_beta   89.16972357
_cell_angle_gamma   60.48746378
_symmetry_Int_Tables_number   1
_chemical_formula_structural   V2(OF)3
_chemical_formula_sum   'V6 O9 F9'
_cell_volume   313.27442376
_cell_formula_units_Z   3
loop_
 _symmetry_equiv_pos_site_id
 _symmetry_equiv_pos_as_xyz
  1  'x, y, z'
loop_
 _atom_site_type_symbol
 _atom_site_label
 _atom_site_symmetry_multiplicity
 _atom_site_fract_x
 _atom_site_fract_y
 _atom_site_fract_z
 _atom_site_occupancy
  V  V0  1  0.96897300  0.03793400  0.48716300  1
  V  V1  1  0.98553300  0.99157200  0.00411600  1
  V  V2  1  0.38032200  0.33958300  0.83090000  1
  V  V3  1  0.68349400  0.70805900  0.66938100  1
  V  V4  1  0.34845900  0.33984700  0.32785900  1
  V  V5  1  0.63934700  0.67203200  0.15800600  1
  O  O6  1  0.57131200  0.99391000  0.74988500  1
  O  O7  1  0.66976100  0.09150300  0.42209900  1
  O  O8  1  0.66286100  0.24169600  0.91137500  1
  O  O9  1  0.90563800  0.75625100  0.58770300  1
  O  O10  1  0.56511400  0.42234700  0.25344600  1
  O  O11  1  0.42547100  0.55895900  0.74802700  1
  O  O12  1  0.08790900  0.23712900  0.42108500  1
  O  O13  1  0.77532800  0.90620200  0.08237200  1
  O  O14  1  0.35363700  0.74804900  0.08186600  1
  F  F15  1  0.98983800  0.41832700  0.75037600  1
  F  F16  1  0.93544700  0.32808900  0.08388500  1
  F  F17  1  0.76402600  0.32033800  0.58740900  1
  F  F18  1  0.40327000  0.00044100  0.25204100  1
  F  F19  1  0.98141600  0.58920300  0.25340900  1
  F  F20  1  0.23568000  0.08227800  0.91456100  1
  F  F21  1  0.24531200  0.67071800  0.42384300  1
  F  F22  1  0.07931800  0.65190500  0.91225100  1
  F  F23  1  0.34253400  0.89363000  0.58694200  1
