# generated using pymatgen
data_Sr2CaI6
_symmetry_space_group_name_H-M   'P 1'
_cell_length_a   10.42542700
_cell_length_b   9.52114800
_cell_length_c   17.72852887
_cell_angle_alpha   90.00000000
_cell_angle_beta   123.31881414
_cell_angle_gamma   90.00000000
_symmetry_Int_Tables_number   1
_chemical_formula_structural   Sr2CaI6
_chemical_formula_sum   'Sr8 Ca4 I24'
_cell_volume   1470.51124001
_cell_formula_units_Z   4
loop_
 _symmetry_equiv_pos_site_id
 _symmetry_equiv_pos_as_xyz
  1  'x, y, z'
loop_
 _atom_site_type_symbol
 _atom_site_label
 _atom_site_symmetry_multiplicity
 _atom_site_fract_x
 _atom_site_fract_y
 _atom_site_fract_z
 _atom_site_occupancy
  Sr  Sr0  1  0.29642500  0.29872700  0.90644500  1
  Sr  Sr1  1  0.63755200  0.09397100  0.28736900  1
  Sr  Sr2  1  0.36244800  0.59397100  0.21263100  1
  Sr  Sr3  1  0.70357500  0.79872700  0.59355500  1
  Sr  Sr4  1  0.29642500  0.20127300  0.40644500  1
  Sr  Sr5  1  0.63755200  0.40602900  0.78736900  1
  Sr  Sr6  1  0.36244800  0.90602900  0.71263100  1
  Sr  Sr7  1  0.70357500  0.70127300  0.09355500  1
  Ca  Ca8  1  0.92664700  0.35417000  0.56975100  1
  Ca  Ca9  1  0.07335300  0.85417000  0.93024900  1
  Ca  Ca10  1  0.92664700  0.14583000  0.06975100  1
  Ca  Ca11  1  0.07335300  0.64583000  0.43024900  1
  I  I12  1  0.02337100  0.66856300  0.58858100  1
  I  I13  1  0.72391800  0.73523900  0.29491200  1
  I  I14  1  0.57214800  0.38716700  0.13487200  1
  I  I15  1  0.82688900  0.05108200  0.51407900  1
  I  I16  1  0.41805700  0.93803300  0.07653900  1
  I  I17  1  0.10785800  0.94793200  0.77646500  1
  I  I18  1  0.89214200  0.44793200  0.72353500  1
  I  I19  1  0.17311100  0.55108200  0.98592100  1
  I  I20  1  0.58194300  0.43803300  0.42346100  1
  I  I21  1  0.42785200  0.88716700  0.36512800  1
  I  I22  1  0.27608200  0.23523900  0.20508800  1
  I  I23  1  0.97662900  0.16856300  0.91141900  1
  I  I24  1  0.02337100  0.83143700  0.08858100  1
  I  I25  1  0.72391800  0.76476100  0.79491200  1
  I  I26  1  0.57214800  0.11283300  0.63487200  1
  I  I27  1  0.41805700  0.56196700  0.57653900  1
  I  I28  1  0.82688900  0.44891800  0.01407900  1
  I  I29  1  0.10785800  0.55206800  0.27646500  1
  I  I30  1  0.89214200  0.05206800  0.22353500  1
  I  I31  1  0.58194300  0.06196700  0.92346100  1
  I  I32  1  0.17311100  0.94891800  0.48592100  1
  I  I33  1  0.42785200  0.61283300  0.86512800  1
  I  I34  1  0.27608200  0.26476100  0.70508800  1
  I  I35  1  0.97662900  0.33143700  0.41141900  1
