# generated using pymatgen
data_Na2Ti12O25
_symmetry_space_group_name_H-M   'P 1'
_cell_length_a   7.52213700
_cell_length_b   10.10485411
_cell_length_c   14.65693757
_cell_angle_alpha   104.68909433
_cell_angle_beta   90.00066846
_cell_angle_gamma   111.85142404
_symmetry_Int_Tables_number   1
_chemical_formula_structural   Na2Ti12O25
_chemical_formula_sum   'Na4 Ti24 O50'
_cell_volume   994.69171993
_cell_formula_units_Z   2
loop_
 _symmetry_equiv_pos_site_id
 _symmetry_equiv_pos_as_xyz
  1  'x, y, z'
loop_
 _atom_site_type_symbol
 _atom_site_label
 _atom_site_symmetry_multiplicity
 _atom_site_fract_x
 _atom_site_fract_y
 _atom_site_fract_z
 _atom_site_occupancy
  Na  Na0  1  0.89736500  0.29494900  0.04164900  1
  Na  Na1  1  0.51044300  0.02062400  0.49335400  1
  Na  Na2  1  0.10295100  0.70577100  0.95880100  1
  Na  Na3  1  0.60171000  0.70351300  0.95953300  1
  Ti  Ti4  1  0.49517900  0.99118600  0.12379900  1
  Ti  Ti5  1  0.99608900  0.99134700  0.12348700  1
  Ti  Ti6  1  0.84273400  0.68435100  0.17540900  1
  Ti  Ti7  1  0.34239300  0.68529000  0.17607800  1
  Ti  Ti8  1  0.73511500  0.96788600  0.29309300  1
  Ti  Ti9  1  0.23255400  0.96712600  0.29359500  1
  Ti  Ti10  1  0.69577900  0.39395600  0.23941400  1
  Ti  Ti11  1  0.19842000  0.39444100  0.23911300  1
  Ti  Ti12  1  0.08940800  0.67887900  0.35235300  1
  Ti  Ti13  1  0.59002800  0.67991700  0.35296900  1
  Ti  Ti14  1  0.43140100  0.36312500  0.40638800  1
  Ti  Ti15  1  0.93193700  0.36327900  0.40582000  1
  Ti  Ti16  1  0.56889500  0.63735200  0.59332000  1
  Ti  Ti17  1  0.06802800  0.63632500  0.59292500  1
  Ti  Ti18  1  0.41019700  0.32146900  0.64757100  1
  Ti  Ti19  1  0.91086600  0.32101100  0.64746600  1
  Ti  Ti20  1  0.80349900  0.60652400  0.75891600  1
  Ti  Ti21  1  0.30346900  0.60706600  0.75887700  1
  Ti  Ti22  1  0.26514000  0.03160200  0.70556900  1
  Ti  Ti23  1  0.76647300  0.03204900  0.70659200  1
  Ti  Ti24  1  0.65725800  0.31530300  0.82388500  1
  Ti  Ti25  1  0.15802100  0.31603200  0.82454100  1
  Ti  Ti26  1  0.50738000  0.01606100  0.87813000  1
  Ti  Ti27  1  0.00846000  0.01570200  0.87815300  1
  O  O28  1  0.37945000  0.76075500  0.07501300  1
  O  O29  1  0.88119500  0.76043400  0.07455200  1
  O  O30  1  0.24372200  0.98771000  0.15719900  1
  O  O31  1  0.74313600  0.98588400  0.15685700  1
  O  O32  1  0.99456500  0.99744100  0.99964100  1
  O  O33  1  0.50280400  0.99751200  0.99977400  1
  O  O34  1  0.75273700  0.48121000  0.13639400  1
  O  O35  1  0.22899000  0.48182500  0.13643300  1
  O  O36  1  0.10973900  0.71990700  0.21788000  1
  O  O37  1  0.60901400  0.71715600  0.21695500  1
  O  O38  1  0.96355000  0.92698100  0.25825400  1
  O  O39  1  0.46395900  0.92767700  0.25814000  1
  O  O40  1  0.60766300  0.20337400  0.17580700  1
  O  O41  1  0.09563500  0.20334500  0.17574300  1
  O  O42  1  0.96653600  0.43308900  0.27942000  1
  O  O43  1  0.46661100  0.43314500  0.27911800  1
  O  O44  1  0.82210400  0.64469200  0.31771000  1
  O  O45  1  0.32157900  0.64240500  0.31724100  1
  O  O46  1  0.20072200  0.87860900  0.39699700  1
  O  O47  1  0.67827400  0.87923200  0.39687900  1
  O  O48  1  0.18652600  0.37254400  0.37764700  1
  O  O49  1  0.68693500  0.37425800  0.37808500  1
  O  O50  1  0.33301700  0.15644100  0.36547800  1
  O  O51  1  0.82377400  0.15645300  0.36539800  1
  O  O52  1  0.55284000  0.60706300  0.46126800  1
  O  O53  1  0.05414800  0.60695100  0.46101200  1
  O  O54  1  0.44752100  0.39286900  0.53884800  1
  O  O55  1  0.94541500  0.39297800  0.53860500  1
  O  O56  1  0.66892100  0.84286100  0.63547200  1
  O  O57  1  0.17329200  0.84246400  0.63516900  1
  O  O58  1  0.81346500  0.62687700  0.62189700  1
  O  O59  1  0.31289700  0.62581000  0.62164700  1
  O  O60  1  0.32255000  0.12204600  0.60252600  1
  O  O61  1  0.79945700  0.12194900  0.60274700  1
  O  O62  1  0.67865100  0.35783500  0.68306100  1
  O  O63  1  0.17820300  0.35611000  0.68293800  1
  O  O64  1  0.03382200  0.56739100  0.72114900  1
  O  O65  1  0.53363800  0.56736500  0.72135000  1
  O  O66  1  0.89761500  0.79455400  0.82634600  1
  O  O67  1  0.39724400  0.79471100  0.82641200  1
  O  O68  1  0.53605100  0.07289800  0.74143900  1
  O  O69  1  0.03698200  0.07360000  0.74077300  1
  O  O70  1  0.39071000  0.28231500  0.78315900  1
  O  O71  1  0.89163600  0.28294800  0.78219100  1
  O  O72  1  0.76139700  0.52082900  0.86519800  1
  O  O73  1  0.25936300  0.52141000  0.86541000  1
  O  O74  1  0.25528600  0.01095600  0.84193300  1
  O  O75  1  0.75485600  0.00944400  0.84146500  1
  O  O76  1  0.62921900  0.23520900  0.92223000  1
  O  O77  1  0.10583500  0.23522100  0.92253500  1
