# generated using pymatgen
data_Li2MnP2O7
_symmetry_space_group_name_H-M   'P 1'
_cell_length_a   5.10551425
_cell_length_b   8.54738719
_cell_length_c   7.25341671
_cell_angle_alpha   90.00000000
_cell_angle_beta   109.88324483
_cell_angle_gamma   90.00000000
_symmetry_Int_Tables_number   1
_chemical_formula_structural   Li2MnP2O7
_chemical_formula_sum   'Li4 Mn2 P4 O14'
_cell_volume   297.66132067
_cell_formula_units_Z   2
loop_
 _symmetry_equiv_pos_site_id
 _symmetry_equiv_pos_as_xyz
  1  'x, y, z'
loop_
 _atom_site_type_symbol
 _atom_site_label
 _atom_site_symmetry_multiplicity
 _atom_site_fract_x
 _atom_site_fract_y
 _atom_site_fract_z
 _atom_site_occupancy
  Li  Li0  1  0.81475600  0.85200150  0.84998400  1
  Li  Li1  1  0.18524400  0.35200150  0.15001600  1
  Li  Li2  1  0.35245600  0.67827250  0.58896300  1
  Li  Li3  1  0.64754400  0.17827250  0.41103700  1
  Mn  Mn4  1  0.81150900  0.49186350  0.77717000  1
  Mn  Mn5  1  0.18849100  0.99186350  0.22283000  1
  P  P6  1  0.61168100  0.18603200  0.97887550  1
  P  P7  1  0.38831900  0.68603200  0.02112450  1
  P  P8  1  0.78108100  0.79454050  0.41751100  1
  P  P9  1  0.21891900  0.29454050  0.58248900  1
  O  O10  1  0.92731400  0.31326650  0.59577550  1
  O  O11  1  0.07268600  0.81326650  0.40422450  1
  O  O12  1  0.78720200  0.70814350  0.60536750  1
  O  O13  1  0.21279800  0.20814350  0.39463250  1
  O  O14  1  0.78533100  0.03643600  0.00272600  1
  O  O15  1  0.21466900  0.53643600  0.99727400  1
  O  O16  1  0.78914800  0.33311950  0.99635250  1
  O  O17  1  0.21085200  0.83311950  0.00364750  1
  O  O18  1  0.55912200  0.69138450  0.88287400  1
  O  O19  1  0.44087800  0.19138450  0.11712600  1
  O  O20  1  0.37577900  0.44933600  0.60059000  1
  O  O21  1  0.62422100  0.94933600  0.39941000  1
  O  O22  1  0.39420700  0.17656800  0.75525100  1
  O  O23  1  0.60579300  0.67656800  0.24474900  1
