# generated using pymatgen
data_V3Fe2Te(PO4)6
_symmetry_space_group_name_H-M   'P 1'
_cell_length_a   8.76659855
_cell_length_b   8.76659855
_cell_length_c   21.02401116
_cell_angle_alpha   90.00000000
_cell_angle_beta   90.00000000
_cell_angle_gamma   120.00000000
_symmetry_Int_Tables_number   1
_chemical_formula_structural   V3Fe2Te(PO4)6
_chemical_formula_sum   'V9 Fe6 Te3 P18 O72'
_cell_volume   1399.29231509
_cell_formula_units_Z   3
loop_
 _symmetry_equiv_pos_site_id
 _symmetry_equiv_pos_as_xyz
  1  'x, y, z'
loop_
 _atom_site_type_symbol
 _atom_site_label
 _atom_site_symmetry_multiplicity
 _atom_site_fract_x
 _atom_site_fract_y
 _atom_site_fract_z
 _atom_site_occupancy
  V  V0  1  0.33333333  0.66666667  0.02254733  1
  V  V1  1  0.33333333  0.66666667  0.80951267  1
  V  V2  1  0.33333333  0.66666667  0.30873833  1
  V  V3  1  0.00000000  0.00000000  0.35588067  1
  V  V4  1  0.00000000  0.00000000  0.14284600  1
  V  V5  1  0.00000000  0.00000000  0.64207167  1
  V  V6  1  0.66666667  0.33333333  0.68921400  1
  V  V7  1  0.66666667  0.33333333  0.47617933  1
  V  V8  1  0.66666667  0.33333333  0.97540500  1
  Fe  Fe9  1  0.33333333  0.66666667  0.67053367  1
  Fe  Fe10  1  0.33333333  0.66666667  0.16620933  1
  Fe  Fe11  1  0.00000000  0.00000000  0.00386700  1
  Fe  Fe12  1  0.00000000  0.00000000  0.49954267  1
  Fe  Fe13  1  0.66666667  0.33333333  0.33720033  1
  Fe  Fe14  1  0.66666667  0.33333333  0.83287600  1
  Te  Te15  1  0.33333333  0.66666667  0.52171967  1
  Te  Te16  1  0.00000000  0.00000000  0.85505300  1
  Te  Te17  1  0.66666667  0.33333333  0.18838633  1
  P  P18  1  0.96802367  0.63447533  0.08028133  1
  P  P19  1  0.36552467  0.33354833  0.08028133  1
  P  P20  1  0.66645167  0.03197633  0.08028133  1
  P  P21  1  0.00671200  0.29266400  0.25070300  1
  P  P22  1  0.28595200  0.99328800  0.25070300  1
  P  P23  1  0.70733600  0.71404800  0.25070300  1
  P  P24  1  0.63469033  0.96780867  0.41361467  1
  P  P25  1  0.03219133  0.66688167  0.41361467  1
  P  P26  1  0.33311833  0.36530967  0.41361467  1
  P  P27  1  0.67337867  0.62599733  0.58403633  1
  P  P28  1  0.95261867  0.32662133  0.58403633  1
  P  P29  1  0.37400267  0.04738133  0.58403633  1
  P  P30  1  0.30135700  0.30114200  0.74694800  1
  P  P31  1  0.69885800  0.00021500  0.74694800  1
  P  P32  1  0.99978500  0.69864300  0.74694800  1
  P  P33  1  0.34004533  0.95933067  0.91736967  1
  P  P34  1  0.61928533  0.65995467  0.91736967  1
  P  P35  1  0.04066933  0.38071467  0.91736967  1
  O  O36  1  0.13960467  0.66775333  0.35668233  1
  O  O37  1  0.33224667  0.47185133  0.35668233  1
  O  O38  1  0.52814867  0.86039533  0.35668233  1
  O  O39  1  0.98847567  0.82000433  0.07497733  1
  O  O40  1  0.88127400  0.54737100  0.14449400  1
  O  O41  1  0.15612133  0.65613967  0.08615067  1
  O  O42  1  0.17999567  0.16847133  0.07497733  1
  O  O43  1  0.34386033  0.49998167  0.08615067  1
  O  O44  1  0.99655733  0.19334867  0.19037467  1
  O  O45  1  0.50001833  0.84387867  0.08615067  1
  O  O46  1  0.83874067  0.31225033  0.26187933  1
  O  O47  1  0.19679133  0.00344267  0.19037467  1
  O  O48  1  0.45262900  0.33390300  0.14449400  1
  O  O49  1  0.83152867  0.01152433  0.07497733  1
  O  O50  1  0.16969667  0.48171533  0.24374033  1
  O  O51  1  0.66609700  0.11872600  0.14449400  1
  O  O52  1  0.31201867  0.83030333  0.24374033  1
  O  O53  1  0.47350967  0.16125933  0.26187933  1
  O  O54  1  0.51828467  0.68798133  0.24374033  1
  O  O55  1  0.80665133  0.80320867  0.19037467  1
  O  O56  1  0.68774967  0.52649033  0.26187933  1
  O  O57  1  0.13586833  0.48451767  0.97763067  1
  O  O58  1  0.34864933  0.86413167  0.97763067  1
  O  O59  1  0.51548233  0.65135067  0.97763067  1
  O  O60  1  0.80627133  0.00108667  0.69001567  1
  O  O61  1  0.99891333  0.80518467  0.69001567  1
  O  O62  1  0.19481533  0.19372867  0.69001567  1
  O  O63  1  0.65514233  0.15333767  0.40831067  1
  O  O64  1  0.54794067  0.88070433  0.47782733  1
  O  O65  1  0.82278800  0.98947300  0.41948400  1
  O  O66  1  0.84666233  0.50180467  0.40831067  1
  O  O67  1  0.01052700  0.83331500  0.41948400  1
  O  O68  1  0.66322400  0.52668200  0.52370800  1
  O  O69  1  0.16668500  0.17721200  0.41948400  1
  O  O70  1  0.50540733  0.64558367  0.59521267  1
  O  O71  1  0.86345800  0.33677600  0.52370800  1
  O  O72  1  0.11929567  0.66723633  0.47782733  1
  O  O73  1  0.49819533  0.34485767  0.40831067  1
  O  O74  1  0.83636333  0.81504867  0.57707367  1
  O  O75  1  0.33276367  0.45205933  0.47782733  1
  O  O76  1  0.97868533  0.16363667  0.57707367  1
  O  O77  1  0.14017633  0.49459267  0.59521267  1
  O  O78  1  0.18495133  0.02131467  0.57707367  1
  O  O79  1  0.47331800  0.13654200  0.52370800  1
  O  O80  1  0.35441633  0.85982367  0.59521267  1
  O  O81  1  0.80253500  0.81785100  0.31096400  1
  O  O82  1  0.01531600  0.19746500  0.31096400  1
  O  O83  1  0.18214900  0.98468400  0.31096400  1
  O  O84  1  0.47293800  0.33442000  0.02334900  1
  O  O85  1  0.66558000  0.13851800  0.02334900  1
  O  O86  1  0.86148200  0.52706200  0.02334900  1
  O  O87  1  0.32180900  0.48667100  0.74164400  1
  O  O88  1  0.21460733  0.21403767  0.81116067  1
  O  O89  1  0.48945467  0.32280633  0.75281733  1
  O  O90  1  0.51332900  0.83513800  0.74164400  1
  O  O91  1  0.67719367  0.16664833  0.75281733  1
  O  O92  1  0.32989067  0.86001533  0.85704133  1
  O  O93  1  0.83335167  0.51054533  0.75281733  1
  O  O94  1  0.17207400  0.97891700  0.92854600  1
  O  O95  1  0.53012467  0.67010933  0.85704133  1
  O  O96  1  0.78596233  0.00056967  0.81116067  1
  O  O97  1  0.16486200  0.67819100  0.74164400  1
  O  O98  1  0.50303000  0.14838200  0.91040700  1
  O  O99  1  0.99943033  0.78539267  0.81116067  1
  O  O100  1  0.64535200  0.49697000  0.91040700  1
  O  O101  1  0.80684300  0.82792600  0.92854600  1
  O  O102  1  0.85161800  0.35464800  0.91040700  1
  O  O103  1  0.13998467  0.46987533  0.85704133  1
  O  O104  1  0.02108300  0.19315700  0.92854600  1
  O  O105  1  0.46920167  0.15118433  0.64429733  1
  O  O106  1  0.68198267  0.53079833  0.64429733  1
  O  O107  1  0.84881567  0.31801733  0.64429733  1
