# generated using pymatgen
data_Fe3O4
_symmetry_space_group_name_H-M   'P 1'
_cell_length_a   2.94267094
_cell_length_b   9.76635158
_cell_length_c   9.99026188
_cell_angle_alpha   90.00000000
_cell_angle_beta   90.00000000
_cell_angle_gamma   90.00000000
_symmetry_Int_Tables_number   1
_chemical_formula_structural   Fe3O4
_chemical_formula_sum   'Fe12 O16'
_cell_volume   287.11172444
_cell_formula_units_Z   4
loop_
 _symmetry_equiv_pos_site_id
 _symmetry_equiv_pos_as_xyz
  1  'x, y, z'
loop_
 _atom_site_type_symbol
 _atom_site_label
 _atom_site_symmetry_multiplicity
 _atom_site_fract_x
 _atom_site_fract_y
 _atom_site_fract_z
 _atom_site_occupancy
  Fe  Fe0  1  0.50000000  0.12909800  0.57330000  1
  Fe  Fe1  1  0.00000000  0.36571850  0.42391100  1
  Fe  Fe2  1  0.50000000  0.13428150  0.92391100  1
  Fe  Fe3  1  0.00000000  0.37090200  0.07330000  1
  Fe  Fe4  1  0.50000000  0.38417300  0.73978200  1
  Fe  Fe5  1  0.00000000  0.11582700  0.23978200  1
  Fe  Fe6  1  0.00000000  0.62909800  0.57330000  1
  Fe  Fe7  1  0.50000000  0.86571850  0.42391100  1
  Fe  Fe8  1  0.00000000  0.63428150  0.92391100  1
  Fe  Fe9  1  0.50000000  0.87090200  0.07330000  1
  Fe  Fe10  1  0.00000000  0.88417300  0.73978200  1
  Fe  Fe11  1  0.50000000  0.61582700  0.23978200  1
  O  O12  1  0.50000000  0.03794950  0.75335100  1
  O  O13  1  0.00000000  0.46205050  0.25335100  1
  O  O14  1  0.50000000  0.23664850  0.10998700  1
  O  O15  1  0.00000000  0.27698550  0.88605100  1
  O  O16  1  0.50000000  0.22301450  0.38605100  1
  O  O17  1  0.00000000  0.26335150  0.60998700  1
  O  O18  1  0.50000000  0.49259800  0.50968900  1
  O  O19  1  0.00000000  0.00740200  0.00968900  1
  O  O20  1  0.00000000  0.53794950  0.75335100  1
  O  O21  1  0.50000000  0.96205050  0.25335100  1
  O  O22  1  0.00000000  0.73664850  0.10998700  1
  O  O23  1  0.50000000  0.77698550  0.88605100  1
  O  O24  1  0.00000000  0.72301450  0.38605100  1
  O  O25  1  0.50000000  0.76335150  0.60998700  1
  O  O26  1  0.00000000  0.99259800  0.50968900  1
  O  O27  1  0.50000000  0.50740200  0.00968900  1
