# generated using pymatgen
data_SrTaNO2
_symmetry_space_group_name_H-M   'P 1'
_cell_length_a   5.77452400
_cell_length_b   8.06741800
_cell_length_c   5.79524320
_cell_angle_alpha   90.00000000
_cell_angle_beta   90.38406128
_cell_angle_gamma   90.00000000
_symmetry_Int_Tables_number   1
_chemical_formula_structural   SrTaNO2
_chemical_formula_sum   'Sr4 Ta4 N4 O8'
_cell_volume   269.96823005
_cell_formula_units_Z   4
loop_
 _symmetry_equiv_pos_site_id
 _symmetry_equiv_pos_as_xyz
  1  'x, y, z'
loop_
 _atom_site_type_symbol
 _atom_site_label
 _atom_site_symmetry_multiplicity
 _atom_site_fract_x
 _atom_site_fract_y
 _atom_site_fract_z
 _atom_site_occupancy
  Sr  Sr0  1  0.00433000  0.24699500  0.99514300  1
  Sr  Sr1  1  0.50544600  0.24887700  0.49428300  1
  Sr  Sr2  1  0.49455400  0.74887700  0.50571700  1
  Sr  Sr3  1  0.99567000  0.74699500  0.00485700  1
  Ta  Ta4  1  0.00416700  0.49849500  0.51642100  1
  Ta  Ta5  1  0.99583300  0.99849500  0.48357900  1
  Ta  Ta6  1  0.49536500  0.99797100  0.01643300  1
  Ta  Ta7  1  0.50463500  0.49797100  0.98356700  1
  N  N8  1  0.23639300  0.00001800  0.23377300  1
  N  N9  1  0.26342700  0.47456300  0.73371100  1
  N  N10  1  0.73657300  0.97456300  0.26628900  1
  N  N11  1  0.76360700  0.50001800  0.76622700  1
  O  O12  1  0.22273300  0.50161100  0.22855600  1
  O  O13  1  0.52563300  0.25090200  0.03073600  1
  O  O14  1  0.02945700  0.75072600  0.52675900  1
  O  O15  1  0.27669600  0.02984300  0.72949100  1
  O  O16  1  0.72330400  0.52984300  0.27050900  1
  O  O17  1  0.47436700  0.75090200  0.96926400  1
  O  O18  1  0.97054300  0.25072600  0.47324100  1
  O  O19  1  0.77726700  0.00161100  0.77144400  1
