# generated using pymatgen
data_K2Sn2O3
_symmetry_space_group_name_H-M   'P 1'
_cell_length_a   6.14038644
_cell_length_b   6.14038644
_cell_length_c   14.44201244
_cell_angle_alpha   90.00000000
_cell_angle_beta   90.00000000
_cell_angle_gamma   120.00000000
_symmetry_Int_Tables_number   1
_chemical_formula_structural   K2Sn2O3
_chemical_formula_sum   'K6 Sn6 O9'
_cell_volume   471.57389353
_cell_formula_units_Z   3
loop_
 _symmetry_equiv_pos_site_id
 _symmetry_equiv_pos_as_xyz
  1  'x, y, z'
loop_
 _atom_site_type_symbol
 _atom_site_label
 _atom_site_symmetry_multiplicity
 _atom_site_fract_x
 _atom_site_fract_y
 _atom_site_fract_z
 _atom_site_occupancy
  K  K0  1  0.33333333  0.66666667  0.16666667  1
  K  K1  1  0.00000000  0.00000000  0.00000000  1
  K  K2  1  1.00000000  1.00000000  0.50000000  1
  K  K3  1  0.66666667  0.33333333  0.33333333  1
  K  K4  1  0.66666667  0.33333333  0.83333333  1
  K  K5  1  0.33333333  0.66666667  0.66666667  1
  Sn  Sn6  1  0.33333333  0.66666667  0.90754867  1
  Sn  Sn7  1  0.33333333  0.66666667  0.42578467  1
  Sn  Sn8  1  0.00000000  0.00000000  0.24088200  1
  Sn  Sn9  1  0.00000000  0.00000000  0.75911800  1
  Sn  Sn10  1  0.66666667  0.33333333  0.57421533  1
  Sn  Sn11  1  0.66666667  0.33333333  0.09245133  1
  O  O12  1  0.33333333  0.16666667  0.16666667  1
  O  O13  1  0.16666667  0.33333333  0.83333333  1
  O  O14  1  0.83333333  0.16666667  0.16666667  1
  O  O15  1  0.00000000  0.50000000  0.50000000  1
  O  O16  1  0.83333333  0.66666667  0.16666667  1
  O  O17  1  0.50000000  0.50000000  0.50000000  1
  O  O18  1  0.66666667  0.83333333  0.83333333  1
  O  O19  1  0.50000000  0.00000000  0.50000000  1
  O  O20  1  0.16666667  0.83333333  0.83333333  1
