# generated using pymatgen
data_La2Nb2N2O5
_symmetry_space_group_name_H-M   'P 1'
_cell_length_a   4.04539800
_cell_length_b   26.72419000
_cell_length_c   5.69880100
_cell_angle_alpha   90.00000000
_cell_angle_beta   90.00000000
_cell_angle_gamma   90.00000000
_symmetry_Int_Tables_number   1
_chemical_formula_structural   La2Nb2N2O5
_chemical_formula_sum   'La8 Nb8 N8 O20'
_cell_volume   616.09728936
_cell_formula_units_Z   4
loop_
 _symmetry_equiv_pos_site_id
 _symmetry_equiv_pos_as_xyz
  1  'x, y, z'
loop_
 _atom_site_type_symbol
 _atom_site_label
 _atom_site_symmetry_multiplicity
 _atom_site_fract_x
 _atom_site_fract_y
 _atom_site_fract_z
 _atom_site_occupancy
  La  La0  1  0.50000000  0.79452600  0.04749700  1
  La  La1  1  0.50000000  0.94716300  0.47396900  1
  La  La2  1  0.00000000  0.55283700  0.97396900  1
  La  La3  1  0.00000000  0.70547400  0.54749700  1
  La  La4  1  0.00000000  0.29452600  0.04749700  1
  La  La5  1  0.00000000  0.44716300  0.47396900  1
  La  La6  1  0.50000000  0.05283700  0.97396900  1
  La  La7  1  0.50000000  0.20547400  0.54749700  1
  Nb  Nb8  1  0.50000000  0.55822600  0.47523800  1
  Nb  Nb9  1  0.50000000  0.66181300  0.00115100  1
  Nb  Nb10  1  0.00000000  0.83818700  0.50115100  1
  Nb  Nb11  1  0.00000000  0.94177400  0.97523800  1
  Nb  Nb12  1  0.00000000  0.05822600  0.47523800  1
  Nb  Nb13  1  0.00000000  0.16181300  0.00115100  1
  Nb  Nb14  1  0.50000000  0.33818700  0.50115100  1
  Nb  Nb15  1  0.50000000  0.44177400  0.97523800  1
  N  N16  1  0.50000000  0.95397400  0.93805100  1
  N  N17  1  0.50000000  0.84640700  0.45558000  1
  N  N18  1  0.00000000  0.54602600  0.43805100  1
  N  N19  1  0.00000000  0.65359300  0.95558000  1
  N  N20  1  0.00000000  0.45397400  0.93805100  1
  N  N21  1  0.00000000  0.34640700  0.45558000  1
  N  N22  1  0.50000000  0.04602600  0.43805100  1
  N  N23  1  0.50000000  0.15359300  0.95558000  1
  O  O24  1  0.50000000  0.51433000  0.76232400  1
  O  O25  1  0.50000000  0.59029200  0.14367300  1
  O  O26  1  0.50000000  0.72022600  0.77955100  1
  O  O27  1  0.50000000  0.61766100  0.65579400  1
  O  O28  1  0.50000000  0.70362000  0.27759000  1
  O  O29  1  0.00000000  0.77977400  0.27955100  1
  O  O30  1  0.00000000  0.79638000  0.77759000  1
  O  O31  1  0.00000000  0.88233900  0.15579400  1
  O  O32  1  0.00000000  0.90970800  0.64367300  1
  O  O33  1  0.00000000  0.98567000  0.26232400  1
  O  O34  1  0.00000000  0.01433000  0.76232400  1
  O  O35  1  0.00000000  0.09029200  0.14367300  1
  O  O36  1  0.00000000  0.22022600  0.77955100  1
  O  O37  1  0.00000000  0.11766100  0.65579400  1
  O  O38  1  0.00000000  0.20362000  0.27759000  1
  O  O39  1  0.50000000  0.27977400  0.27955100  1
  O  O40  1  0.50000000  0.29638000  0.77759000  1
  O  O41  1  0.50000000  0.38233900  0.15579400  1
  O  O42  1  0.50000000  0.40970800  0.64367300  1
  O  O43  1  0.50000000  0.48567000  0.26232400  1
