# generated using pymatgen
data_SbPO4
_symmetry_space_group_name_H-M   'P 1'
_cell_length_a   4.78709000
_cell_length_b   7.25783400
_cell_length_c   9.98405300
_cell_angle_alpha   90.00000000
_cell_angle_beta   90.00000000
_cell_angle_gamma   90.00000000
_symmetry_Int_Tables_number   1
_chemical_formula_structural   SbPO4
_chemical_formula_sum   'Sb4 P4 O16'
_cell_volume   346.88498458
_cell_formula_units_Z   4
loop_
 _symmetry_equiv_pos_site_id
 _symmetry_equiv_pos_as_xyz
  1  'x, y, z'
loop_
 _atom_site_type_symbol
 _atom_site_label
 _atom_site_symmetry_multiplicity
 _atom_site_fract_x
 _atom_site_fract_y
 _atom_site_fract_z
 _atom_site_occupancy
  Sb  Sb0  1  0.89131100  0.25000000  0.29453300  1
  Sb  Sb1  1  0.60868900  0.25000000  0.79453300  1
  Sb  Sb2  1  0.39131100  0.75000000  0.20546700  1
  Sb  Sb3  1  0.10868900  0.75000000  0.70546700  1
  P  P4  1  0.31820400  0.25000000  0.09652100  1
  P  P5  1  0.18179600  0.25000000  0.59652100  1
  P  P6  1  0.81820400  0.75000000  0.40347900  1
  P  P7  1  0.68179600  0.75000000  0.90347900  1
  O  O8  1  0.17711300  0.08470500  0.17616100  1
  O  O9  1  0.32288700  0.08470500  0.67616100  1
  O  O10  1  0.63915300  0.25000000  0.11266000  1
  O  O11  1  0.25222400  0.25000000  0.44742200  1
  O  O12  1  0.24777600  0.25000000  0.94742200  1
  O  O13  1  0.86084700  0.25000000  0.61266000  1
  O  O14  1  0.17711300  0.41529500  0.17616100  1
  O  O15  1  0.32288700  0.41529500  0.67616100  1
  O  O16  1  0.82288700  0.58470500  0.82383900  1
  O  O17  1  0.67711300  0.58470500  0.32383900  1
  O  O18  1  0.74777600  0.75000000  0.55257800  1
  O  O19  1  0.75222400  0.75000000  0.05257800  1
  O  O20  1  0.13915300  0.75000000  0.38734000  1
  O  O21  1  0.36084700  0.75000000  0.88734000  1
  O  O22  1  0.67711300  0.91529500  0.32383900  1
  O  O23  1  0.82288700  0.91529500  0.82383900  1
