# generated using pymatgen
data_LiV(CO3)2
_symmetry_space_group_name_H-M   'P 1'
_cell_length_a   4.95682546
_cell_length_b   7.96608900
_cell_length_c   6.53324810
_cell_angle_alpha   90.00000000
_cell_angle_beta   112.18340536
_cell_angle_gamma   90.00000000
_symmetry_Int_Tables_number   1
_chemical_formula_structural   LiV(CO3)2
_chemical_formula_sum   'Li2 V2 C4 O12'
_cell_volume   238.87985642
_cell_formula_units_Z   2
loop_
 _symmetry_equiv_pos_site_id
 _symmetry_equiv_pos_as_xyz
  1  'x, y, z'
loop_
 _atom_site_type_symbol
 _atom_site_label
 _atom_site_symmetry_multiplicity
 _atom_site_fract_x
 _atom_site_fract_y
 _atom_site_fract_z
 _atom_site_occupancy
  Li  Li0  1  0.34949150  0.04884450  0.86529500  1
  Li  Li1  1  0.65050850  0.54884450  0.13470500  1
  V  V2  1  0.01571950  0.00048350  0.26557450  1
  V  V3  1  0.98428050  0.50048350  0.73442550  1
  C  C4  1  0.88641450  0.26314650  0.38672400  1
  C  C5  1  0.11358550  0.76314650  0.61327600  1
  C  C6  1  0.86720450  0.24154150  0.89892000  1
  C  C7  1  0.13279550  0.74154150  0.10108000  1
  O  O8  1  0.13700850  0.24321800  0.37258300  1
  O  O9  1  0.86299150  0.74321800  0.62741700  1
  O  O10  1  0.71726750  0.13346050  0.34774500  1
  O  O11  1  0.28273250  0.63346050  0.65225500  1
  O  O12  1  0.80163650  0.41121550  0.42921250  1
  O  O13  1  0.19836350  0.91121550  0.57078750  1
  O  O14  1  0.09833450  0.24756800  0.85092400  1
  O  O15  1  0.90166550  0.74756800  0.14907600  1
  O  O16  1  0.72538450  0.38296750  0.87844450  1
  O  O17  1  0.27461550  0.88296750  0.12155550  1
  O  O18  1  0.77822650  0.10340900  0.95664100  1
  O  O19  1  0.22177350  0.60340900  0.04335900  1
