# generated using pymatgen
data_Mn2(SO4)3
_symmetry_space_group_name_H-M   'P 1'
_cell_length_a   8.36469397
_cell_length_b   8.36469397
_cell_length_c   22.94111560
_cell_angle_alpha   90.00000000
_cell_angle_beta   90.00000000
_cell_angle_gamma   120.00000000
_symmetry_Int_Tables_number   1
_chemical_formula_structural   Mn2(SO4)3
_chemical_formula_sum   'Mn12 S18 O72'
_cell_volume   1390.09755183
_cell_formula_units_Z   6
loop_
 _symmetry_equiv_pos_site_id
 _symmetry_equiv_pos_as_xyz
  1  'x, y, z'
loop_
 _atom_site_type_symbol
 _atom_site_label
 _atom_site_symmetry_multiplicity
 _atom_site_fract_x
 _atom_site_fract_y
 _atom_site_fract_z
 _atom_site_occupancy
  Mn  Mn0  1  0.00000000  0.00000000  0.14432600  1
  Mn  Mn1  1  0.33333333  0.66666667  0.01258967  1
  Mn  Mn2  1  0.33333333  0.66666667  0.32074367  1
  Mn  Mn3  1  0.66666667  0.33333333  0.18900733  1
  Mn  Mn4  1  0.66666667  0.33333333  0.47765933  1
  Mn  Mn5  1  0.00000000  0.00000000  0.34592300  1
  Mn  Mn6  1  0.00000000  0.00000000  0.65407700  1
  Mn  Mn7  1  0.33333333  0.66666667  0.52234067  1
  Mn  Mn8  1  0.33333333  0.66666667  0.81099267  1
  Mn  Mn9  1  0.66666667  0.33333333  0.67925633  1
  Mn  Mn10  1  0.66666667  0.33333333  0.98741033  1
  Mn  Mn11  1  0.00000000  0.00000000  0.85567400  1
  S  S12  1  0.96219033  0.33745067  0.08145167  1
  S  S13  1  0.29140633  0.29552367  0.25188167  1
  S  S14  1  0.00411733  0.70859367  0.25188167  1
  S  S15  1  0.66254933  0.62473967  0.08145167  1
  S  S16  1  0.37526033  0.03780967  0.08145167  1
  S  S17  1  0.70447633  0.99588267  0.25188167  1
  S  S18  1  0.62885700  0.67078400  0.41478500  1
  S  S19  1  0.95807300  0.62885700  0.58521500  1
  S  S20  1  0.67078400  0.04192700  0.58521500  1
  S  S21  1  0.32921600  0.95807300  0.41478500  1
  S  S22  1  0.04192700  0.37114300  0.41478500  1
  S  S23  1  0.37114300  0.32921600  0.58521500  1
  S  S24  1  0.29552367  0.00411733  0.74811833  1
  S  S25  1  0.62473967  0.96219033  0.91854833  1
  S  S26  1  0.33745067  0.37526033  0.91854833  1
  S  S27  1  0.99588267  0.29140633  0.74811833  1
  S  S28  1  0.70859367  0.70447633  0.74811833  1
  S  S29  1  0.03780967  0.66254933  0.91854833  1
  O  O30  1  0.91979433  0.77114767  0.29855867  1
  O  O31  1  0.85135333  0.08020567  0.29855867  1
  O  O32  1  0.88349033  0.35085967  0.13705967  1
  O  O33  1  0.04111033  0.21512567  0.08561467  1
  O  O34  1  0.22885233  0.14864667  0.29855867  1
  O  O35  1  0.88179233  0.50734867  0.24771867  1
  O  O36  1  0.19929733  0.21682367  0.19627367  1
  O  O37  1  0.10686033  0.52930867  0.06539067  1
  O  O38  1  0.24421833  0.44019367  0.26794267  1
  O  O39  1  0.01752633  0.80070267  0.19627367  1
  O  O40  1  0.49265133  0.37444367  0.24771867  1
  O  O41  1  0.19597533  0.75578167  0.26794267  1
  O  O42  1  0.47069133  0.57755167  0.06539067  1
  O  O43  1  0.17401533  0.95888967  0.08561467  1
  O  O44  1  0.64914033  0.53263067  0.13705967  1
  O  O45  1  0.42244833  0.89313967  0.06539067  1
  O  O46  1  0.55980633  0.80402467  0.26794267  1
  O  O47  1  0.46736933  0.11650967  0.13705967  1
  O  O48  1  0.78487433  0.82598467  0.08561467  1
  O  O49  1  0.43781433  0.18468667  0.03477467  1
  O  O50  1  0.62555633  0.11820767  0.24771867  1
  O  O51  1  0.78317633  0.98247367  0.19627367  1
  O  O52  1  0.81531333  0.25312767  0.03477467  1
  O  O53  1  0.74687233  0.56218567  0.03477467  1
  O  O54  1  0.58646100  0.10448100  0.63189200  1
  O  O55  1  0.51802000  0.41353900  0.63189200  1
  O  O56  1  0.55015700  0.68419300  0.47039300  1
  O  O57  1  0.70777700  0.54845900  0.41894800  1
  O  O58  1  0.89551900  0.48198000  0.63189200  1
  O  O59  1  0.54845900  0.84068200  0.58105200  1
  O  O60  1  0.86596400  0.55015700  0.52960700  1
  O  O61  1  0.77352700  0.86264200  0.39872400  1
  O  O62  1  0.91088500  0.77352700  0.60127600  1
  O  O63  1  0.68419300  0.13403600  0.52960700  1
  O  O64  1  0.15931800  0.70777700  0.58105200  1
  O  O65  1  0.86264200  0.08911500  0.60127600  1
  O  O66  1  0.13735800  0.91088500  0.39872400  1
  O  O67  1  0.84068200  0.29222300  0.41894800  1
  O  O68  1  0.31580700  0.86596400  0.47039300  1
  O  O69  1  0.08911500  0.22647300  0.39872400  1
  O  O70  1  0.22647300  0.13735800  0.60127600  1
  O  O71  1  0.13403600  0.44984300  0.47039300  1
  O  O72  1  0.45154100  0.15931800  0.41894800  1
  O  O73  1  0.10448100  0.51802000  0.36810800  1
  O  O74  1  0.29222300  0.45154100  0.58105200  1
  O  O75  1  0.44984300  0.31580700  0.52960700  1
  O  O76  1  0.48198000  0.58646100  0.36810800  1
  O  O77  1  0.41353900  0.89551900  0.36810800  1
  O  O78  1  0.25312767  0.43781433  0.96522533  1
  O  O79  1  0.18468667  0.74687233  0.96522533  1
  O  O80  1  0.21682367  0.01752633  0.80372633  1
  O  O81  1  0.37444367  0.88179233  0.75228133  1
  O  O82  1  0.56218567  0.81531333  0.96522533  1
  O  O83  1  0.21512567  0.17401533  0.91438533  1
  O  O84  1  0.53263067  0.88349033  0.86294033  1
  O  O85  1  0.44019367  0.19597533  0.73205733  1
  O  O86  1  0.57755167  0.10686033  0.93460933  1
  O  O87  1  0.35085967  0.46736933  0.86294033  1
  O  O88  1  0.82598467  0.04111033  0.91438533  1
  O  O89  1  0.52930867  0.42244833  0.93460933  1
  O  O90  1  0.80402467  0.24421833  0.73205733  1
  O  O91  1  0.50734867  0.62555633  0.75228133  1
  O  O92  1  0.98247367  0.19929733  0.80372633  1
  O  O93  1  0.75578167  0.55980633  0.73205733  1
  O  O94  1  0.89313967  0.47069133  0.93460933  1
  O  O95  1  0.80070267  0.78317633  0.80372633  1
  O  O96  1  0.11820767  0.49265133  0.75228133  1
  O  O97  1  0.77114767  0.85135333  0.70144133  1
  O  O98  1  0.95888967  0.78487433  0.91438533  1
  O  O99  1  0.11650967  0.64914033  0.86294033  1
  O  O100  1  0.14864667  0.91979433  0.70144133  1
  O  O101  1  0.08020567  0.22885233  0.70144133  1
