# generated using pymatgen
data_Na3FeBAsO7
_symmetry_space_group_name_H-M   'P 1'
_cell_length_a   5.29728600
_cell_length_b   6.86773600
_cell_length_c   9.11541409
_cell_angle_alpha   90.00000000
_cell_angle_beta   91.11438640
_cell_angle_gamma   90.00000000
_symmetry_Int_Tables_number   1
_chemical_formula_structural   Na3FeBAsO7
_chemical_formula_sum   'Na6 Fe2 B2 As2 O14'
_cell_volume   331.55933921
_cell_formula_units_Z   2
loop_
 _symmetry_equiv_pos_site_id
 _symmetry_equiv_pos_as_xyz
  1  'x, y, z'
loop_
 _atom_site_type_symbol
 _atom_site_label
 _atom_site_symmetry_multiplicity
 _atom_site_fract_x
 _atom_site_fract_y
 _atom_site_fract_z
 _atom_site_occupancy
  Na  Na0  1  0.24416200  0.25000000  0.07267200  1
  Na  Na1  1  0.75213900  0.99960000  0.24323900  1
  Na  Na2  1  0.75213900  0.50040000  0.24323900  1
  Na  Na3  1  0.24786100  0.49960000  0.75676100  1
  Na  Na4  1  0.24786100  0.00040000  0.75676100  1
  Na  Na5  1  0.75583800  0.75000000  0.92732800  1
  Fe  Fe6  1  0.22127900  0.75000000  0.33014600  1
  Fe  Fe7  1  0.77872100  0.25000000  0.66985400  1
  B  B8  1  0.26550900  0.75000000  0.06237300  1
  B  B9  1  0.73449100  0.25000000  0.93762700  1
  As  As10  1  0.29272100  0.25000000  0.42330500  1
  As  As11  1  0.70727900  0.75000000  0.57669500  1
  O  O12  1  0.70227500  0.25000000  0.08435800  1
  O  O13  1  0.03008100  0.75000000  0.13103300  1
  O  O14  1  0.46724700  0.75000000  0.16643500  1
  O  O15  1  0.21827900  0.05422800  0.31245300  1
  O  O16  1  0.21827900  0.44577200  0.31245300  1
  O  O17  1  0.61527200  0.25000000  0.46320900  1
  O  O18  1  0.86017700  0.75000000  0.41280400  1
  O  O19  1  0.13982300  0.25000000  0.58719600  1
  O  O20  1  0.38472800  0.75000000  0.53679100  1
  O  O21  1  0.78172100  0.55422800  0.68754700  1
  O  O22  1  0.78172100  0.94577200  0.68754700  1
  O  O23  1  0.53275300  0.25000000  0.83356500  1
  O  O24  1  0.96991900  0.25000000  0.86896700  1
  O  O25  1  0.29772500  0.75000000  0.91564200  1
