# generated using pymatgen
data_La2Al4O9
_symmetry_space_group_name_H-M   'P 1'
_cell_length_a   5.72380300
_cell_length_b   7.67060300
_cell_length_c   8.47042200
_cell_angle_alpha   90.00000000
_cell_angle_beta   90.00000000
_cell_angle_gamma   90.00000000
_symmetry_Int_Tables_number   1
_chemical_formula_structural   La2Al4O9
_chemical_formula_sum   'La4 Al8 O18'
_cell_volume   371.89405124
_cell_formula_units_Z   2
loop_
 _symmetry_equiv_pos_site_id
 _symmetry_equiv_pos_as_xyz
  1  'x, y, z'
loop_
 _atom_site_type_symbol
 _atom_site_label
 _atom_site_symmetry_multiplicity
 _atom_site_fract_x
 _atom_site_fract_y
 _atom_site_fract_z
 _atom_site_occupancy
  La  La0  1  0.00000000  0.15069400  0.17775200  1
  La  La1  1  0.00000000  0.34930600  0.67775200  1
  La  La2  1  0.00000000  0.65069400  0.32224800  1
  La  La3  1  0.00000000  0.84930600  0.82224800  1
  Al  Al4  1  0.25900100  0.00000000  0.50000000  1
  Al  Al5  1  0.74099900  0.00000000  0.50000000  1
  Al  Al6  1  0.50000000  0.14200400  0.83893900  1
  Al  Al7  1  0.50000000  0.35799600  0.33893900  1
  Al  Al8  1  0.25900100  0.50000000  0.00000000  1
  Al  Al9  1  0.74099900  0.50000000  0.00000000  1
  Al  Al10  1  0.50000000  0.64200400  0.66106100  1
  Al  Al11  1  0.50000000  0.85799600  0.16106100  1
  O  O12  1  0.50000000  0.00000000  0.00000000  1
  O  O13  1  0.75089900  0.10377600  0.71860100  1
  O  O14  1  0.24910100  0.10377600  0.71860100  1
  O  O15  1  0.50000000  0.14738100  0.42703800  1
  O  O16  1  0.00000000  0.15426900  0.44911600  1
  O  O17  1  0.00000000  0.34573100  0.94911600  1
  O  O18  1  0.50000000  0.35261900  0.92703800  1
  O  O19  1  0.24910100  0.39622400  0.21860100  1
  O  O20  1  0.75089900  0.39622400  0.21860100  1
  O  O21  1  0.50000000  0.50000000  0.50000000  1
  O  O22  1  0.24910100  0.60377600  0.78139900  1
  O  O23  1  0.75089900  0.60377600  0.78139900  1
  O  O24  1  0.50000000  0.64738100  0.07296200  1
  O  O25  1  0.00000000  0.65426900  0.05088400  1
  O  O26  1  0.00000000  0.84573100  0.55088400  1
  O  O27  1  0.50000000  0.85261900  0.57296200  1
  O  O28  1  0.24910100  0.89622400  0.28139900  1
  O  O29  1  0.75089900  0.89622400  0.28139900  1
