# generated using pymatgen
data_CeZr11O24
_symmetry_space_group_name_H-M   'P 1'
_cell_length_a   6.90092500
_cell_length_b   7.48261061
_cell_length_c   9.74339839
_cell_angle_alpha   93.47239831
_cell_angle_beta   91.55057566
_cell_angle_gamma   116.31371654
_symmetry_Int_Tables_number   1
_chemical_formula_structural   CeZr11O24
_chemical_formula_sum   'Ce1 Zr11 O24'
_cell_volume   449.34040481
_cell_formula_units_Z   1
loop_
 _symmetry_equiv_pos_site_id
 _symmetry_equiv_pos_as_xyz
  1  'x, y, z'
loop_
 _atom_site_type_symbol
 _atom_site_label
 _atom_site_symmetry_multiplicity
 _atom_site_fract_x
 _atom_site_fract_y
 _atom_site_fract_z
 _atom_site_occupancy
  Ce  Ce0  1  0.92679400  0.83131600  0.63250500  1
  Zr  Zr1  1  0.22097600  0.95073500  0.01334800  1
  Zr  Zr2  1  0.11698800  0.71786400  0.32258800  1
  Zr  Zr3  1  0.74636800  0.50809500  0.03710200  1
  Zr  Zr4  1  0.54901500  0.61464400  0.33919300  1
  Zr  Zr5  1  0.41650400  0.83901200  0.70633400  1
  Zr  Zr6  1  0.08002900  0.17630100  0.36778200  1
  Zr  Zr7  1  0.58843000  0.16066700  0.29785500  1
  Zr  Zr8  1  0.44685700  0.38343300  0.65912000  1
  Zr  Zr9  1  0.25338400  0.49268400  0.96357300  1
  Zr  Zr10  1  0.87991700  0.28263000  0.67553300  1
  Zr  Zr11  1  0.78301300  0.05222800  0.99429600  1
  O  O12  1  0.11178200  0.65359400  0.09113200  1
  O  O13  1  0.46963200  0.85308700  0.31508100  1
  O  O14  1  0.86555100  0.81366200  0.01427400  1
  O  O15  1  0.19557800  0.78680900  0.53420400  1
  O  O16  1  0.47848500  0.54033600  0.12909600  1
  O  O17  1  0.19635500  0.47941400  0.34497000  1
  O  O18  1  0.15782300  0.87457400  0.80265200  1
  O  O19  1  0.55105500  0.17196300  0.07256300  1
  O  O20  1  0.88436600  0.83799100  0.39469700  1
  O  O21  1  0.54279200  0.67378700  0.57474100  1
  O  O22  1  0.22463700  0.01552200  0.24307400  1
  O  O23  1  0.78257800  0.49313500  0.26084300  1
  O  O24  1  0.21470800  0.50435300  0.74176600  1
  O  O25  1  0.44476400  0.31968900  0.42180800  1
  O  O26  1  0.76989300  0.99388700  0.76194700  1
  O  O27  1  0.11755400  0.17323800  0.59221700  1
  O  O28  1  0.45299600  0.82681200  0.93298400  1
  O  O29  1  0.85606400  0.12767100  0.20385600  1
  O  O30  1  0.79444500  0.50889900  0.65053000  1
  O  O31  1  0.52219100  0.45948900  0.86993500  1
  O  O32  1  0.81041800  0.20502800  0.46324400  1
  O  O33  1  0.13584300  0.18583800  0.98380700  1
  O  O34  1  0.52366600  0.14282700  0.67918900  1
  O  O35  1  0.88855600  0.34878300  0.91216300  1
