# generated using pymatgen
data_Fe3O4
_symmetry_space_group_name_H-M   'P 1'
_cell_length_a   5.92397200
_cell_length_b   6.61708000
_cell_length_c   16.13268400
_cell_angle_alpha   90.00000000
_cell_angle_beta   90.00000000
_cell_angle_gamma   90.00000000
_symmetry_Int_Tables_number   1
_chemical_formula_structural   Fe3O4
_chemical_formula_sum   'Fe24 O32'
_cell_volume   632.39147901
_cell_formula_units_Z   8
loop_
 _symmetry_equiv_pos_site_id
 _symmetry_equiv_pos_as_xyz
  1  'x, y, z'
loop_
 _atom_site_type_symbol
 _atom_site_label
 _atom_site_symmetry_multiplicity
 _atom_site_fract_x
 _atom_site_fract_y
 _atom_site_fract_z
 _atom_site_occupancy
  Fe  Fe0  1  0.76746800  0.25000000  0.40224700  1
  Fe  Fe1  1  0.73646500  0.25000000  0.84499200  1
  Fe  Fe2  1  0.51046500  0.75000000  0.85282300  1
  Fe  Fe3  1  0.26353500  0.75000000  0.15500800  1
  Fe  Fe4  1  0.98084800  0.75000000  0.39863400  1
  Fe  Fe5  1  0.73646500  0.75000000  0.65500800  1
  Fe  Fe6  1  0.06456500  0.50000000  0.75000000  1
  Fe  Fe7  1  0.76746800  0.75000000  0.09775300  1
  Fe  Fe8  1  0.48953500  0.75000000  0.35282300  1
  Fe  Fe9  1  0.51046500  0.25000000  0.64717700  1
  Fe  Fe10  1  0.50000000  0.50000000  0.50000000  1
  Fe  Fe11  1  0.93543500  0.50000000  0.25000000  1
  Fe  Fe12  1  0.50000000  0.00000000  0.50000000  1
  Fe  Fe13  1  0.23253200  0.75000000  0.59775300  1
  Fe  Fe14  1  0.23253200  0.25000000  0.90224700  1
  Fe  Fe15  1  0.93543500  0.00000000  0.25000000  1
  Fe  Fe16  1  0.01915200  0.75000000  0.89863400  1
  Fe  Fe17  1  0.06456500  0.00000000  0.75000000  1
  Fe  Fe18  1  0.50000000  0.00000000  0.00000000  1
  Fe  Fe19  1  0.98084800  0.25000000  0.10136600  1
  Fe  Fe20  1  0.26353500  0.25000000  0.34499200  1
  Fe  Fe21  1  0.01915200  0.25000000  0.60136600  1
  Fe  Fe22  1  0.48953500  0.25000000  0.14717700  1
  Fe  Fe23  1  0.50000000  0.50000000  0.00000000  1
  O  O24  1  0.99143900  0.55177200  0.62494000  1
  O  O25  1  0.70468400  0.25000000  0.03435700  1
  O  O26  1  0.24138000  0.75000000  0.78815600  1
  O  O27  1  0.50617200  0.55464300  0.12745300  1
  O  O28  1  0.99143900  0.44822800  0.87506000  1
  O  O29  1  0.29531600  0.75000000  0.96564300  1
  O  O30  1  0.99143900  0.94822800  0.62494000  1
  O  O31  1  0.77917600  0.25000000  0.72381500  1
  O  O32  1  0.75862000  0.75000000  0.28815600  1
  O  O33  1  0.75862000  0.25000000  0.21184400  1
  O  O34  1  0.74897600  0.25000000  0.52597800  1
  O  O35  1  0.49382800  0.55464300  0.62745300  1
  O  O36  1  0.50617200  0.05464300  0.37254700  1
  O  O37  1  0.00856100  0.55177200  0.12494000  1
  O  O38  1  0.22082400  0.75000000  0.27618500  1
  O  O39  1  0.29531600  0.25000000  0.53435700  1
  O  O40  1  0.25102400  0.25000000  0.02597800  1
  O  O41  1  0.70468400  0.75000000  0.46564300  1
  O  O42  1  0.49382800  0.94535700  0.62745300  1
  O  O43  1  0.00856100  0.94822800  0.12494000  1
  O  O44  1  0.00856100  0.44822800  0.37506000  1
  O  O45  1  0.00856100  0.05177200  0.37506000  1
  O  O46  1  0.74897600  0.75000000  0.97402200  1
  O  O47  1  0.50617200  0.94535700  0.12745300  1
  O  O48  1  0.49382800  0.05464300  0.87254700  1
  O  O49  1  0.25102400  0.75000000  0.47402200  1
  O  O50  1  0.22082400  0.25000000  0.22381500  1
  O  O51  1  0.50617200  0.44535700  0.37254700  1
  O  O52  1  0.99143900  0.05177200  0.87506000  1
  O  O53  1  0.77917600  0.75000000  0.77618500  1
  O  O54  1  0.24138000  0.25000000  0.71184400  1
  O  O55  1  0.49382800  0.44535700  0.87254700  1
