# generated using pymatgen
data_ScAgO3
_symmetry_space_group_name_H-M   'P 1'
_cell_length_a   8.05978800
_cell_length_b   10.17185800
_cell_length_c   3.22046400
_cell_angle_alpha   90.00000000
_cell_angle_beta   90.00000000
_cell_angle_gamma   90.00000000
_symmetry_Int_Tables_number   1
_chemical_formula_structural   ScAgO3
_chemical_formula_sum   'Sc4 Ag4 O12'
_cell_volume   264.02336145
_cell_formula_units_Z   4
loop_
 _symmetry_equiv_pos_site_id
 _symmetry_equiv_pos_as_xyz
  1  'x, y, z'
loop_
 _atom_site_type_symbol
 _atom_site_label
 _atom_site_symmetry_multiplicity
 _atom_site_fract_x
 _atom_site_fract_y
 _atom_site_fract_z
 _atom_site_occupancy
  Sc  Sc0  1  0.25000000  0.25000000  0.50000000  1
  Sc  Sc1  1  0.25000000  0.75000000  0.50000000  1
  Sc  Sc2  1  0.75000000  0.75000000  0.50000000  1
  Sc  Sc3  1  0.75000000  0.25000000  0.50000000  1
  Ag  Ag4  1  0.00000000  0.00000000  0.00000000  1
  Ag  Ag5  1  0.50000000  0.00000000  0.00000000  1
  Ag  Ag6  1  0.50000000  0.50000000  0.00000000  1
  Ag  Ag7  1  0.00000000  0.50000000  0.00000000  1
  O  O8  1  0.17430150  0.13856050  0.00000000  1
  O  O9  1  0.17430150  0.86143950  0.00000000  1
  O  O10  1  0.50000000  0.13624600  0.50000000  1
  O  O11  1  0.50000000  0.86375400  0.50000000  1
  O  O12  1  0.82569850  0.86143950  0.00000000  1
  O  O13  1  0.82569850  0.13856050  0.00000000  1
  O  O14  1  0.67430150  0.63856050  0.00000000  1
  O  O15  1  0.67430150  0.36143950  0.00000000  1
  O  O16  1  0.00000000  0.63624600  0.50000000  1
  O  O17  1  0.00000000  0.36375400  0.50000000  1
  O  O18  1  0.32569850  0.36143950  0.00000000  1
  O  O19  1  0.32569850  0.63856050  0.00000000  1
