# generated using pymatgen
data_Ba2SrI6
_symmetry_space_group_name_H-M   'P 1'
_cell_length_a   8.29727900
_cell_length_b   8.29727900
_cell_length_c   24.89701100
_cell_angle_alpha   90.00000000
_cell_angle_beta   90.00000000
_cell_angle_gamma   90.00000000
_symmetry_Int_Tables_number   1
_chemical_formula_structural   Ba2SrI6
_chemical_formula_sum   'Ba8 Sr4 I24'
_cell_volume   1714.03070899
_cell_formula_units_Z   4
loop_
 _symmetry_equiv_pos_site_id
 _symmetry_equiv_pos_as_xyz
  1  'x, y, z'
loop_
 _atom_site_type_symbol
 _atom_site_label
 _atom_site_symmetry_multiplicity
 _atom_site_fract_x
 _atom_site_fract_y
 _atom_site_fract_z
 _atom_site_occupancy
  Ba  Ba0  1  0.00000000  0.50000000  0.16516200  1
  Ba  Ba1  1  0.00000000  0.00000000  0.33441000  1
  Ba  Ba2  1  0.00000000  0.00000000  0.66559000  1
  Ba  Ba3  1  0.00000000  0.50000000  0.83483800  1
  Ba  Ba4  1  0.50000000  0.50000000  0.33441000  1
  Ba  Ba5  1  0.50000000  0.00000000  0.16516200  1
  Ba  Ba6  1  0.50000000  0.00000000  0.83483800  1
  Ba  Ba7  1  0.50000000  0.50000000  0.66559000  1
  Sr  Sr8  1  0.00000000  0.00000000  0.00000000  1
  Sr  Sr9  1  0.00000000  0.50000000  0.50000000  1
  Sr  Sr10  1  0.50000000  0.00000000  0.50000000  1
  Sr  Sr11  1  0.50000000  0.50000000  0.00000000  1
  I  I12  1  0.23557700  0.73824300  0.58081400  1
  I  I13  1  0.22551900  0.76987400  0.08087700  1
  I  I14  1  0.23012600  0.22551900  0.91912300  1
  I  I15  1  0.23824300  0.73557700  0.41918600  1
  I  I16  1  0.24680600  0.24821700  0.24982000  1
  I  I17  1  0.25178300  0.25319400  0.75018000  1
  I  I18  1  0.24821700  0.75319400  0.75018000  1
  I  I19  1  0.25319400  0.74821700  0.24982000  1
  I  I20  1  0.26987400  0.72551900  0.91912300  1
  I  I21  1  0.26175700  0.23557700  0.41918600  1
  I  I22  1  0.27448100  0.26987400  0.08087700  1
  I  I23  1  0.26442300  0.23824300  0.58081400  1
  I  I24  1  0.73557700  0.76175700  0.58081400  1
  I  I25  1  0.72551900  0.73012600  0.08087700  1
  I  I26  1  0.73824300  0.76442300  0.41918600  1
  I  I27  1  0.73012600  0.27448100  0.91912300  1
  I  I28  1  0.74680600  0.25178300  0.24982000  1
  I  I29  1  0.75178300  0.24680600  0.75018000  1
  I  I30  1  0.74821700  0.74680600  0.75018000  1
  I  I31  1  0.75319400  0.75178300  0.24982000  1
  I  I32  1  0.76175700  0.26442300  0.41918600  1
  I  I33  1  0.76987400  0.77448100  0.91912300  1
  I  I34  1  0.77448100  0.23012600  0.08087700  1
  I  I35  1  0.76442300  0.26175700  0.58081400  1
