# generated using pymatgen
data_Li8TiMn3(PO4)6
_symmetry_space_group_name_H-M   'P 1'
_cell_length_a   9.03544355
_cell_length_b   9.03544355
_cell_length_c   21.70934406
_cell_angle_alpha   90.00000000
_cell_angle_beta   90.00000000
_cell_angle_gamma   120.00000000
_symmetry_Int_Tables_number   1
_chemical_formula_structural   Li8TiMn3(PO4)6
_chemical_formula_sum   'Li24 Ti3 Mn9 P18 O72'
_cell_volume   1534.88657485
_cell_formula_units_Z   3
loop_
 _symmetry_equiv_pos_site_id
 _symmetry_equiv_pos_as_xyz
  1  'x, y, z'
loop_
 _atom_site_type_symbol
 _atom_site_label
 _atom_site_symmetry_multiplicity
 _atom_site_fract_x
 _atom_site_fract_y
 _atom_site_fract_z
 _atom_site_occupancy
  Li  Li0  1  0.33333333  0.66666667  0.70125267  1
  Li  Li1  1  0.65716267  0.90828733  0.10631733  1
  Li  Li2  1  0.09171267  0.74887533  0.10631733  1
  Li  Li3  1  0.25112467  0.34283733  0.10631733  1
  Li  Li4  1  0.33333333  0.66666667  0.19299167  1
  Li  Li5  1  0.40642400  0.99790400  0.27421900  1
  Li  Li6  1  0.59148000  0.59357600  0.27421900  1
  Li  Li7  1  0.00209600  0.40852000  0.27421900  1
  Li  Li8  1  0.00000000  0.00000000  0.03458600  1
  Li  Li9  1  0.32382933  0.24162067  0.43965067  1
  Li  Li10  1  0.75837933  0.08220867  0.43965067  1
  Li  Li11  1  0.91779133  0.67617067  0.43965067  1
  Li  Li12  1  0.00000000  0.00000000  0.52632500  1
  Li  Li13  1  0.07309067  0.33123733  0.60755233  1
  Li  Li14  1  0.25814667  0.92690933  0.60755233  1
  Li  Li15  1  0.66876267  0.74185333  0.60755233  1
  Li  Li16  1  0.66666667  0.33333333  0.36791933  1
  Li  Li17  1  0.99049600  0.57495400  0.77298400  1
  Li  Li18  1  0.42504600  0.41554200  0.77298400  1
  Li  Li19  1  0.58445800  0.00950400  0.77298400  1
  Li  Li20  1  0.66666667  0.33333333  0.85965833  1
  Li  Li21  1  0.73975733  0.66457067  0.94088567  1
  Li  Li22  1  0.92481333  0.26024267  0.94088567  1
  Li  Li23  1  0.33542933  0.07518667  0.94088567  1
  Ti  Ti24  1  0.33333333  0.66666667  0.51761367  1
  Ti  Ti25  1  0.00000000  0.00000000  0.85094700  1
  Ti  Ti26  1  0.66666667  0.33333333  0.18428033  1
  Mn  Mn27  1  0.33333333  0.66666667  0.82808667  1
  Mn  Mn28  1  0.33333333  0.66666667  0.32390167  1
  Mn  Mn29  1  0.33333333  0.66666667  0.01847967  1
  Mn  Mn30  1  0.00000000  0.00000000  0.16142000  1
  Mn  Mn31  1  0.00000000  0.00000000  0.65723500  1
  Mn  Mn32  1  0.00000000  0.00000000  0.35181300  1
  Mn  Mn33  1  0.66666667  0.33333333  0.49475333  1
  Mn  Mn34  1  0.66666667  0.33333333  0.99056833  1
  Mn  Mn35  1  0.66666667  0.33333333  0.68514633  1
  P  P36  1  0.36758167  0.03704133  0.08339833  1
  P  P37  1  0.66945967  0.63241833  0.08339833  1
  P  P38  1  0.96295867  0.33054033  0.08339833  1
  P  P39  1  0.69335867  0.00220133  0.24734633  1
  P  P40  1  0.99779867  0.69115733  0.24734633  1
  P  P41  1  0.30884267  0.30664133  0.24734633  1
  P  P42  1  0.03424833  0.37037467  0.41673167  1
  P  P43  1  0.33612633  0.96575167  0.41673167  1
  P  P44  1  0.62962533  0.66387367  0.41673167  1
  P  P45  1  0.36002533  0.33553467  0.58067967  1
  P  P46  1  0.66446533  0.02449067  0.58067967  1
  P  P47  1  0.97550933  0.63997467  0.58067967  1
  P  P48  1  0.70091500  0.70370800  0.75006500  1
  P  P49  1  0.00279300  0.29908500  0.75006500  1
  P  P50  1  0.29629200  0.99720700  0.75006500  1
  P  P51  1  0.02669200  0.66886800  0.91401300  1
  P  P52  1  0.33113200  0.35782400  0.91401300  1
  P  P53  1  0.64217600  0.97330800  0.91401300  1
  O  O54  1  0.18293367  0.00777533  0.08565333  1
  O  O55  1  0.14756800  0.49326600  0.46943200  1
  O  O56  1  0.35749400  0.86179700  0.09268600  1
  O  O57  1  0.34112333  0.88911067  0.35418967  1
  O  O58  1  0.82484167  0.81706633  0.08565333  1
  O  O59  1  0.50430300  0.64250600  0.09268600  1
  O  O60  1  0.54798733  0.65887667  0.35418967  1
  O  O61  1  0.13820300  0.49569700  0.09268600  1
  O  O62  1  0.77040800  0.98329900  0.18634400  1
  O  O63  1  0.66039467  0.15879233  0.24409533  1
  O  O64  1  0.11088933  0.45201267  0.35418967  1
  O  O65  1  0.01670100  0.78710900  0.18634400  1
  O  O66  1  0.34569800  0.85243200  0.46943200  1
  O  O67  1  0.55519233  0.85599067  0.96910967  1
  O  O68  1  0.99222467  0.17515833  0.08565333  1
  O  O69  1  0.50673400  0.65430200  0.46943200  1
  O  O70  1  0.51050867  0.84487233  0.25177033  1
  O  O71  1  0.14400933  0.69920167  0.96910967  1
  O  O72  1  0.15512767  0.66563633  0.25177033  1
  O  O73  1  0.84120767  0.50160233  0.24409533  1
  O  O74  1  0.30079833  0.44480767  0.96910967  1
  O  O75  1  0.21289100  0.22959200  0.18634400  1
  O  O76  1  0.33436367  0.48949133  0.25177033  1
  O  O77  1  0.49839767  0.33960533  0.24409533  1
  O  O78  1  0.84960033  0.34110867  0.41898667  1
  O  O79  1  0.81423467  0.82659933  0.80276533  1
  O  O80  1  0.02416067  0.19513033  0.42601933  1
  O  O81  1  0.00779000  0.22244400  0.68752300  1
  O  O82  1  0.49150833  0.15039967  0.41898667  1
  O  O83  1  0.17096967  0.97583933  0.42601933  1
  O  O84  1  0.21465400  0.99221000  0.68752300  1
  O  O85  1  0.80486967  0.82903033  0.42601933  1
  O  O86  1  0.43707467  0.31663233  0.51967733  1
  O  O87  1  0.32706133  0.49212567  0.57742867  1
  O  O88  1  0.77755600  0.78534600  0.68752300  1
  O  O89  1  0.68336767  0.12044233  0.51967733  1
  O  O90  1  0.01236467  0.18576533  0.80276533  1
  O  O91  1  0.22185900  0.18932400  0.30244300  1
  O  O92  1  0.65889133  0.50849167  0.41898667  1
  O  O93  1  0.17340067  0.98763533  0.80276533  1
  O  O94  1  0.17717533  0.17820567  0.58510367  1
  O  O95  1  0.81067600  0.03253500  0.30244300  1
  O  O96  1  0.82179433  0.99896967  0.58510367  1
  O  O97  1  0.50787433  0.83493567  0.57742867  1
  O  O98  1  0.96746500  0.77814100  0.30244300  1
  O  O99  1  0.87955767  0.56292533  0.51967733  1
  O  O100  1  0.00103033  0.82282467  0.58510367  1
  O  O101  1  0.16506433  0.67293867  0.57742867  1
  O  O102  1  0.51626700  0.67444200  0.75232000  1
  O  O103  1  0.48090133  0.15993267  0.13609867  1
  O  O104  1  0.69082733  0.52846367  0.75935267  1
  O  O105  1  0.67445667  0.55577733  0.02085633  1
  O  O106  1  0.15817500  0.48373300  0.75232000  1
  O  O107  1  0.83763633  0.30917267  0.75935267  1
  O  O108  1  0.88132067  0.32554333  0.02085633  1
  O  O109  1  0.47153633  0.16236367  0.75935267  1
  O  O110  1  0.10374133  0.64996567  0.85301067  1
  O  O111  1  0.99372800  0.82545900  0.91076200  1
  O  O112  1  0.44422267  0.11867933  0.02085633  1
  O  O113  1  0.35003433  0.45377567  0.85301067  1
  O  O114  1  0.67903133  0.51909867  0.13609867  1
  O  O115  1  0.88852567  0.52265733  0.63577633  1
  O  O116  1  0.32555800  0.84182500  0.75232000  1
  O  O117  1  0.84006733  0.32096867  0.13609867  1
  O  O118  1  0.84384200  0.51153900  0.91843700  1
  O  O119  1  0.47734267  0.36586833  0.63577633  1
  O  O120  1  0.48846100  0.33230300  0.91843700  1
  O  O121  1  0.17454100  0.16826900  0.91076200  1
  O  O122  1  0.63413167  0.11147433  0.63577633  1
  O  O123  1  0.54622433  0.89625867  0.85301067  1
  O  O124  1  0.66769700  0.15615800  0.91843700  1
  O  O125  1  0.83173100  0.00627200  0.91076200  1
