# generated using pymatgen
data_Mn6OF11
_symmetry_space_group_name_H-M   'P 1'
_cell_length_a   4.96352200
_cell_length_b   16.22273400
_cell_length_c   7.63163780
_cell_angle_alpha   90.00000000
_cell_angle_beta   129.61044592
_cell_angle_gamma   90.00000000
_symmetry_Int_Tables_number   1
_chemical_formula_structural   Mn6OF11
_chemical_formula_sum   'Mn12 O2 F22'
_cell_volume   473.41971717
_cell_formula_units_Z   2
loop_
 _symmetry_equiv_pos_site_id
 _symmetry_equiv_pos_as_xyz
  1  'x, y, z'
loop_
 _atom_site_type_symbol
 _atom_site_label
 _atom_site_symmetry_multiplicity
 _atom_site_fract_x
 _atom_site_fract_y
 _atom_site_fract_z
 _atom_site_occupancy
  Mn  Mn0  1  0.82656000  0.49976800  0.83008400  1
  Mn  Mn1  1  0.16226500  0.67108100  0.16956100  1
  Mn  Mn2  1  0.83860200  0.83924200  0.81992300  1
  Mn  Mn3  1  0.83995600  0.16218500  0.85354700  1
  Mn  Mn4  1  0.17399900  0.33176400  0.17192800  1
  Mn  Mn5  1  0.15624000  0.00554000  0.16826500  1
  Mn  Mn6  1  0.16226500  0.32891900  0.66956100  1
  Mn  Mn7  1  0.15624000  0.99446000  0.66826500  1
  Mn  Mn8  1  0.17399900  0.66823600  0.67192800  1
  Mn  Mn9  1  0.83995600  0.83781500  0.35354700  1
  Mn  Mn10  1  0.82656000  0.50023200  0.33008400  1
  Mn  Mn11  1  0.83860200  0.16075800  0.31992300  1
  O  O12  1  0.88330800  0.11542100  0.09365500  1
  O  O13  1  0.88330800  0.88457900  0.59365500  1
  F  F14  1  0.66648100  0.61089400  0.89858400  1
  F  F15  1  0.66820600  0.27405200  0.88761900  1
  F  F16  1  0.66716100  0.94320900  0.88607400  1
  F  F17  1  0.86988900  0.78375700  0.12012100  1
  F  F18  1  0.87520600  0.44088300  0.10584700  1
  F  F19  1  0.34265800  0.77621500  0.60368900  1
  F  F20  1  0.12829900  0.60952800  0.39625800  1
  F  F21  1  0.33138800  0.44127800  0.60581200  1
  F  F22  1  0.11353500  0.27426800  0.39368500  1
  F  F23  1  0.34385000  0.10707100  0.61159500  1
  F  F24  1  0.11239800  0.94018900  0.38375400  1
  F  F25  1  0.66820600  0.72594800  0.38761900  1
  F  F26  1  0.87520600  0.55911700  0.60584700  1
  F  F27  1  0.66648100  0.38910600  0.39858400  1
  F  F28  1  0.66716100  0.05679100  0.38607400  1
  F  F29  1  0.86988900  0.21624300  0.62012100  1
  F  F30  1  0.11353500  0.72573200  0.89368500  1
  F  F31  1  0.12829900  0.39047200  0.89625800  1
  F  F32  1  0.33138800  0.55872200  0.10581200  1
  F  F33  1  0.34385000  0.89292900  0.11159500  1
  F  F34  1  0.11239800  0.05981100  0.88375400  1
  F  F35  1  0.34265800  0.22378500  0.10368900  1
