# generated using pymatgen
data_Zr2N2O
_symmetry_space_group_name_H-M   'P 1'
_cell_length_a   8.85897300
_cell_length_b   8.88092416
_cell_length_c   8.88243897
_cell_angle_alpha   109.38652347
_cell_angle_beta   109.55214453
_cell_angle_gamma   109.38528926
_symmetry_Int_Tables_number   1
_chemical_formula_structural   Zr2N2O
_chemical_formula_sum   'Zr16 N16 O8'
_cell_volume   538.55595567
_cell_formula_units_Z   8
loop_
 _symmetry_equiv_pos_site_id
 _symmetry_equiv_pos_as_xyz
  1  'x, y, z'
loop_
 _atom_site_type_symbol
 _atom_site_label
 _atom_site_symmetry_multiplicity
 _atom_site_fract_x
 _atom_site_fract_y
 _atom_site_fract_z
 _atom_site_occupancy
  Zr  Zr0  1  0.96551800  0.70678000  0.74760100  1
  Zr  Zr1  1  0.99691800  0.49670500  0.99894800  1
  Zr  Zr2  1  0.71814500  0.24801000  0.46724600  1
  Zr  Zr3  1  0.77858800  0.74861800  0.02882000  1
  Zr  Zr4  1  0.73725400  0.95511400  0.70339200  1
  Zr  Zr5  1  0.75936500  0.46421600  0.21235500  1
  Zr  Zr6  1  0.49823400  0.50707800  0.51179300  1
  Zr  Zr7  1  0.53601500  0.78630800  0.25231500  1
  Zr  Zr8  1  0.46482500  0.21424700  0.74233700  1
  Zr  Zr9  1  0.50376100  0.99204600  0.99097900  1
  Zr  Zr10  1  0.25023100  0.03638600  0.29518800  1
  Zr  Zr11  1  0.24964000  0.53793100  0.78873800  1
  Zr  Zr12  1  0.21841800  0.25834200  0.96164800  1
  Zr  Zr13  1  0.28553400  0.75006000  0.53691800  1
  Zr  Zr14  1  0.00746500  0.01191800  0.49935500  1
  Zr  Zr15  1  0.03428300  0.29004100  0.25845400  1
  N  N16  1  0.96094300  0.45765800  0.72808100  1
  N  N17  1  0.76971100  0.04256700  0.50676500  1
  N  N18  1  0.73164200  0.73648500  0.77237400  1
  N  N19  1  0.76989500  0.23020600  0.23979300  1
  N  N20  1  0.72714800  0.46897000  0.95827600  1
  N  N21  1  0.48920000  0.72382000  0.45446900  1
  N  N22  1  0.22741300  0.77900400  0.76550600  1
  N  N23  1  0.27096600  0.53088800  0.04719600  1
  N  N24  1  0.50913900  0.26938000  0.53798900  1
  N  N25  1  0.22432200  0.95204800  0.48477200  1
  N  N26  1  0.53658100  0.76490900  0.99462800  1
  N  N27  1  0.55237600  0.01632300  0.77862700  1
  N  N28  1  0.26023200  0.48379900  0.53381600  1
  N  N29  1  0.23709300  0.26876200  0.72811000  1
  N  N30  1  0.03272300  0.54362600  0.26938700  1
  N  N31  1  0.98944700  0.03118800  0.25851600  1
  O  O32  1  0.76131400  0.72567000  0.27844800  1
  O  O33  1  0.74170000  0.51900700  0.46489200  1
  O  O34  1  0.27279400  0.26256500  0.22393100  1
  O  O35  1  0.95956600  0.22776300  0.96517200  1
  O  O36  1  0.46210300  0.23804900  0.01439000  1
  O  O37  1  0.44682400  0.98228800  0.22224700  1
  O  O38  1  0.05261500  0.77197900  0.03566500  1
  O  O39  1  0.01006100  0.96924200  0.74086200  1
