# generated using pymatgen
data_Ba3(ClO)2
_symmetry_space_group_name_H-M   'P 1'
_cell_length_a   6.27849600
_cell_length_b   7.39168300
_cell_length_c   19.21390500
_cell_angle_alpha   90.00000000
_cell_angle_beta   90.00000000
_cell_angle_gamma   90.00000000
_symmetry_Int_Tables_number   1
_chemical_formula_structural   Ba3(ClO)2
_chemical_formula_sum   'Ba12 Cl8 O8'
_cell_volume   891.69143356
_cell_formula_units_Z   4
loop_
 _symmetry_equiv_pos_site_id
 _symmetry_equiv_pos_as_xyz
  1  'x, y, z'
loop_
 _atom_site_type_symbol
 _atom_site_label
 _atom_site_symmetry_multiplicity
 _atom_site_fract_x
 _atom_site_fract_y
 _atom_site_fract_z
 _atom_site_occupancy
  Ba  Ba0  1  0.25000000  0.15714700  0.02337300  1
  Ba  Ba1  1  0.25000000  0.68063400  0.10653200  1
  Ba  Ba2  1  0.75000000  0.04470200  0.16394200  1
  Ba  Ba3  1  0.25000000  0.54470200  0.33605800  1
  Ba  Ba4  1  0.75000000  0.18063400  0.39346800  1
  Ba  Ba5  1  0.75000000  0.65714700  0.47662700  1
  Ba  Ba6  1  0.25000000  0.34285300  0.52337300  1
  Ba  Ba7  1  0.25000000  0.81936600  0.60653200  1
  Ba  Ba8  1  0.75000000  0.45529800  0.66394200  1
  Ba  Ba9  1  0.25000000  0.95529800  0.83605800  1
  Ba  Ba10  1  0.75000000  0.31936600  0.89346800  1
  Ba  Ba11  1  0.75000000  0.84285300  0.97662700  1
  Cl  Cl12  1  0.75000000  0.40792100  0.05840300  1
  Cl  Cl13  1  0.25000000  0.21063300  0.23185100  1
  Cl  Cl14  1  0.75000000  0.71063300  0.26814900  1
  Cl  Cl15  1  0.25000000  0.90792100  0.44159700  1
  Cl  Cl16  1  0.75000000  0.09207900  0.55840300  1
  Cl  Cl17  1  0.25000000  0.28936700  0.73185100  1
  Cl  Cl18  1  0.75000000  0.78936700  0.76814900  1
  Cl  Cl19  1  0.25000000  0.59207900  0.94159700  1
  O  O20  1  0.49972300  0.91579400  0.08065200  1
  O  O21  1  0.00027700  0.91579400  0.08065200  1
  O  O22  1  0.99972300  0.41579400  0.41934800  1
  O  O23  1  0.50027700  0.41579400  0.41934800  1
  O  O24  1  0.49972300  0.58420600  0.58065200  1
  O  O25  1  0.00027700  0.58420600  0.58065200  1
  O  O26  1  0.99972300  0.08420600  0.91934800  1
  O  O27  1  0.50027700  0.08420600  0.91934800  1
