# generated using pymatgen
data_Bi2O3
_symmetry_space_group_name_H-M   'P 1'
_cell_length_a   14.73349397
_cell_length_b   14.73349397
_cell_length_c   18.02120758
_cell_angle_alpha   90.00000000
_cell_angle_beta   90.00000000
_cell_angle_gamma   120.00000000
_symmetry_Int_Tables_number   1
_chemical_formula_structural   Bi2O3
_chemical_formula_sum   'Bi78 O117'
_cell_volume   3387.86440560
_cell_formula_units_Z   39
loop_
 _symmetry_equiv_pos_site_id
 _symmetry_equiv_pos_as_xyz
  1  'x, y, z'
loop_
 _atom_site_type_symbol
 _atom_site_label
 _atom_site_symmetry_multiplicity
 _atom_site_fract_x
 _atom_site_fract_y
 _atom_site_fract_z
 _atom_site_occupancy
  Bi  Bi0  1  0.68363300  0.51754000  0.49844500  1
  Bi  Bi1  1  0.99220733  0.84583267  0.83088467  1
  Bi  Bi2  1  0.93862133  0.56634367  0.38601867  1
  Bi  Bi3  1  0.85362533  0.00779267  0.83088467  1
  Bi  Bi4  1  0.82750767  0.84398433  0.66259633  1
  Bi  Bi5  1  0.96264200  0.73366300  0.55072100  1
  Bi  Bi6  1  0.72298800  0.60595900  0.29310000  1
  Bi  Bi7  1  0.15416733  0.14637467  0.83088467  1
  Bi  Bi8  1  0.15601567  0.98352333  0.66259633  1
  Bi  Bi9  1  0.72411533  0.78092167  0.45466767  1
  Bi  Bi10  1  0.77102100  0.03735800  0.55072100  1
  Bi  Bi11  1  0.21907833  0.94319367  0.45466767  1
  Bi  Bi12  1  0.00000000  0.00000000  0.50004200  1
  Bi  Bi13  1  0.99003633  0.84182967  0.33034067  1
  Bi  Bi14  1  0.01647667  0.17249233  0.66259633  1
  Bi  Bi15  1  0.26633700  0.22897900  0.55072100  1
  Bi  Bi16  1  0.85179333  0.00996367  0.33034067  1
  Bi  Bi17  1  0.48246000  0.16609300  0.49844500  1
  Bi  Bi18  1  0.62772233  0.06137867  0.38601867  1
  Bi  Bi19  1  0.05680633  0.27588467  0.45466767  1
  Bi  Bi20  1  0.15817033  0.14820667  0.33034067  1
  Bi  Bi21  1  0.83390700  0.31636700  0.49844500  1
  Bi  Bi22  1  0.39404100  0.11702900  0.29310000  1
  Bi  Bi23  1  0.88297100  0.27701200  0.29310000  1
  Bi  Bi24  1  0.43365633  0.37227767  0.38601867  1
  Bi  Bi25  1  0.00000000  0.00000000  0.01360500  1
  Bi  Bi26  1  0.35029967  0.85087333  0.83177833  1
  Bi  Bi27  1  0.65887400  0.17916600  0.16421800  1
  Bi  Bi28  1  0.60528800  0.89967700  0.71935200  1
  Bi  Bi29  1  0.52029200  0.34112600  0.16421800  1
  Bi  Bi30  1  0.49417433  0.17731767  0.99592967  1
  Bi  Bi31  1  0.62930867  0.06699633  0.88405433  1
  Bi  Bi32  1  0.38965467  0.93929233  0.62643333  1
  Bi  Bi33  1  0.82083400  0.47970800  0.16421800  1
  Bi  Bi34  1  0.82268233  0.31685667  0.99592967  1
  Bi  Bi35  1  0.39078200  0.11425500  0.78800100  1
  Bi  Bi36  1  0.43768767  0.37069133  0.88405433  1
  Bi  Bi37  1  0.88574500  0.27652700  0.78800100  1
  Bi  Bi38  1  0.66666667  0.33333333  0.83337533  1
  Bi  Bi39  1  0.65670300  0.17516300  0.66367400  1
  Bi  Bi40  1  0.68314333  0.50582567  0.99592967  1
  Bi  Bi41  1  0.93300367  0.56231233  0.88405433  1
  Bi  Bi42  1  0.51846000  0.34329700  0.66367400  1
  Bi  Bi43  1  0.14912667  0.49942633  0.83177833  1
  Bi  Bi44  1  0.29438900  0.39471200  0.71935200  1
  Bi  Bi45  1  0.72347300  0.60921800  0.78800100  1
  Bi  Bi46  1  0.82483700  0.48154000  0.66367400  1
  Bi  Bi47  1  0.50057367  0.64970033  0.83177833  1
  Bi  Bi48  1  0.06070767  0.45036233  0.62643333  1
  Bi  Bi49  1  0.54963767  0.61034533  0.62643333  1
  Bi  Bi50  1  0.10032300  0.70561100  0.71935200  1
  Bi  Bi51  1  0.66666667  0.33333333  0.34693833  1
  Bi  Bi52  1  0.01696633  0.18420667  0.16511167  1
  Bi  Bi53  1  0.32554067  0.51249933  0.49755133  1
  Bi  Bi54  1  0.27195467  0.23301033  0.05268533  1
  Bi  Bi55  1  0.18695867  0.67445933  0.49755133  1
  Bi  Bi56  1  0.16084100  0.51065100  0.32926300  1
  Bi  Bi57  1  0.29597533  0.40032967  0.21738767  1
  Bi  Bi58  1  0.05632133  0.27262567  0.95976667  1
  Bi  Bi59  1  0.48750067  0.81304133  0.49755133  1
  Bi  Bi60  1  0.48934900  0.65019000  0.32926300  1
  Bi  Bi61  1  0.05744867  0.44758833  0.12133433  1
  Bi  Bi62  1  0.10435433  0.70402467  0.21738767  1
  Bi  Bi63  1  0.55241167  0.60986033  0.12133433  1
  Bi  Bi64  1  0.33333333  0.66666667  0.16670867  1
  Bi  Bi65  1  0.32336967  0.50849633  0.99700733  1
  Bi  Bi66  1  0.34981000  0.83915900  0.32926300  1
  Bi  Bi67  1  0.59967033  0.89564567  0.21738767  1
  Bi  Bi68  1  0.18512667  0.67663033  0.99700733  1
  Bi  Bi69  1  0.81579333  0.83275967  0.16511167  1
  Bi  Bi70  1  0.96105567  0.72804533  0.05268533  1
  Bi  Bi71  1  0.39013967  0.94255133  0.12133433  1
  Bi  Bi72  1  0.49150367  0.81487333  0.99700733  1
  Bi  Bi73  1  0.16724033  0.98303367  0.16511167  1
  Bi  Bi74  1  0.72737433  0.78369567  0.95976667  1
  Bi  Bi75  1  0.21630433  0.94367867  0.95976667  1
  Bi  Bi76  1  0.76698967  0.03894433  0.05268533  1
  Bi  Bi77  1  0.33333333  0.66666667  0.68027167  1
  O  O78  1  0.15662467  0.20195333  0.20959633  1
  O  O79  1  0.17018867  0.45365433  0.46057833  1
  O  O80  1  0.48012533  0.73866467  0.62482567  1
  O  O81  1  0.26133533  0.74146067  0.62482567  1
  O  O82  1  0.70912467  0.66706033  0.53370933  1
  O  O83  1  0.04566433  0.84075467  0.71145567  1
  O  O84  1  0.79019367  0.57969633  0.39611933  1
  O  O85  1  0.00000000  0.00000000  0.80982200  1
  O  O86  1  0.79509033  0.95433567  0.71145567  1
  O  O87  1  0.03313367  0.70346133  0.45953933  1
  O  O88  1  0.29163067  0.95740033  0.70289833  1
  O  O89  1  0.54634567  0.71653433  0.46057833  1
  O  O90  1  0.75299333  0.87562767  0.56089967  1
  O  O91  1  0.12437233  0.87736567  0.56089967  1
  O  O92  1  0.62910200  0.99584200  0.62652800  1
  O  O93  1  0.28346567  0.82981133  0.46057833  1
  O  O94  1  0.91585500  0.83264500  0.45684700  1
  O  O95  1  0.00000000  0.00000000  0.62672000  1
  O  O96  1  0.67032767  0.96686633  0.45953933  1
  O  O97  1  0.33293967  0.04206433  0.53370933  1
  O  O98  1  0.15924533  0.20490967  0.71145567  1
  O  O99  1  0.83512300  0.78448300  0.29190300  1
  O  O100  1  0.16735500  0.08321000  0.45684700  1
  O  O101  1  0.91679000  0.08414500  0.45684700  1
  O  O102  1  0.04532867  0.84337533  0.20959633  1
  O  O103  1  0.04259967  0.33423033  0.70289833  1
  O  O104  1  0.00000000  0.00000000  0.31337200  1
  O  O105  1  0.12263433  0.24700667  0.56089967  1
  O  O106  1  0.36674000  0.37089800  0.62652800  1
  O  O107  1  0.79804667  0.95467133  0.20959633  1
  O  O108  1  0.95793567  0.29087533  0.53370933  1
  O  O109  1  0.21551700  0.05064000  0.29190300  1
  O  O110  1  0.78950267  0.20980633  0.39611933  1
  O  O111  1  0.42030367  0.21049733  0.39611933  1
  O  O112  1  0.29653867  0.32967233  0.45953933  1
  O  O113  1  0.94936000  0.16487700  0.29190300  1
  O  O114  1  0.25853933  0.51987467  0.62482567  1
  O  O115  1  0.00415800  0.63326000  0.62652800  1
  O  O116  1  0.66576967  0.70836933  0.70289833  1
  O  O117  1  0.82329133  0.53528667  0.54292967  1
  O  O118  1  0.83685533  0.78698767  0.79391167  1
  O  O119  1  0.14679200  0.07199800  0.95815900  1
  O  O120  1  0.92800200  0.07479400  0.95815900  1
  O  O121  1  0.37579133  0.00039367  0.86704267  1
  O  O122  1  0.71233100  0.17408800  0.04478900  1
  O  O123  1  0.45686033  0.91302967  0.72945267  1
  O  O124  1  0.66666667  0.33333333  0.14315533  1
  O  O125  1  0.46175700  0.28766900  0.04478900  1
  O  O126  1  0.69980033  0.03679467  0.79287267  1
  O  O127  1  0.95829733  0.29073367  0.03623167  1
  O  O128  1  0.21301233  0.04986767  0.79391167  1
  O  O129  1  0.41966000  0.20896100  0.89423300  1
  O  O130  1  0.79103900  0.21069900  0.89423300  1
  O  O131  1  0.29576867  0.32917533  0.95986133  1
  O  O132  1  0.95013233  0.16314467  0.79391167  1
  O  O133  1  0.58252167  0.16597833  0.79018033  1
  O  O134  1  0.66666667  0.33333333  0.96005333  1
  O  O135  1  0.33699433  0.30019967  0.79287267  1
  O  O136  1  0.99960633  0.37539767  0.86704267  1
  O  O137  1  0.82591200  0.53824300  0.04478900  1
  O  O138  1  0.50178967  0.11781633  0.62523633  1
  O  O139  1  0.83402167  0.41654333  0.79018033  1
  O  O140  1  0.58345667  0.41747833  0.79018033  1
  O  O141  1  0.71199533  0.17670867  0.54292967  1
  O  O142  1  0.70926633  0.66756367  0.03623167  1
  O  O143  1  0.66666667  0.33333333  0.64670533  1
  O  O144  1  0.78930100  0.58034000  0.89423300  1
  O  O145  1  0.03340667  0.70423133  0.95986133  1
  O  O146  1  0.46471333  0.28800467  0.54292967  1
  O  O147  1  0.62460233  0.62420867  0.86704267  1
  O  O148  1  0.88218367  0.38397333  0.62523633  1
  O  O149  1  0.45616933  0.54313967  0.72945267  1
  O  O150  1  0.08697033  0.54383067  0.72945267  1
  O  O151  1  0.96320533  0.66300567  0.79287267  1
  O  O152  1  0.61602667  0.49821033  0.62523633  1
  O  O153  1  0.92520600  0.85320800  0.95815900  1
  O  O154  1  0.67082467  0.96659333  0.95986133  1
  O  O155  1  0.33243633  0.04170267  0.03623167  1
  O  O156  1  0.48995800  0.86862000  0.87626300  1
  O  O157  1  0.50352200  0.12032100  0.12724500  1
  O  O158  1  0.81345867  0.40533133  0.29149233  1
  O  O159  1  0.59466867  0.40812733  0.29149233  1
  O  O160  1  0.04245800  0.33372700  0.20037600  1
  O  O161  1  0.37899767  0.50742133  0.37812233  1
  O  O162  1  0.12352700  0.24636300  0.06278600  1
  O  O163  1  0.33333333  0.66666667  0.47648867  1
  O  O164  1  0.12842367  0.62100233  0.37812233  1
  O  O165  1  0.36646700  0.37012800  0.12620600  1
  O  O166  1  0.62496400  0.62406700  0.36956500  1
  O  O167  1  0.87967900  0.38320100  0.12724500  1
  O  O168  1  0.08632667  0.54229433  0.22756633  1
  O  O169  1  0.45770567  0.54403233  0.22756633  1
  O  O170  1  0.96243533  0.66250867  0.29319467  1
  O  O171  1  0.61679900  0.49647800  0.12724500  1
  O  O172  1  0.24918833  0.49931167  0.12351367  1
  O  O173  1  0.33333333  0.66666667  0.29338667  1
  O  O174  1  0.00366100  0.63353300  0.12620600  1
  O  O175  1  0.66627300  0.70873100  0.20037600  1
  O  O176  1  0.49257867  0.87157633  0.37812233  1
  O  O177  1  0.16845633  0.45114967  0.95856967  1
  O  O178  1  0.50068833  0.74987667  0.12351367  1
  O  O179  1  0.25012333  0.75081167  0.12351367  1
  O  O180  1  0.37866200  0.51004200  0.87626300  1
  O  O181  1  0.37593300  0.00089700  0.36956500  1
  O  O182  1  0.33333333  0.66666667  0.98003867  1
  O  O183  1  0.45596767  0.91367333  0.22756633  1
  O  O184  1  0.70007333  0.03756467  0.29319467  1
  O  O185  1  0.13138000  0.62133800  0.87626300  1
  O  O186  1  0.29126900  0.95754200  0.20037600  1
  O  O187  1  0.54885033  0.71730667  0.95856967  1
  O  O188  1  0.12283600  0.87647300  0.06278600  1
  O  O189  1  0.75363700  0.87716400  0.06278600  1
  O  O190  1  0.62987200  0.99633900  0.12620600  1
  O  O191  1  0.28269333  0.83154367  0.95856967  1
  O  O192  1  0.59187267  0.18654133  0.29149233  1
  O  O193  1  0.33749133  0.29992667  0.29319467  1
  O  O194  1  0.99910300  0.37503600  0.36956500  1
