# generated using pymatgen
data_LaAlO3
_symmetry_space_group_name_H-M   'P 1'
_cell_length_a   7.66406700
_cell_length_b   6.05392100
_cell_length_c   13.57440073
_cell_angle_alpha   90.00000000
_cell_angle_beta   115.26345959
_cell_angle_gamma   90.00000000
_symmetry_Int_Tables_number   1
_chemical_formula_structural   LaAlO3
_chemical_formula_sum   'La8 Al8 O24'
_cell_volume   569.58115320
_cell_formula_units_Z   8
loop_
 _symmetry_equiv_pos_site_id
 _symmetry_equiv_pos_as_xyz
  1  'x, y, z'
loop_
 _atom_site_type_symbol
 _atom_site_label
 _atom_site_symmetry_multiplicity
 _atom_site_fract_x
 _atom_site_fract_y
 _atom_site_fract_z
 _atom_site_occupancy
  La  La0  1  0.77469100  0.10511500  0.36904100  1
  La  La1  1  0.26075000  0.40848400  0.85104400  1
  La  La2  1  0.22530900  0.60511500  0.13095900  1
  La  La3  1  0.73925000  0.90848400  0.64895600  1
  La  La4  1  0.26075000  0.09151600  0.35104400  1
  La  La5  1  0.77469100  0.39488500  0.86904100  1
  La  La6  1  0.73925000  0.59151600  0.14895600  1
  La  La7  1  0.22530900  0.89488500  0.63095900  1
  Al  Al8  1  0.44843100  0.13540900  0.12201300  1
  Al  Al9  1  0.14565000  0.90510500  0.90405600  1
  Al  Al10  1  0.55156900  0.63540900  0.37798700  1
  Al  Al11  1  0.85435000  0.40510500  0.59594400  1
  Al  Al12  1  0.14565000  0.59489500  0.40405600  1
  Al  Al13  1  0.44843100  0.36459100  0.62201300  1
  Al  Al14  1  0.85435000  0.09489500  0.09594400  1
  Al  Al15  1  0.55156900  0.86459100  0.87798700  1
  O  O16  1  0.29754400  0.90116000  0.83282300  1
  O  O17  1  0.39527300  0.38580100  0.04752500  1
  O  O18  1  0.57485700  0.67933700  0.25507300  1
  O  O19  1  0.69360700  0.41927200  0.45604800  1
  O  O20  1  0.00134500  0.63571200  0.65561700  1
  O  O21  1  0.30639300  0.91927200  0.04395200  1
  O  O22  1  0.95886200  0.14108100  0.60142800  1
  O  O23  1  0.42514300  0.17933700  0.24492700  1
  O  O24  1  0.60472700  0.88580100  0.45247500  1
  O  O25  1  0.04113800  0.64108100  0.89857200  1
  O  O26  1  0.99865500  0.13571200  0.84438300  1
  O  O27  1  0.29754400  0.59884000  0.33282300  1
  O  O28  1  0.70245600  0.40116000  0.66717700  1
  O  O29  1  0.00134500  0.86428800  0.15561700  1
  O  O30  1  0.95886200  0.35891900  0.10142800  1
  O  O31  1  0.39527300  0.11419900  0.54752500  1
  O  O32  1  0.57485700  0.82066300  0.75507300  1
  O  O33  1  0.04113800  0.85891900  0.39857200  1
  O  O34  1  0.69360700  0.08072800  0.95604800  1
  O  O35  1  0.99865500  0.36428800  0.34438300  1
  O  O36  1  0.30639300  0.58072800  0.54395200  1
  O  O37  1  0.42514300  0.32066300  0.74492700  1
  O  O38  1  0.60472700  0.61419900  0.95247500  1
  O  O39  1  0.70245600  0.09884000  0.16717700  1
