# generated using pymatgen
data_Ce3Y4O12
_symmetry_space_group_name_H-M   'P 1'
_cell_length_a   27.62703200
_cell_length_b   3.75906800
_cell_length_c   5.49971289
_cell_angle_alpha   90.00000000
_cell_angle_beta   101.29229209
_cell_angle_gamma   90.00000000
_symmetry_Int_Tables_number   1
_chemical_formula_structural   Ce3Y4O12
_chemical_formula_sum   'Ce6 Y8 O24'
_cell_volume   560.09859302
_cell_formula_units_Z   2
loop_
 _symmetry_equiv_pos_site_id
 _symmetry_equiv_pos_as_xyz
  1  'x, y, z'
loop_
 _atom_site_type_symbol
 _atom_site_label
 _atom_site_symmetry_multiplicity
 _atom_site_fract_x
 _atom_site_fract_y
 _atom_site_fract_z
 _atom_site_occupancy
  Ce  Ce0  1  0.35675500  0.50000000  0.85468000  1
  Ce  Ce1  1  0.28030900  0.00000000  0.27820000  1
  Ce  Ce2  1  0.42494100  0.00000000  0.43216600  1
  Ce  Ce3  1  0.85675500  0.00000000  0.85468000  1
  Ce  Ce4  1  0.78030900  0.50000000  0.27820000  1
  Ce  Ce5  1  0.92494100  0.50000000  0.43216600  1
  Y  Y6  1  0.00415100  0.00000000  0.94902500  1
  Y  Y7  1  0.07252200  0.50000000  0.57184400  1
  Y  Y8  1  0.21817800  0.50000000  0.70743500  1
  Y  Y9  1  0.14231500  0.00000000  0.19498700  1
  Y  Y10  1  0.50415100  0.50000000  0.94902500  1
  Y  Y11  1  0.57252200  0.00000000  0.57184400  1
  Y  Y12  1  0.71817800  0.00000000  0.70743500  1
  Y  Y13  1  0.64231500  0.50000000  0.19498700  1
  O  O14  1  0.20228600  0.00000000  0.96051800  1
  O  O15  1  0.08572000  0.00000000  0.83505700  1
  O  O16  1  0.42637300  0.50000000  0.67175200  1
  O  O17  1  0.35720000  0.00000000  0.61103100  1
  O  O18  1  0.00171300  0.50000000  0.73370000  1
  O  O19  1  0.28773500  0.50000000  0.53362700  1
  O  O20  1  0.05489300  0.00000000  0.31310600  1
  O  O21  1  0.21703100  0.00000000  0.46789800  1
  O  O22  1  0.14056700  0.50000000  0.40881500  1
  O  O23  1  0.28463800  0.50000000  0.02979500  1
  O  O24  1  0.35944900  0.00000000  0.11275600  1
  O  O25  1  0.44037700  0.50000000  0.19075300  1
  O  O26  1  0.70228600  0.50000000  0.96051800  1
  O  O27  1  0.58572000  0.50000000  0.83505700  1
  O  O28  1  0.92637300  0.00000000  0.67175200  1
  O  O29  1  0.85720000  0.50000000  0.61103100  1
  O  O30  1  0.50171300  0.00000000  0.73370000  1
  O  O31  1  0.78773500  0.00000000  0.53362700  1
  O  O32  1  0.55489300  0.50000000  0.31310600  1
  O  O33  1  0.71703100  0.50000000  0.46789800  1
  O  O34  1  0.64056700  0.00000000  0.40881500  1
  O  O35  1  0.78463800  0.00000000  0.02979500  1
  O  O36  1  0.85944900  0.50000000  0.11275600  1
  O  O37  1  0.94037700  0.00000000  0.19075300  1
