# generated using pymatgen
data_Tb(BiO2)3
_symmetry_space_group_name_H-M   'P 1'
_cell_length_a   11.09498200
_cell_length_b   11.09498200
_cell_length_c   11.09498200
_cell_angle_alpha   90.00000000
_cell_angle_beta   90.00000000
_cell_angle_gamma   90.00000000
_symmetry_Int_Tables_number   1
_chemical_formula_structural   Tb(BiO2)3
_chemical_formula_sum   'Tb8 Bi24 O48'
_cell_volume   1365.77703504
_cell_formula_units_Z   8
loop_
 _symmetry_equiv_pos_site_id
 _symmetry_equiv_pos_as_xyz
  1  'x, y, z'
loop_
 _atom_site_type_symbol
 _atom_site_label
 _atom_site_symmetry_multiplicity
 _atom_site_fract_x
 _atom_site_fract_y
 _atom_site_fract_z
 _atom_site_occupancy
  Tb  Tb0  1  0.24843600  0.75156400  0.25156400  1
  Tb  Tb1  1  0.75156400  0.25156400  0.24843600  1
  Tb  Tb2  1  0.24843600  0.24843600  0.24843600  1
  Tb  Tb3  1  0.25156400  0.24843600  0.75156400  1
  Tb  Tb4  1  0.74843600  0.25156400  0.75156400  1
  Tb  Tb5  1  0.25156400  0.75156400  0.74843600  1
  Tb  Tb6  1  0.74843600  0.74843600  0.74843600  1
  Tb  Tb7  1  0.75156400  0.74843600  0.25156400  1
  Bi  Bi8  1  0.75000000  0.46664700  0.50000000  1
  Bi  Bi9  1  0.00000000  0.25000000  0.46929200  1
  Bi  Bi10  1  0.00000000  0.75000000  0.03070800  1
  Bi  Bi11  1  0.03335300  0.50000000  0.25000000  1
  Bi  Bi12  1  0.03070800  0.00000000  0.75000000  1
  Bi  Bi13  1  0.25000000  0.03335300  0.50000000  1
  Bi  Bi14  1  0.25000000  0.46929200  0.00000000  1
  Bi  Bi15  1  0.46929200  0.00000000  0.25000000  1
  Bi  Bi16  1  0.46664700  0.50000000  0.75000000  1
  Bi  Bi17  1  0.50000000  0.25000000  0.03335300  1
  Bi  Bi18  1  0.50000000  0.75000000  0.46664700  1
  Bi  Bi19  1  0.75000000  0.03070800  0.00000000  1
  Bi  Bi20  1  0.25000000  0.96664700  0.00000000  1
  Bi  Bi21  1  0.50000000  0.75000000  0.96929200  1
  Bi  Bi22  1  0.50000000  0.25000000  0.53070800  1
  Bi  Bi23  1  0.53335300  0.00000000  0.75000000  1
  Bi  Bi24  1  0.53070800  0.50000000  0.25000000  1
  Bi  Bi25  1  0.75000000  0.53335300  0.00000000  1
  Bi  Bi26  1  0.75000000  0.96929200  0.50000000  1
  Bi  Bi27  1  0.96929200  0.50000000  0.75000000  1
  Bi  Bi28  1  0.96664700  0.00000000  0.25000000  1
  Bi  Bi29  1  0.00000000  0.75000000  0.53335300  1
  Bi  Bi30  1  0.00000000  0.25000000  0.96664700  1
  Bi  Bi31  1  0.25000000  0.53070800  0.50000000  1
  O  O32  1  0.15610000  0.12077100  0.88940200  1
  O  O33  1  0.87922900  0.61059800  0.15610000  1
  O  O34  1  0.87922900  0.38940200  0.34390000  1
  O  O35  1  0.34209050  0.37533950  0.61208550  1
  O  O36  1  0.34209050  0.62466050  0.88791450  1
  O  O37  1  0.15790950  0.37533950  0.38791450  1
  O  O38  1  0.15790950  0.62466050  0.11208550  1
  O  O39  1  0.12077100  0.11059800  0.34390000  1
  O  O40  1  0.11059800  0.34390000  0.12077100  1
  O  O41  1  0.11208550  0.15790950  0.62466050  1
  O  O42  1  0.61208550  0.34209050  0.37533950  1
  O  O43  1  0.62466050  0.88791450  0.34209050  1
  O  O44  1  0.15610000  0.87922900  0.61059800  1
  O  O45  1  0.34390000  0.87922900  0.38940200  1
  O  O46  1  0.34390000  0.12077100  0.11059800  1
  O  O47  1  0.37533950  0.38791450  0.15790950  1
  O  O48  1  0.88791450  0.34209050  0.62466050  1
  O  O49  1  0.38791450  0.15790950  0.37533950  1
  O  O50  1  0.88940200  0.15610000  0.12077100  1
  O  O51  1  0.38940200  0.34390000  0.87922900  1
  O  O52  1  0.12077100  0.88940200  0.15610000  1
  O  O53  1  0.61059800  0.15610000  0.87922900  1
  O  O54  1  0.62466050  0.11208550  0.15790950  1
  O  O55  1  0.37533950  0.61208550  0.34209050  1
  O  O56  1  0.65610000  0.62077100  0.38940200  1
  O  O57  1  0.37922900  0.11059800  0.65610000  1
  O  O58  1  0.37922900  0.88940200  0.84390000  1
  O  O59  1  0.84209050  0.87533950  0.11208550  1
  O  O60  1  0.84209050  0.12466050  0.38791450  1
  O  O61  1  0.65790950  0.87533950  0.88791450  1
  O  O62  1  0.65790950  0.12466050  0.61208550  1
  O  O63  1  0.62077100  0.61059800  0.84390000  1
  O  O64  1  0.61059800  0.84390000  0.62077100  1
  O  O65  1  0.61208550  0.65790950  0.12466050  1
  O  O66  1  0.11208550  0.84209050  0.87533950  1
  O  O67  1  0.12466050  0.38791450  0.84209050  1
  O  O68  1  0.65610000  0.37922900  0.11059800  1
  O  O69  1  0.84390000  0.37922900  0.88940200  1
  O  O70  1  0.84390000  0.62077100  0.61059800  1
  O  O71  1  0.87533950  0.88791450  0.65790950  1
  O  O72  1  0.38791450  0.84209050  0.12466050  1
  O  O73  1  0.88791450  0.65790950  0.87533950  1
  O  O74  1  0.38940200  0.65610000  0.62077100  1
  O  O75  1  0.88940200  0.84390000  0.37922900  1
  O  O76  1  0.62077100  0.38940200  0.65610000  1
  O  O77  1  0.11059800  0.65610000  0.37922900  1
  O  O78  1  0.12466050  0.61208550  0.65790950  1
  O  O79  1  0.87533950  0.11208550  0.84209050  1
