# generated using pymatgen
data_SrSm2O4
_symmetry_space_group_name_H-M   'P 1'
_cell_length_a   3.52187800
_cell_length_b   10.35166500
_cell_length_c   12.25952200
_cell_angle_alpha   90.00000000
_cell_angle_beta   90.00000000
_cell_angle_gamma   90.00000000
_symmetry_Int_Tables_number   1
_chemical_formula_structural   SrSm2O4
_chemical_formula_sum   'Sr4 Sm8 O16'
_cell_volume   446.94908645
_cell_formula_units_Z   4
loop_
 _symmetry_equiv_pos_site_id
 _symmetry_equiv_pos_as_xyz
  1  'x, y, z'
loop_
 _atom_site_type_symbol
 _atom_site_label
 _atom_site_symmetry_multiplicity
 _atom_site_fract_x
 _atom_site_fract_y
 _atom_site_fract_z
 _atom_site_occupancy
  Sr  Sr0  1  0.75000000  0.74679900  0.14862900  1
  Sr  Sr1  1  0.25000000  0.75320100  0.64862900  1
  Sr  Sr2  1  0.75000000  0.24679900  0.35137100  1
  Sr  Sr3  1  0.25000000  0.25320100  0.85137100  1
  Sm  Sm4  1  0.75000000  0.57764400  0.38758800  1
  Sm  Sm5  1  0.75000000  0.57819500  0.88822300  1
  Sm  Sm6  1  0.25000000  0.92180500  0.38822300  1
  Sm  Sm7  1  0.25000000  0.92235600  0.88758800  1
  Sm  Sm8  1  0.75000000  0.07764400  0.11241200  1
  Sm  Sm9  1  0.75000000  0.07819500  0.61177700  1
  Sm  Sm10  1  0.25000000  0.42180500  0.11177700  1
  Sm  Sm11  1  0.25000000  0.42235600  0.61241200  1
  O  O12  1  0.25000000  0.51840800  0.78298100  1
  O  O13  1  0.75000000  0.57641500  0.57805800  1
  O  O14  1  0.25000000  0.62792900  0.02223800  1
  O  O15  1  0.25000000  0.70999500  0.31987800  1
  O  O16  1  0.75000000  0.79000500  0.81987800  1
  O  O17  1  0.75000000  0.87207100  0.52223800  1
  O  O18  1  0.25000000  0.92358500  0.07805800  1
  O  O19  1  0.75000000  0.98159200  0.28298100  1
  O  O20  1  0.25000000  0.01840800  0.71701900  1
  O  O21  1  0.75000000  0.07641500  0.92194200  1
  O  O22  1  0.25000000  0.12792900  0.47776200  1
  O  O23  1  0.25000000  0.20999500  0.18012200  1
  O  O24  1  0.75000000  0.29000500  0.68012200  1
  O  O25  1  0.75000000  0.37207100  0.97776200  1
  O  O26  1  0.25000000  0.42358500  0.42194200  1
  O  O27  1  0.75000000  0.48159200  0.21701900  1
