# generated using pymatgen
data_V2O3
_symmetry_space_group_name_H-M   'P 1'
_cell_length_a   7.64532700
_cell_length_b   3.11041300
_cell_length_c   13.39487038
_cell_angle_alpha   90.00000000
_cell_angle_beta   98.50055834
_cell_angle_gamma   90.00000000
_symmetry_Int_Tables_number   1
_chemical_formula_structural   V2O3
_chemical_formula_sum   'V12 O18'
_cell_volume   315.03243081
_cell_formula_units_Z   6
loop_
 _symmetry_equiv_pos_site_id
 _symmetry_equiv_pos_as_xyz
  1  'x, y, z'
loop_
 _atom_site_type_symbol
 _atom_site_label
 _atom_site_symmetry_multiplicity
 _atom_site_fract_x
 _atom_site_fract_y
 _atom_site_fract_z
 _atom_site_occupancy
  V  V0  1  0.81368400  0.25000000  0.98389900  1
  V  V1  1  0.45168300  0.25000000  0.88781800  1
  V  V2  1  0.81987900  0.75000000  0.78304600  1
  V  V3  1  0.17985000  0.75000000  0.71655500  1
  V  V4  1  0.50074100  0.25000000  0.59890000  1
  V  V5  1  0.87290000  0.25000000  0.57055800  1
  V  V6  1  0.12710000  0.75000000  0.42944200  1
  V  V7  1  0.49925900  0.75000000  0.40110000  1
  V  V8  1  0.82015000  0.25000000  0.28344500  1
  V  V9  1  0.18012100  0.25000000  0.21695400  1
  V  V10  1  0.54831700  0.75000000  0.11218200  1
  V  V11  1  0.18631600  0.75000000  0.01610100  1
  O  O12  1  0.62135600  0.75000000  0.97481100  1
  O  O13  1  0.27949400  0.75000000  0.86557600  1
  O  O14  1  0.94598100  0.75000000  0.92532500  1
  O  O15  1  0.68485700  0.25000000  0.82891300  1
  O  O16  1  0.34570800  0.25000000  0.70662200  1
  O  O17  1  0.98196000  0.25000000  0.72934900  1
  O  O18  1  0.69230700  0.75000000  0.64047000  1
  O  O19  1  0.03980400  0.75000000  0.57425600  1
  O  O20  1  0.36656500  0.75000000  0.52484200  1
  O  O21  1  0.63343500  0.25000000  0.47515800  1
  O  O22  1  0.96019600  0.25000000  0.42574400  1
  O  O23  1  0.30769300  0.25000000  0.35953000  1
  O  O24  1  0.01804000  0.75000000  0.27065100  1
  O  O25  1  0.65429200  0.75000000  0.29337800  1
  O  O26  1  0.31514300  0.75000000  0.17108700  1
  O  O27  1  0.05401900  0.25000000  0.07467500  1
  O  O28  1  0.72050600  0.25000000  0.13442400  1
  O  O29  1  0.37864400  0.25000000  0.02518900  1
