# generated using pymatgen
data_Na5LaO4
_symmetry_space_group_name_H-M   'P 1'
_cell_length_a   5.63230300
_cell_length_b   7.67661300
_cell_length_c   8.13079800
_cell_angle_alpha   90.00000000
_cell_angle_beta   90.00000000
_cell_angle_gamma   90.00000000
_symmetry_Int_Tables_number   1
_chemical_formula_structural   Na5LaO4
_chemical_formula_sum   'Na10 La2 O8'
_cell_volume   351.55139793
_cell_formula_units_Z   2
loop_
 _symmetry_equiv_pos_site_id
 _symmetry_equiv_pos_as_xyz
  1  'x, y, z'
loop_
 _atom_site_type_symbol
 _atom_site_label
 _atom_site_symmetry_multiplicity
 _atom_site_fract_x
 _atom_site_fract_y
 _atom_site_fract_z
 _atom_site_occupancy
  Na  Na0  1  0.25239500  0.75953100  0.80904000  1
  Na  Na1  1  0.25239500  0.24046900  0.80904000  1
  Na  Na2  1  0.78225800  0.50000000  0.00000000  1
  Na  Na3  1  0.25239500  0.24046900  0.19096000  1
  Na  Na4  1  0.25239500  0.75953100  0.19096000  1
  Na  Na5  1  0.74760500  0.25953100  0.30904000  1
  Na  Na6  1  0.74760500  0.74046900  0.30904000  1
  Na  Na7  1  0.21774200  0.00000000  0.50000000  1
  Na  Na8  1  0.74760500  0.25953100  0.69096000  1
  Na  Na9  1  0.74760500  0.74046900  0.69096000  1
  La  La10  1  0.77808600  0.00000000  0.00000000  1
  La  La11  1  0.22191400  0.50000000  0.50000000  1
  O  O12  1  0.99622100  0.00000000  0.75922500  1
  O  O13  1  0.55645600  0.24363500  0.00000000  1
  O  O14  1  0.55645600  0.75636500  0.00000000  1
  O  O15  1  0.99622100  0.00000000  0.24077500  1
  O  O16  1  0.00377900  0.50000000  0.25922500  1
  O  O17  1  0.44354400  0.25636500  0.50000000  1
  O  O18  1  0.44354400  0.74363500  0.50000000  1
  O  O19  1  0.00377900  0.50000000  0.74077500  1
