# generated using pymatgen
data_Ti3N2O3
_symmetry_space_group_name_H-M   'P 1'
_cell_length_a   3.84596800
_cell_length_b   9.82609000
_cell_length_c   9.91796500
_cell_angle_alpha   90.00000000
_cell_angle_beta   90.00000000
_cell_angle_gamma   90.00000000
_symmetry_Int_Tables_number   1
_chemical_formula_structural   Ti3N2O3
_chemical_formula_sum   'Ti12 N8 O12'
_cell_volume   374.80810650
_cell_formula_units_Z   4
loop_
 _symmetry_equiv_pos_site_id
 _symmetry_equiv_pos_as_xyz
  1  'x, y, z'
loop_
 _atom_site_type_symbol
 _atom_site_label
 _atom_site_symmetry_multiplicity
 _atom_site_fract_x
 _atom_site_fract_y
 _atom_site_fract_z
 _atom_site_occupancy
  Ti  Ti0  1  0.00000000  0.20064300  0.75000000  1
  Ti  Ti1  1  0.00000000  0.14358200  0.44819700  1
  Ti  Ti2  1  0.00000000  0.14358200  0.05180300  1
  Ti  Ti3  1  0.50000000  0.29935700  0.25000000  1
  Ti  Ti4  1  0.50000000  0.35641800  0.55180300  1
  Ti  Ti5  1  0.50000000  0.35641800  0.94819700  1
  Ti  Ti6  1  0.50000000  0.70064300  0.75000000  1
  Ti  Ti7  1  0.50000000  0.64358200  0.44819700  1
  Ti  Ti8  1  0.50000000  0.64358200  0.05180300  1
  Ti  Ti9  1  0.00000000  0.79935700  0.25000000  1
  Ti  Ti10  1  0.00000000  0.85641800  0.55180300  1
  Ti  Ti11  1  0.00000000  0.85641800  0.94819700  1
  N  N12  1  0.00000000  0.30758400  0.92342500  1
  N  N13  1  0.00000000  0.30758400  0.57657500  1
  N  N14  1  0.50000000  0.19241600  0.07657500  1
  N  N15  1  0.50000000  0.19241600  0.42342500  1
  N  N16  1  0.50000000  0.80758400  0.92342500  1
  N  N17  1  0.50000000  0.80758400  0.57657500  1
  N  N18  1  0.00000000  0.69241600  0.07657500  1
  N  N19  1  0.00000000  0.69241600  0.42342500  1
  O  O20  1  0.00000000  0.24582400  0.25000000  1
  O  O21  1  0.00000000  0.04527800  0.61851600  1
  O  O22  1  0.00000000  0.04527800  0.88148400  1
  O  O23  1  0.50000000  0.45472200  0.38148400  1
  O  O24  1  0.50000000  0.25417600  0.75000000  1
  O  O25  1  0.50000000  0.45472200  0.11851600  1
  O  O26  1  0.50000000  0.74582400  0.25000000  1
  O  O27  1  0.50000000  0.54527800  0.61851600  1
  O  O28  1  0.50000000  0.54527800  0.88148400  1
  O  O29  1  0.00000000  0.95472200  0.38148400  1
  O  O30  1  0.00000000  0.75417600  0.75000000  1
  O  O31  1  0.00000000  0.95472200  0.11851600  1
