# generated using pymatgen
data_KAl2P2H4O11
_symmetry_space_group_name_H-M   'P 1'
_cell_length_a   9.10413300
_cell_length_b   9.96034600
_cell_length_c   10.08076400
_cell_angle_alpha   90.00000000
_cell_angle_beta   90.00000000
_cell_angle_gamma   90.00000000
_symmetry_Int_Tables_number   1
_chemical_formula_structural   KAl2P2H4O11
_chemical_formula_sum   'K4 Al8 P8 H16 O44'
_cell_volume   914.12685204
_cell_formula_units_Z   4
loop_
 _symmetry_equiv_pos_site_id
 _symmetry_equiv_pos_as_xyz
  1  'x, y, z'
loop_
 _atom_site_type_symbol
 _atom_site_label
 _atom_site_symmetry_multiplicity
 _atom_site_fract_x
 _atom_site_fract_y
 _atom_site_fract_z
 _atom_site_occupancy
  K  K0  1  0.24104400  0.98058700  0.35683200  1
  K  K1  1  0.25895600  0.01941300  0.85683200  1
  K  K2  1  0.74104400  0.51941300  0.64316800  1
  K  K3  1  0.75895600  0.48058700  0.14316800  1
  Al  Al4  1  0.08630300  0.72957500  0.65027700  1
  Al  Al5  1  0.13774800  0.50171700  0.18131100  1
  Al  Al6  1  0.36225200  0.49828300  0.68131100  1
  Al  Al7  1  0.41369700  0.27042500  0.15027700  1
  Al  Al8  1  0.58630300  0.77042500  0.34972300  1
  Al  Al9  1  0.63774800  0.99828300  0.81868900  1
  Al  Al10  1  0.86225200  0.00171700  0.31868900  1
  Al  Al11  1  0.91369700  0.22957500  0.84972300  1
  P  P12  1  0.07207400  0.52450300  0.86573700  1
  P  P13  1  0.07516300  0.20077400  0.13807500  1
  P  P14  1  0.42483700  0.79922600  0.63807500  1
  P  P15  1  0.42792600  0.47549700  0.36573700  1
  P  P16  1  0.57207400  0.97549700  0.13426300  1
  P  P17  1  0.57516300  0.29922600  0.86192500  1
  P  P18  1  0.92483700  0.70077400  0.36192500  1
  P  P19  1  0.92792600  0.02450300  0.63426300  1
  H  H20  1  0.01738200  0.41113900  0.49631000  1
  H  H21  1  0.09094500  0.79403100  0.03943000  1
  H  H22  1  0.16565100  0.29640100  0.67880100  1
  H  H23  1  0.17464600  0.74370000  0.23158800  1
  H  H24  1  0.32535400  0.25630000  0.73158800  1
  H  H25  1  0.33434900  0.70359900  0.17880100  1
  H  H26  1  0.40905500  0.20596900  0.53943000  1
  H  H27  1  0.48261800  0.58886100  0.99631000  1
  H  H28  1  0.51738200  0.08886100  0.50369000  1
  H  H29  1  0.59094500  0.70596900  0.96057000  1
  H  H30  1  0.66565100  0.20359900  0.32119900  1
  H  H31  1  0.67464600  0.75630000  0.76841200  1
  H  H32  1  0.82535400  0.24370000  0.26841200  1
  H  H33  1  0.83434900  0.79640100  0.82119900  1
  H  H34  1  0.90905500  0.29403100  0.46057000  1
  H  H35  1  0.98261800  0.91113900  0.00369000  1
  O  O36  1  0.00820800  0.39245700  0.81110700  1
  O  O37  1  0.00298900  0.08908900  0.21985000  1
  O  O38  1  0.99740900  0.64706900  0.79370900  1
  O  O39  1  0.02659800  0.19565400  0.99202800  1
  O  O40  1  0.04657800  0.53838900  0.01628000  1
  O  O41  1  0.03199800  0.33811700  0.19958500  1
  O  O42  1  0.08262700  0.87947400  0.99249700  1
  O  O43  1  0.19016400  0.56863400  0.61880700  1
  O  O44  1  0.22793100  0.68915700  0.16673700  1
  O  O45  1  0.24304900  0.17363200  0.14185900  1
  O  O46  1  0.24117000  0.53257900  0.83722900  1
  O  O47  1  0.25883000  0.46742100  0.33722900  1
  O  O48  1  0.25695100  0.82636800  0.64185900  1
  O  O49  1  0.27206900  0.31084300  0.66673700  1
  O  O50  1  0.30983600  0.43136600  0.11880700  1
  O  O51  1  0.41737300  0.12052600  0.49249700  1
  O  O52  1  0.46800200  0.66188300  0.69958500  1
  O  O53  1  0.45342200  0.46161100  0.51628000  1
  O  O54  1  0.47340200  0.80434600  0.49202800  1
  O  O55  1  0.50259100  0.35293100  0.29370900  1
  O  O56  1  0.49701100  0.91091100  0.71985000  1
  O  O57  1  0.49179200  0.60754300  0.31110700  1
  O  O58  1  0.50820800  0.10754300  0.18889300  1
  O  O59  1  0.50298900  0.41091100  0.78015000  1
  O  O60  1  0.49740900  0.85293100  0.20629100  1
  O  O61  1  0.52659800  0.30434600  0.00797200  1
  O  O62  1  0.54657800  0.96161100  0.98372000  1
  O  O63  1  0.53199800  0.16188300  0.80041500  1
  O  O64  1  0.58262700  0.62052600  0.00750300  1
  O  O65  1  0.69016400  0.93136600  0.38119300  1
  O  O66  1  0.72793100  0.81084300  0.83326300  1
  O  O67  1  0.74304900  0.32636800  0.85814100  1
  O  O68  1  0.74117000  0.96742100  0.16277100  1
  O  O69  1  0.75883000  0.03257900  0.66277100  1
  O  O70  1  0.75695100  0.67363200  0.35814100  1
  O  O71  1  0.77206900  0.18915700  0.33326300  1
  O  O72  1  0.80983600  0.06863400  0.88119300  1
  O  O73  1  0.91737300  0.37947400  0.50750300  1
  O  O74  1  0.96800200  0.83811700  0.30041500  1
  O  O75  1  0.95342200  0.03838900  0.48372000  1
  O  O76  1  0.97340200  0.69565400  0.50797200  1
  O  O77  1  0.00259100  0.14706900  0.70629100  1
  O  O78  1  0.99701100  0.58908900  0.28015000  1
  O  O79  1  0.99179200  0.89245700  0.68889300  1
