# generated using pymatgen
data_Ba3(BrO)2
_symmetry_space_group_name_H-M   'P 1'
_cell_length_a   6.36713700
_cell_length_b   7.58459800
_cell_length_c   19.73879600
_cell_angle_alpha   90.00000000
_cell_angle_beta   90.00000000
_cell_angle_gamma   90.00000000
_symmetry_Int_Tables_number   1
_chemical_formula_structural   Ba3(BrO)2
_chemical_formula_sum   'Ba12 Br8 O8'
_cell_volume   953.22938196
_cell_formula_units_Z   4
loop_
 _symmetry_equiv_pos_site_id
 _symmetry_equiv_pos_as_xyz
  1  'x, y, z'
loop_
 _atom_site_type_symbol
 _atom_site_label
 _atom_site_symmetry_multiplicity
 _atom_site_fract_x
 _atom_site_fract_y
 _atom_site_fract_z
 _atom_site_occupancy
  Ba  Ba0  1  0.25000000  0.15280600  0.02198500  1
  Ba  Ba1  1  0.25000000  0.69411100  0.10864000  1
  Ba  Ba2  1  0.75000000  0.04899300  0.15855200  1
  Ba  Ba3  1  0.25000000  0.54899300  0.34144800  1
  Ba  Ba4  1  0.75000000  0.19411100  0.39136000  1
  Ba  Ba5  1  0.75000000  0.65280600  0.47801500  1
  Ba  Ba6  1  0.25000000  0.34719400  0.52198500  1
  Ba  Ba7  1  0.25000000  0.80588900  0.60864000  1
  Ba  Ba8  1  0.75000000  0.45100700  0.65855200  1
  Ba  Ba9  1  0.25000000  0.95100700  0.84144800  1
  Ba  Ba10  1  0.75000000  0.30588900  0.89136000  1
  Ba  Ba11  1  0.75000000  0.84719400  0.97801500  1
  Br  Br12  1  0.75000000  0.41839800  0.05925900  1
  Br  Br13  1  0.25000000  0.22613000  0.22697100  1
  Br  Br14  1  0.75000000  0.72613000  0.27302900  1
  Br  Br15  1  0.25000000  0.91839800  0.44074100  1
  Br  Br16  1  0.75000000  0.08160200  0.55925900  1
  Br  Br17  1  0.25000000  0.27387000  0.72697100  1
  Br  Br18  1  0.75000000  0.77387000  0.77302900  1
  Br  Br19  1  0.25000000  0.58160200  0.94074100  1
  O  O20  1  0.49965200  0.91977100  0.07934700  1
  O  O21  1  0.00034800  0.91977100  0.07934700  1
  O  O22  1  0.99965200  0.41977100  0.42065300  1
  O  O23  1  0.50034800  0.41977100  0.42065300  1
  O  O24  1  0.49965200  0.58022900  0.57934700  1
  O  O25  1  0.00034800  0.58022900  0.57934700  1
  O  O26  1  0.99965200  0.08022900  0.92065300  1
  O  O27  1  0.50034800  0.08022900  0.92065300  1
