# generated using pymatgen
data_Na6V2O7
_symmetry_space_group_name_H-M   'P 1'
_cell_length_a   6.01439400
_cell_length_b   8.44637900
_cell_length_c   10.64746289
_cell_angle_alpha   90.00000000
_cell_angle_beta   122.41188118
_cell_angle_gamma   90.00000000
_symmetry_Int_Tables_number   1
_chemical_formula_structural   Na6V2O7
_chemical_formula_sum   'Na12 V4 O14'
_cell_volume   456.62802589
_cell_formula_units_Z   2
loop_
 _symmetry_equiv_pos_site_id
 _symmetry_equiv_pos_as_xyz
  1  'x, y, z'
loop_
 _atom_site_type_symbol
 _atom_site_label
 _atom_site_symmetry_multiplicity
 _atom_site_fract_x
 _atom_site_fract_y
 _atom_site_fract_z
 _atom_site_occupancy
  Na  Na0  1  0.42534800  0.95432200  0.27951200  1
  Na  Na1  1  0.07086700  0.08447100  0.95089500  1
  Na  Na2  1  0.79223600  0.22083200  0.54038300  1
  Na  Na3  1  0.21732700  0.72557600  0.96321600  1
  Na  Na4  1  0.60484000  0.45966100  0.23121800  1
  Na  Na5  1  0.91596300  0.58301700  0.54971400  1
  Na  Na6  1  0.07086700  0.91552900  0.45089500  1
  Na  Na7  1  0.42534800  0.04567800  0.77951200  1
  Na  Na8  1  0.79223600  0.77916800  0.04038300  1
  Na  Na9  1  0.21732700  0.27442400  0.46321600  1
  Na  Na10  1  0.91596300  0.41698300  0.04971400  1
  Na  Na11  1  0.60484000  0.54033900  0.73121800  1
  V  V12  1  0.71240500  0.90287300  0.63821400  1
  V  V13  1  0.28965300  0.39213300  0.85451600  1
  V  V14  1  0.71240500  0.09712700  0.13821400  1
  V  V15  1  0.28965300  0.60786700  0.35451600  1
  O  O16  1  0.21704900  0.63180500  0.17015900  1
  O  O17  1  0.55034900  0.75652800  0.48191300  1
  O  O18  1  0.50889100  0.43598500  0.44040900  1
  O  O19  1  0.01388000  0.39337200  0.87380800  1
  O  O20  1  0.01589600  0.94837900  0.65044000  1
  O  O21  1  0.47734000  0.94004500  0.06939300  1
  O  O22  1  0.78838900  0.15651300  0.32158300  1
  O  O23  1  0.21704900  0.36819500  0.67015900  1
  O  O24  1  0.55034900  0.24347200  0.98191300  1
  O  O25  1  0.50889100  0.56401500  0.94040900  1
  O  O26  1  0.01388000  0.60662800  0.37380800  1
  O  O27  1  0.01589600  0.05162100  0.15044000  1
  O  O28  1  0.47734000  0.05995500  0.56939300  1
  O  O29  1  0.78838900  0.84348700  0.82158300  1
