# generated using pymatgen
data_VOF
_symmetry_space_group_name_H-M   'P 1'
_cell_length_a   6.22460700
_cell_length_b   4.71399400
_cell_length_c   9.98217608
_cell_angle_alpha   90.00000000
_cell_angle_beta   107.99527421
_cell_angle_gamma   90.00000000
_symmetry_Int_Tables_number   1
_chemical_formula_structural   VOF
_chemical_formula_sum   'V8 O8 F8'
_cell_volume   278.57629067
_cell_formula_units_Z   8
loop_
 _symmetry_equiv_pos_site_id
 _symmetry_equiv_pos_as_xyz
  1  'x, y, z'
loop_
 _atom_site_type_symbol
 _atom_site_label
 _atom_site_symmetry_multiplicity
 _atom_site_fract_x
 _atom_site_fract_y
 _atom_site_fract_z
 _atom_site_occupancy
  V  V0  1  0.04903000  0.97103600  0.35757600  1
  V  V1  1  0.31604800  0.99568300  0.87452500  1
  V  V2  1  0.57641000  0.03663300  0.39170300  1
  V  V3  1  0.80637700  0.99608000  0.87585700  1
  V  V4  1  0.42359000  0.53663300  0.60829700  1
  V  V5  1  0.68395200  0.49568300  0.12547500  1
  V  V6  1  0.19362300  0.49608000  0.12414300  1
  V  V7  1  0.95097000  0.47103600  0.64242400  1
  O  O8  1  0.64455700  0.32193800  0.53674200  1
  O  O9  1  0.38683400  0.30940800  0.03067300  1
  O  O10  1  0.01250400  0.18061100  0.78622500  1
  O  O11  1  0.76499100  0.18893400  0.28052400  1
  O  O12  1  0.35544300  0.82193800  0.46325800  1
  O  O13  1  0.61316600  0.80940800  0.96932700  1
  O  O14  1  0.98749600  0.68061100  0.21377500  1
  O  O15  1  0.23500900  0.68893400  0.71947600  1
  F  F16  1  0.13417400  0.29122800  0.52057500  1
  F  F17  1  0.88971100  0.29477200  0.02388500  1
  F  F18  1  0.26370700  0.20531300  0.27422300  1
  F  F19  1  0.51224600  0.20836400  0.77037400  1
  F  F20  1  0.11028900  0.79477200  0.97611500  1
  F  F21  1  0.86582600  0.79122800  0.47942500  1
  F  F22  1  0.73629300  0.70531300  0.72577700  1
  F  F23  1  0.48775400  0.70836400  0.22962600  1
