# generated using pymatgen
data_Ti2Fe(PO4)3
_symmetry_space_group_name_H-M   'P 1'
_cell_length_a   8.71529778
_cell_length_b   8.71529778
_cell_length_c   20.77054516
_cell_angle_alpha   90.00000000
_cell_angle_beta   90.00000000
_cell_angle_gamma   120.00000000
_symmetry_Int_Tables_number   1
_chemical_formula_structural   Ti2Fe(PO4)3
_chemical_formula_sum   'Ti12 Fe6 P18 O72'
_cell_volume   1366.29030947
_cell_formula_units_Z   6
loop_
 _symmetry_equiv_pos_site_id
 _symmetry_equiv_pos_as_xyz
  1  'x, y, z'
loop_
 _atom_site_type_symbol
 _atom_site_label
 _atom_site_symmetry_multiplicity
 _atom_site_fract_x
 _atom_site_fract_y
 _atom_site_fract_z
 _atom_site_occupancy
  Ti  Ti0  1  0.33333333  0.66666667  0.52335167  1
  Ti  Ti1  1  0.33333333  0.66666667  0.30998167  1
  Ti  Ti2  1  0.33333333  0.66666667  0.02335167  1
  Ti  Ti3  1  0.33333333  0.66666667  0.80998167  1
  Ti  Ti4  1  0.00000000  0.00000000  0.85668500  1
  Ti  Ti5  1  1.00000000  0.00000000  0.64331500  1
  Ti  Ti6  1  0.00000000  0.00000000  0.35668500  1
  Ti  Ti7  1  0.00000000  0.00000000  0.14331500  1
  Ti  Ti8  1  0.66666667  0.33333333  0.19001833  1
  Ti  Ti9  1  0.66666667  0.33333333  0.97664833  1
  Ti  Ti10  1  0.66666667  0.33333333  0.69001833  1
  Ti  Ti11  1  0.66666667  0.33333333  0.47664833  1
  Fe  Fe12  1  0.00000000  0.00000000  0.00000000  1
  Fe  Fe13  1  0.33333333  0.66666667  0.16666667  1
  Fe  Fe14  1  0.66666667  0.33333333  0.33333333  1
  Fe  Fe15  1  0.00000000  0.00000000  0.50000000  1
  Fe  Fe16  1  0.33333333  0.66666667  0.66666667  1
  Fe  Fe17  1  0.66666667  0.33333333  0.83333333  1
  P  P18  1  0.66666667  0.04080033  0.08333333  1
  P  P19  1  0.37413367  0.33333333  0.08333333  1
  P  P20  1  0.95919967  0.62586633  0.08333333  1
  P  P21  1  0.70746700  0.70746700  0.25000000  1
  P  P22  1  0.29253300  0.00000000  0.25000000  1
  P  P23  1  0.00000000  0.29253300  0.25000000  1
  P  P24  1  0.33333333  0.37413367  0.41666667  1
  P  P25  1  0.04080033  0.66666667  0.41666667  1
  P  P26  1  0.62586633  0.95919967  0.41666667  1
  P  P27  1  0.37413367  0.04080033  0.58333333  1
  P  P28  1  0.95919967  0.33333333  0.58333333  1
  P  P29  1  0.66666667  0.62586633  0.58333333  1
  P  P30  1  0.00000000  0.70746700  0.75000000  1
  P  P31  1  0.70746700  0.00000000  0.75000000  1
  P  P32  1  0.29253300  0.29253300  0.75000000  1
  P  P33  1  0.04080033  0.37413367  0.91666667  1
  P  P34  1  0.62586633  0.66666667  0.91666667  1
  P  P35  1  0.33333333  0.95919967  0.91666667  1
  O  O36  1  0.52828033  0.85627267  0.35589367  1
  O  O37  1  0.32799233  0.47171967  0.35589367  1
  O  O38  1  0.68595633  0.51957567  0.25714567  1
  O  O39  1  0.14372733  0.67200767  0.35589367  1
  O  O40  1  0.81039400  0.80505300  0.18922700  1
  O  O41  1  0.51957567  0.68595633  0.24285433  1
  O  O42  1  0.48042433  0.16638067  0.25714567  1
  O  O43  1  0.31404367  0.83361933  0.24285433  1
  O  O44  1  0.67200767  0.14372733  0.14410633  1
  O  O45  1  0.16638067  0.48042433  0.24285433  1
  O  O46  1  0.83304733  0.01928967  0.07618767  1
  O  O47  1  0.47171967  0.32799233  0.14410633  1
  O  O48  1  0.19494700  0.00534100  0.18922700  1
  O  O49  1  0.83361933  0.31404367  0.25714567  1
  O  O50  1  0.50028600  0.85290900  0.09047900  1
  O  O51  1  0.99465900  0.18960600  0.18922700  1
  O  O52  1  0.35262300  0.49971400  0.09047900  1
  O  O53  1  0.18624233  0.16695267  0.07618767  1
  O  O54  1  0.14709100  0.64737700  0.09047900  1
  O  O55  1  0.85627267  0.52828033  0.14410633  1
  O  O56  1  0.52293933  0.66132567  0.97743967  1
  O  O57  1  0.98071033  0.81375767  0.07618767  1
  O  O58  1  0.33867433  0.86161367  0.97743967  1
  O  O59  1  0.13838633  0.47706067  0.97743967  1
  O  O60  1  0.19494700  0.18960600  0.68922700  1
  O  O61  1  0.99465900  0.80505300  0.68922700  1
  O  O62  1  0.35262300  0.85290900  0.59047900  1
  O  O63  1  0.81039400  0.00534100  0.68922700  1
  O  O64  1  0.47706067  0.13838633  0.52256033  1
  O  O65  1  0.18624233  0.01928967  0.57618767  1
  O  O66  1  0.14709100  0.49971400  0.59047900  1
  O  O67  1  0.98071033  0.16695267  0.57618767  1
  O  O68  1  0.33867433  0.47706067  0.47743967  1
  O  O69  1  0.83304733  0.81375767  0.57618767  1
  O  O70  1  0.49971400  0.35262300  0.40952100  1
  O  O71  1  0.13838633  0.66132567  0.47743967  1
  O  O72  1  0.86161367  0.33867433  0.52256033  1
  O  O73  1  0.50028600  0.64737700  0.59047900  1
  O  O74  1  0.16695267  0.18624233  0.42381233  1
  O  O75  1  0.66132567  0.52293933  0.52256033  1
  O  O76  1  0.01928967  0.83304733  0.42381233  1
  O  O77  1  0.85290900  0.50028600  0.40952100  1
  O  O78  1  0.81375767  0.98071033  0.42381233  1
  O  O79  1  0.52293933  0.86161367  0.47743967  1
  O  O80  1  0.18960600  0.99465900  0.31077300  1
  O  O81  1  0.64737700  0.14709100  0.40952100  1
  O  O82  1  0.00534100  0.19494700  0.31077300  1
  O  O83  1  0.80505300  0.81039400  0.31077300  1
  O  O84  1  0.86161367  0.52293933  0.02256033  1
  O  O85  1  0.66132567  0.13838633  0.02256033  1
  O  O86  1  0.01928967  0.18624233  0.92381233  1
  O  O87  1  0.47706067  0.33867433  0.02256033  1
  O  O88  1  0.14372733  0.47171967  0.85589367  1
  O  O89  1  0.85290900  0.35262300  0.90952100  1
  O  O90  1  0.81375767  0.83304733  0.92381233  1
  O  O91  1  0.64737700  0.50028600  0.90952100  1
  O  O92  1  0.00534100  0.81039400  0.81077300  1
  O  O93  1  0.49971400  0.14709100  0.90952100  1
  O  O94  1  0.16638067  0.68595633  0.74285433  1
  O  O95  1  0.80505300  0.99465900  0.81077300  1
  O  O96  1  0.52828033  0.67200767  0.85589367  1
  O  O97  1  0.16695267  0.98071033  0.92381233  1
  O  O98  1  0.83361933  0.51957567  0.75714567  1
  O  O99  1  0.32799233  0.85627267  0.85589367  1
  O  O100  1  0.68595633  0.16638067  0.75714567  1
  O  O101  1  0.51957567  0.83361933  0.74285433  1
  O  O102  1  0.48042433  0.31404367  0.75714567  1
  O  O103  1  0.18960600  0.19494700  0.81077300  1
  O  O104  1  0.85627267  0.32799233  0.64410633  1
  O  O105  1  0.31404367  0.48042433  0.74285433  1
  O  O106  1  0.67200767  0.52828033  0.64410633  1
  O  O107  1  0.47171967  0.14372733  0.64410633  1
