# generated using pymatgen
data_Li8Fe3Co7O20
_symmetry_space_group_name_H-M   'P 1'
_cell_length_a   5.92033179
_cell_length_b   2.87642100
_cell_length_c   20.50750105
_cell_angle_alpha   90.00000000
_cell_angle_beta   96.85104412
_cell_angle_gamma   90.00000000
_symmetry_Int_Tables_number   1
_chemical_formula_structural   Li8Fe3Co7O20
_chemical_formula_sum   'Li8 Fe3 Co7 O20'
_cell_volume   346.73612521
_cell_formula_units_Z   1
loop_
 _symmetry_equiv_pos_site_id
 _symmetry_equiv_pos_as_xyz
  1  'x, y, z'
loop_
 _atom_site_type_symbol
 _atom_site_label
 _atom_site_symmetry_multiplicity
 _atom_site_fract_x
 _atom_site_fract_y
 _atom_site_fract_z
 _atom_site_occupancy
  Li  Li0  1  0.75998400  0.50000000  0.10696300  1
  Li  Li1  1  0.43691100  0.50000000  0.28908400  1
  Li  Li2  1  0.20482100  0.00000000  0.39847200  1
  Li  Li3  1  0.00050200  0.50000000  0.49973200  1
  Li  Li4  1  0.78949200  0.00000000  0.60342800  1
  Li  Li5  1  0.41109100  0.00000000  0.79718800  1
  Li  Li6  1  0.20544100  0.50000000  0.90287100  1
  Li  Li7  1  0.99401100  0.00000000  0.00171600  1
  Fe  Fe8  1  0.70183700  0.00000000  0.39840800  1
  Fe  Fe9  1  0.31878300  0.00000000  0.60158500  1
  Fe  Fe10  1  0.88205500  0.00000000  0.80031600  1
  Co  Co11  1  0.49644500  0.00000000  0.00155600  1
  Co  Co12  1  0.29855300  0.50000000  0.10057600  1
  Co  Co13  1  0.09831800  0.00000000  0.19847700  1
  Co  Co14  1  0.90287600  0.50000000  0.29674900  1
  Co  Co15  1  0.50083400  0.50000000  0.49843800  1
  Co  Co16  1  0.10013900  0.50000000  0.70065700  1
  Co  Co17  1  0.69823200  0.50000000  0.90373100  1
  O  O18  1  0.27482900  0.50000000  0.00539600  1
  O  O19  1  0.51376200  0.00000000  0.09512900  1
  O  O20  1  0.07710700  0.00000000  0.10527700  1
  O  O21  1  0.89114400  0.50000000  0.20272800  1
  O  O22  1  0.30604900  0.50000000  0.19455500  1
  O  O23  1  0.68413700  0.00000000  0.29984400  1
  O  O24  1  0.12174200  0.00000000  0.29143100  1
  O  O25  1  0.94149700  0.50000000  0.39387900  1
  O  O26  1  0.46343200  0.50000000  0.40134400  1
  O  O27  1  0.72569500  0.00000000  0.49814100  1
  O  O28  1  0.27559000  0.00000000  0.50109400  1
  O  O29  1  0.54373700  0.50000000  0.59347000  1
  O  O30  1  0.07240900  0.50000000  0.60678400  1
  O  O31  1  0.89075900  0.00000000  0.70122100  1
  O  O32  1  0.31018300  0.00000000  0.70014500  1
  O  O33  1  0.65688800  0.50000000  0.80831600  1
  O  O34  1  0.12838400  0.50000000  0.79455100  1
  O  O35  1  0.92557700  0.00000000  0.90115800  1
  O  O36  1  0.47807000  0.00000000  0.90646300  1
  O  O37  1  0.71865800  0.50000000  0.99885000  1
