# generated using pymatgen
data_BaSrI4
_symmetry_space_group_name_H-M   'P 1'
_cell_length_a   10.88830000
_cell_length_b   15.00863800
_cell_length_c   8.51340733
_cell_angle_alpha   90.00000000
_cell_angle_beta   127.89552136
_cell_angle_gamma   90.00000000
_symmetry_Int_Tables_number   1
_chemical_formula_structural   BaSrI4
_chemical_formula_sum   'Ba4 Sr4 I16'
_cell_volume   1097.87901393
_cell_formula_units_Z   4
loop_
 _symmetry_equiv_pos_site_id
 _symmetry_equiv_pos_as_xyz
  1  'x, y, z'
loop_
 _atom_site_type_symbol
 _atom_site_label
 _atom_site_symmetry_multiplicity
 _atom_site_fract_x
 _atom_site_fract_y
 _atom_site_fract_z
 _atom_site_occupancy
  Ba  Ba0  1  0.00000000  0.01859200  0.25000000  1
  Ba  Ba1  1  0.50000000  0.48140800  0.75000000  1
  Ba  Ba2  1  0.50000000  0.51859200  0.25000000  1
  Ba  Ba3  1  0.00000000  0.98140800  0.75000000  1
  Sr  Sr4  1  0.00000000  0.36834400  0.75000000  1
  Sr  Sr5  1  0.50000000  0.13165600  0.25000000  1
  Sr  Sr6  1  0.50000000  0.86834400  0.75000000  1
  Sr  Sr7  1  0.00000000  0.63165600  0.25000000  1
  I  I8  1  0.31347350  0.05805550  0.76019900  1
  I  I9  1  0.87498700  0.18022700  0.43643600  1
  I  I10  1  0.37498700  0.31977300  0.93643600  1
  I  I11  1  0.68652650  0.05805550  0.73980100  1
  I  I12  1  0.81347350  0.44194450  0.26019900  1
  I  I13  1  0.12501300  0.18022700  0.06356400  1
  I  I14  1  0.62501300  0.31977300  0.56356400  1
  I  I15  1  0.18652650  0.44194450  0.23980100  1
  I  I16  1  0.81347350  0.55805550  0.76019900  1
  I  I17  1  0.37498700  0.68022700  0.43643600  1
  I  I18  1  0.87498700  0.81977300  0.93643600  1
  I  I19  1  0.18652650  0.55805550  0.73980100  1
  I  I20  1  0.31347350  0.94194450  0.26019900  1
  I  I21  1  0.62501300  0.68022700  0.06356400  1
  I  I22  1  0.12501300  0.81977300  0.56356400  1
  I  I23  1  0.68652650  0.94194450  0.23980100  1
