# generated using pymatgen
data_Be2P2O7
_symmetry_space_group_name_H-M   'P 1'
_cell_length_a   4.61241600
_cell_length_b   13.22929300
_cell_length_c   15.95900300
_cell_angle_alpha   90.00000000
_cell_angle_beta   90.00000000
_cell_angle_gamma   90.00000000
_symmetry_Int_Tables_number   1
_chemical_formula_structural   Be2P2O7
_chemical_formula_sum   'Be16 P16 O56'
_cell_volume   973.80244718
_cell_formula_units_Z   8
loop_
 _symmetry_equiv_pos_site_id
 _symmetry_equiv_pos_as_xyz
  1  'x, y, z'
loop_
 _atom_site_type_symbol
 _atom_site_label
 _atom_site_symmetry_multiplicity
 _atom_site_fract_x
 _atom_site_fract_y
 _atom_site_fract_z
 _atom_site_occupancy
  Be  Be0  1  0.15455700  0.46647900  0.07273900  1
  Be  Be1  1  0.15455700  0.03352100  0.57273900  1
  Be  Be2  1  0.15455700  0.46647900  0.42726100  1
  Be  Be3  1  0.15455700  0.03352100  0.92726100  1
  Be  Be4  1  0.24514400  0.19628700  0.17630900  1
  Be  Be5  1  0.24514400  0.19628700  0.32369100  1
  Be  Be6  1  0.24514400  0.30371300  0.67630900  1
  Be  Be7  1  0.24514400  0.30371300  0.82369100  1
  Be  Be8  1  0.75485600  0.69628700  0.17630900  1
  Be  Be9  1  0.75485600  0.69628700  0.32369100  1
  Be  Be10  1  0.75485600  0.80371300  0.67630900  1
  Be  Be11  1  0.75485600  0.80371300  0.82369100  1
  Be  Be12  1  0.84544300  0.96647900  0.07273900  1
  Be  Be13  1  0.84544300  0.96647900  0.42726100  1
  Be  Be14  1  0.84544300  0.53352100  0.57273900  1
  Be  Be15  1  0.84544300  0.53352100  0.92726100  1
  P  P16  1  0.03201000  0.99994300  0.25000000  1
  P  P17  1  0.03201000  0.50005700  0.75000000  1
  P  P18  1  0.22070000  0.79258300  0.25000000  1
  P  P19  1  0.22070000  0.70741700  0.75000000  1
  P  P20  1  0.44365100  0.64404400  0.01697900  1
  P  P21  1  0.44365100  0.64404400  0.48302100  1
  P  P22  1  0.44365100  0.85595600  0.51697900  1
  P  P23  1  0.44365100  0.85595600  0.98302100  1
  P  P24  1  0.55634900  0.14404400  0.01697900  1
  P  P25  1  0.55634900  0.14404400  0.48302100  1
  P  P26  1  0.55634900  0.35595600  0.51697900  1
  P  P27  1  0.55634900  0.35595600  0.98302100  1
  P  P28  1  0.77930000  0.29258300  0.25000000  1
  P  P29  1  0.77930000  0.20741700  0.75000000  1
  P  P30  1  0.96799000  0.49994300  0.25000000  1
  P  P31  1  0.96799000  0.00005700  0.75000000  1
  O  O32  1  0.05494500  0.76197200  0.17108800  1
  O  O33  1  0.05494500  0.76197200  0.32891200  1
  O  O34  1  0.05494500  0.73802800  0.67108800  1
  O  O35  1  0.05494500  0.73802800  0.82891200  1
  O  O36  1  0.13184600  0.48720000  0.16897500  1
  O  O37  1  0.13184600  0.48720000  0.33102500  1
  O  O38  1  0.13184600  0.01280000  0.66897500  1
  O  O39  1  0.13184600  0.01280000  0.83102500  1
  O  O40  1  0.19557000  0.93501500  0.98666100  1
  O  O41  1  0.19557000  0.56498500  0.48666100  1
  O  O42  1  0.19557000  0.93501500  0.51333900  1
  O  O43  1  0.19557000  0.56498500  0.01333900  1
  O  O44  1  0.18327000  0.10433500  0.25000000  1
  O  O45  1  0.18327000  0.39566500  0.75000000  1
  O  O46  1  0.27924200  0.58666700  0.75000000  1
  O  O47  1  0.27924200  0.91333300  0.25000000  1
  O  O48  1  0.28519300  0.75000000  0.00000000  1
  O  O49  1  0.28519300  0.75000000  0.50000000  1
  O  O50  1  0.40637000  0.14730300  0.10102100  1
  O  O51  1  0.40637000  0.14730300  0.39897900  1
  O  O52  1  0.40637000  0.35269700  0.60102100  1
  O  O53  1  0.40637000  0.35269700  0.89897900  1
  O  O54  1  0.34524800  0.12812200  0.55524600  1
  O  O55  1  0.34524800  0.37187800  0.05524600  1
  O  O56  1  0.34524800  0.12812200  0.94475400  1
  O  O57  1  0.34524800  0.37187800  0.44475400  1
  O  O58  1  0.53887800  0.75397000  0.25000000  1
  O  O59  1  0.53887800  0.74603000  0.75000000  1
  O  O60  1  0.46112200  0.24603000  0.75000000  1
  O  O61  1  0.46112200  0.25397000  0.25000000  1
  O  O62  1  0.65475200  0.62812200  0.55524600  1
  O  O63  1  0.65475200  0.87187800  0.05524600  1
  O  O64  1  0.65475200  0.62812200  0.94475400  1
  O  O65  1  0.65475200  0.87187800  0.44475400  1
  O  O66  1  0.59363000  0.64730300  0.10102100  1
  O  O67  1  0.59363000  0.64730300  0.39897900  1
  O  O68  1  0.59363000  0.85269700  0.60102100  1
  O  O69  1  0.59363000  0.85269700  0.89897900  1
  O  O70  1  0.71480700  0.25000000  0.00000000  1
  O  O71  1  0.71480700  0.25000000  0.50000000  1
  O  O72  1  0.72075800  0.08666700  0.75000000  1
  O  O73  1  0.72075800  0.41333300  0.25000000  1
  O  O74  1  0.81673000  0.60433500  0.25000000  1
  O  O75  1  0.81673000  0.89566500  0.75000000  1
  O  O76  1  0.80443000  0.43501500  0.98666100  1
  O  O77  1  0.80443000  0.06498500  0.48666100  1
  O  O78  1  0.80443000  0.06498500  0.01333900  1
  O  O79  1  0.80443000  0.43501500  0.51333900  1
  O  O80  1  0.86815400  0.98720000  0.16897500  1
  O  O81  1  0.86815400  0.98720000  0.33102500  1
  O  O82  1  0.86815400  0.51280000  0.66897500  1
  O  O83  1  0.86815400  0.51280000  0.83102500  1
  O  O84  1  0.94505500  0.26197200  0.17108800  1
  O  O85  1  0.94505500  0.26197200  0.32891200  1
  O  O86  1  0.94505500  0.23802800  0.67108800  1
  O  O87  1  0.94505500  0.23802800  0.82891200  1
