# generated using pymatgen
data_Li5Cu(PO4)2
_symmetry_space_group_name_H-M   'P 1'
_cell_length_a   5.38363100
_cell_length_b   6.15457600
_cell_length_c   9.98142734
_cell_angle_alpha   90.00000000
_cell_angle_beta   90.10367451
_cell_angle_gamma   90.00000000
_symmetry_Int_Tables_number   1
_chemical_formula_structural   Li5Cu(PO4)2
_chemical_formula_sum   'Li10 Cu2 P4 O16'
_cell_volume   330.72373416
_cell_formula_units_Z   2
loop_
 _symmetry_equiv_pos_site_id
 _symmetry_equiv_pos_as_xyz
  1  'x, y, z'
loop_
 _atom_site_type_symbol
 _atom_site_label
 _atom_site_symmetry_multiplicity
 _atom_site_fract_x
 _atom_site_fract_y
 _atom_site_fract_z
 _atom_site_occupancy
  Li  Li0  1  0.15273900  0.00000000  0.25735900  1
  Li  Li1  1  0.15326900  0.00000000  0.75276600  1
  Li  Li2  1  0.32605300  0.24528700  0.50481200  1
  Li  Li3  1  0.67564300  0.25159300  0.75209800  1
  Li  Li4  1  0.67158500  0.25430000  0.25720500  1
  Li  Li5  1  0.84884400  0.50000000  0.00253700  1
  Li  Li6  1  0.84234600  0.50000000  0.50428900  1
  Li  Li7  1  0.67158500  0.74570000  0.25720500  1
  Li  Li8  1  0.67564300  0.74840700  0.75209800  1
  Li  Li9  1  0.32605300  0.75471300  0.50481200  1
  Cu  Cu10  1  0.34057300  0.24592400  0.99480500  1
  Cu  Cu11  1  0.34057300  0.75407600  0.99480500  1
  P  P12  1  0.82549300  0.00000000  0.00330700  1
  P  P13  1  0.82374900  0.00000000  0.50085200  1
  P  P14  1  0.17194800  0.50000000  0.74232000  1
  P  P15  1  0.16961100  0.50000000  0.25819600  1
  O  O16  1  0.81723400  0.00000000  0.34487900  1
  O  O17  1  0.09867400  0.00000000  0.55088400  1
  O  O18  1  0.82519200  0.00000000  0.84766100  1
  O  O19  1  0.09485700  0.00000000  0.06122700  1
  O  O20  1  0.68711400  0.20706000  0.55369400  1
  O  O21  1  0.69747300  0.21019000  0.05810100  1
  O  O22  1  0.31416000  0.29118300  0.78909500  1
  O  O23  1  0.31005600  0.29289100  0.30773700  1
  O  O24  1  0.16086700  0.50000000  0.10173100  1
  O  O25  1  0.89612000  0.50000000  0.30967500  1
  O  O26  1  0.17168000  0.50000000  0.58682100  1
  O  O27  1  0.90206100  0.50000000  0.79781300  1
  O  O28  1  0.31005600  0.70710900  0.30773700  1
  O  O29  1  0.31416000  0.70881700  0.78909500  1
  O  O30  1  0.68711400  0.79294000  0.55369400  1
  O  O31  1  0.69747300  0.78981000  0.05810100  1
