# generated using pymatgen
data_Li2V3O6
_symmetry_space_group_name_H-M   'P 1'
_cell_length_a   5.13603471
_cell_length_b   8.97148123
_cell_length_c   5.20313147
_cell_angle_alpha   90.00000000
_cell_angle_beta   107.83588621
_cell_angle_gamma   90.00000000
_symmetry_Int_Tables_number   1
_chemical_formula_structural   Li2V3O6
_chemical_formula_sum   'Li4 V6 O12'
_cell_volume   228.22617241
_cell_formula_units_Z   2
loop_
 _symmetry_equiv_pos_site_id
 _symmetry_equiv_pos_as_xyz
  1  'x, y, z'
loop_
 _atom_site_type_symbol
 _atom_site_label
 _atom_site_symmetry_multiplicity
 _atom_site_fract_x
 _atom_site_fract_y
 _atom_site_fract_z
 _atom_site_occupancy
  Li  Li0  1  0.50000000  0.83174400  0.00000000  1
  Li  Li1  1  0.00000000  0.66825600  0.00000000  1
  Li  Li2  1  0.00000000  0.33174400  0.00000000  1
  Li  Li3  1  0.50000000  0.16825600  0.00000000  1
  V  V4  1  0.50000000  0.00000000  0.50000000  1
  V  V5  1  0.50000000  0.66665950  0.50000000  1
  V  V6  1  0.00000000  0.83334050  0.50000000  1
  V  V7  1  0.00000000  0.50000000  0.50000000  1
  V  V8  1  0.00000000  0.16665950  0.50000000  1
  V  V9  1  0.50000000  0.33334050  0.50000000  1
  O  O10  1  0.25818950  0.00000000  0.71405250  1
  O  O11  1  0.24181050  0.50000000  0.28594750  1
  O  O12  1  0.72598250  0.83186600  0.71936600  1
  O  O13  1  0.22598250  0.66813400  0.71936600  1
  O  O14  1  0.27401750  0.83186600  0.28063400  1
  O  O15  1  0.77401750  0.66813400  0.28063400  1
  O  O16  1  0.75818950  0.50000000  0.71405250  1
  O  O17  1  0.74181050  0.00000000  0.28594750  1
  O  O18  1  0.22598250  0.33186600  0.71936600  1
  O  O19  1  0.72598250  0.16813400  0.71936600  1
  O  O20  1  0.77401750  0.33186600  0.28063400  1
  O  O21  1  0.27401750  0.16813400  0.28063400  1
