# generated using pymatgen
data_NiSn2H12(OF)6
_symmetry_space_group_name_H-M   'P 1'
_cell_length_a   6.87054121
_cell_length_b   7.02641540
_cell_length_c   7.06632976
_cell_angle_alpha   76.83825796
_cell_angle_beta   72.49004595
_cell_angle_gamma   77.86694968
_symmetry_Int_Tables_number   1
_chemical_formula_structural   NiSn2H12(OF)6
_chemical_formula_sum   'Ni1 Sn2 H12 O6 F6'
_cell_volume   313.06848630
_cell_formula_units_Z   1
loop_
 _symmetry_equiv_pos_site_id
 _symmetry_equiv_pos_as_xyz
  1  'x, y, z'
loop_
 _atom_site_type_symbol
 _atom_site_label
 _atom_site_symmetry_multiplicity
 _atom_site_fract_x
 _atom_site_fract_y
 _atom_site_fract_z
 _atom_site_occupancy
  Ni  Ni0  1  0.00000000  0.00000000  0.00000000  1
  Sn  Sn1  1  0.66731300  0.63998425  0.67187050  1
  Sn  Sn2  1  0.33268700  0.36001575  0.32812950  1
  H  H3  1  0.90261750  0.25502425  0.25474550  1
  H  H4  1  0.09738250  0.74497575  0.74525450  1
  H  H5  1  0.74055200  0.73919050  0.08314600  1
  H  H6  1  0.25944800  0.26080950  0.91685400  1
  H  H7  1  0.75871850  0.05881850  0.74826700  1
  H  H8  1  0.24128150  0.94118150  0.25173300  1
  H  H9  1  0.78904975  0.06878275  0.36255050  1
  H  H10  1  0.21095025  0.93121725  0.63744950  1
  H  H11  1  0.91827375  0.64461325  0.19337250  1
  H  H12  1  0.08172625  0.35538675  0.80662750  1
  H  H13  1  0.64838525  0.18682375  0.92165050  1
  H  H14  1  0.35161475  0.81317625  0.07834950  1
  O  O15  1  0.82775800  0.15979125  0.23159650  1
  O  O16  1  0.17224200  0.84020875  0.76840350  1
  O  O17  1  0.83211625  0.77099275  0.15295350  1
  O  O18  1  0.16788375  0.22900725  0.84704650  1
  O  O19  1  0.78512575  0.13471025  0.83828050  1
  O  O20  1  0.21487425  0.86528975  0.16171950  1
  F  F21  1  0.71642575  0.93763900  0.59174700  1
  F  F22  1  0.28357425  0.06236100  0.40825300  1
  F  F23  1  0.57814025  0.69305850  0.97176100  1
  F  F24  1  0.42185975  0.30694150  0.02823900  1
  F  F25  1  0.97010925  0.57510400  0.71098000  1
  F  F26  1  0.02989075  0.42489600  0.28902000  1
