# generated using pymatgen
data_Hg(TeO3)2
_symmetry_space_group_name_H-M   'P 1'
_cell_length_a   6.57290700
_cell_length_b   12.80491700
_cell_length_c   8.67069507
_cell_angle_alpha   90.00000000
_cell_angle_beta   119.54332672
_cell_angle_gamma   90.00000000
_symmetry_Int_Tables_number   1
_chemical_formula_structural   Hg(TeO3)2
_chemical_formula_sum   'Hg4 Te8 O24'
_cell_volume   634.89071337
_cell_formula_units_Z   4
loop_
 _symmetry_equiv_pos_site_id
 _symmetry_equiv_pos_as_xyz
  1  'x, y, z'
loop_
 _atom_site_type_symbol
 _atom_site_label
 _atom_site_symmetry_multiplicity
 _atom_site_fract_x
 _atom_site_fract_y
 _atom_site_fract_z
 _atom_site_occupancy
  Hg  Hg0  1  0.32539100  0.09247200  0.24628300  1
  Hg  Hg1  1  0.67460900  0.59247200  0.25371700  1
  Hg  Hg2  1  0.32539100  0.40752800  0.74628300  1
  Hg  Hg3  1  0.67460900  0.90752800  0.75371700  1
  Te  Te4  1  0.66056600  0.87978000  0.33571200  1
  Te  Te5  1  0.33943400  0.37978000  0.16428800  1
  Te  Te6  1  0.12622500  0.79402100  0.21899500  1
  Te  Te7  1  0.87377500  0.29402100  0.28100500  1
  Te  Te8  1  0.12622500  0.70597900  0.71899500  1
  Te  Te9  1  0.87377500  0.20597900  0.78100500  1
  Te  Te10  1  0.66056600  0.62022000  0.83571200  1
  Te  Te11  1  0.33943400  0.12022000  0.66428800  1
  O  O12  1  0.36875500  0.90508700  0.35839100  1
  O  O13  1  0.36368600  0.51609200  0.24833900  1
  O  O14  1  0.17265700  0.14991900  0.41967100  1
  O  O15  1  0.51297300  0.26697900  0.30981500  1
  O  O16  1  0.48702700  0.76697900  0.19018500  1
  O  O17  1  0.99925500  0.37260000  0.48669100  1
  O  O18  1  0.63631400  0.01609200  0.25166100  1
  O  O19  1  0.94579600  0.85182300  0.32722400  1
  O  O20  1  0.05420400  0.35182300  0.17277600  1
  O  O21  1  0.36875500  0.59491300  0.85839100  1
  O  O22  1  0.00074500  0.87260000  0.01330900  1
  O  O23  1  0.17265700  0.35008100  0.91967100  1
  O  O24  1  0.82734300  0.64991900  0.08032900  1
  O  O25  1  0.99925500  0.12740000  0.98669100  1
  O  O26  1  0.63124500  0.40508700  0.14160900  1
  O  O27  1  0.94579600  0.64817700  0.82722400  1
  O  O28  1  0.05420400  0.14817700  0.67277600  1
  O  O29  1  0.36368600  0.98390800  0.74833900  1
  O  O30  1  0.00074500  0.62740000  0.51330900  1
  O  O31  1  0.51297300  0.23302100  0.80981500  1
  O  O32  1  0.48702700  0.73302100  0.69018500  1
  O  O33  1  0.82734300  0.85008100  0.58032900  1
  O  O34  1  0.63631400  0.48390800  0.75166100  1
  O  O35  1  0.63124500  0.09491300  0.64160900  1
