# generated using pymatgen
data_Co2OF3
_symmetry_space_group_name_H-M   'P 1'
_cell_length_a   6.43930000
_cell_length_b   6.83238800
_cell_length_c   12.68742800
_cell_angle_alpha   90.00000000
_cell_angle_beta   90.00000000
_cell_angle_gamma   90.00000000
_symmetry_Int_Tables_number   1
_chemical_formula_structural   Co2OF3
_chemical_formula_sum   'Co16 O8 F24'
_cell_volume   558.19349467
_cell_formula_units_Z   8
loop_
 _symmetry_equiv_pos_site_id
 _symmetry_equiv_pos_as_xyz
  1  'x, y, z'
loop_
 _atom_site_type_symbol
 _atom_site_label
 _atom_site_symmetry_multiplicity
 _atom_site_fract_x
 _atom_site_fract_y
 _atom_site_fract_z
 _atom_site_occupancy
  Co  Co0  1  0.97503400  0.00000000  0.62451500  1
  Co  Co1  1  0.97503400  0.00000000  0.87548500  1
  Co  Co2  1  0.02496600  0.00000000  0.12451500  1
  Co  Co3  1  0.02496600  0.00000000  0.37548500  1
  Co  Co4  1  0.52018100  0.00000000  0.75000000  1
  Co  Co5  1  0.47981900  0.00000000  0.25000000  1
  Co  Co6  1  0.50000000  0.00000000  0.00000000  1
  Co  Co7  1  0.50000000  0.00000000  0.50000000  1
  Co  Co8  1  0.47503400  0.50000000  0.62451500  1
  Co  Co9  1  0.47503400  0.50000000  0.87548500  1
  Co  Co10  1  0.52496600  0.50000000  0.12451500  1
  Co  Co11  1  0.52496600  0.50000000  0.37548500  1
  Co  Co12  1  0.02018100  0.50000000  0.75000000  1
  Co  Co13  1  0.97981900  0.50000000  0.25000000  1
  Co  Co14  1  0.00000000  0.50000000  0.00000000  1
  Co  Co15  1  0.00000000  0.50000000  0.50000000  1
  O  O16  1  0.30151500  0.00000000  0.37756800  1
  O  O17  1  0.30151500  0.00000000  0.12243200  1
  O  O18  1  0.69848500  0.00000000  0.62243200  1
  O  O19  1  0.69848500  0.00000000  0.87756800  1
  O  O20  1  0.80151500  0.50000000  0.37756800  1
  O  O21  1  0.80151500  0.50000000  0.12243200  1
  O  O22  1  0.19848500  0.50000000  0.62243200  1
  O  O23  1  0.19848500  0.50000000  0.87756800  1
  F  F24  1  0.49512850  0.30485150  0.75000000  1
  F  F25  1  0.50487150  0.30485150  0.25000000  1
  F  F26  1  0.50000000  0.30495600  0.00000000  1
  F  F27  1  0.50000000  0.30495600  0.50000000  1
  F  F28  1  0.28727300  0.00000000  0.62585000  1
  F  F29  1  0.28727300  0.00000000  0.87415000  1
  F  F30  1  0.71272700  0.00000000  0.12585000  1
  F  F31  1  0.71272700  0.00000000  0.37415000  1
  F  F32  1  0.49512850  0.69514850  0.75000000  1
  F  F33  1  0.50487150  0.69514850  0.25000000  1
  F  F34  1  0.50000000  0.69504400  0.00000000  1
  F  F35  1  0.50000000  0.69504400  0.50000000  1
  F  F36  1  0.99512850  0.80485150  0.75000000  1
  F  F37  1  0.00487150  0.80485150  0.25000000  1
  F  F38  1  0.00000000  0.80495600  0.00000000  1
  F  F39  1  0.00000000  0.80495600  0.50000000  1
  F  F40  1  0.78727300  0.50000000  0.62585000  1
  F  F41  1  0.78727300  0.50000000  0.87415000  1
  F  F42  1  0.21272700  0.50000000  0.12585000  1
  F  F43  1  0.21272700  0.50000000  0.37415000  1
  F  F44  1  0.99512850  0.19514850  0.75000000  1
  F  F45  1  0.00487150  0.19514850  0.25000000  1
  F  F46  1  0.00000000  0.19504400  0.00000000  1
  F  F47  1  0.00000000  0.19504400  0.50000000  1
