# generated using pymatgen
data_Li3Cr(CoO3)2
_symmetry_space_group_name_H-M   'P 1'
_cell_length_a   12.70813507
_cell_length_b   2.98655804
_cell_length_c   5.95383600
_cell_angle_alpha   90.00000000
_cell_angle_beta   104.38761887
_cell_angle_gamma   90.00000000
_symmetry_Int_Tables_number   1
_chemical_formula_structural   Li3Cr(CoO3)2
_chemical_formula_sum   'Li6 Cr2 Co4 O12'
_cell_volume   218.88230268
_cell_formula_units_Z   2
loop_
 _symmetry_equiv_pos_site_id
 _symmetry_equiv_pos_as_xyz
  1  'x, y, z'
loop_
 _atom_site_type_symbol
 _atom_site_label
 _atom_site_symmetry_multiplicity
 _atom_site_fract_x
 _atom_site_fract_y
 _atom_site_fract_z
 _atom_site_occupancy
  Li  Li0  1  0.00000000  0.50000000  0.50000000  1
  Li  Li1  1  0.67094575  0.50000000  0.83483650  1
  Li  Li2  1  0.82905425  0.00000000  0.16516350  1
  Li  Li3  1  0.50000000  0.00000000  0.50000000  1
  Li  Li4  1  0.17094575  0.00000000  0.83483650  1
  Li  Li5  1  0.32905425  0.50000000  0.16516350  1
  Cr  Cr6  1  0.00000000  0.50000000  0.00000000  1
  Cr  Cr7  1  0.50000000  0.00000000  0.00000000  1
  Co  Co8  1  0.66997750  0.50000000  0.32953600  1
  Co  Co9  1  0.83002250  0.00000000  0.67046400  1
  Co  Co10  1  0.16997750  0.00000000  0.32953600  1
  Co  Co11  1  0.33002250  0.50000000  0.67046400  1
  O  O12  1  0.16275500  0.50000000  0.09037000  1
  O  O13  1  0.83724500  0.50000000  0.90963000  1
  O  O14  1  0.99062150  0.00000000  0.76187700  1
  O  O15  1  0.00937850  0.00000000  0.23812300  1
  O  O16  1  0.82632850  0.50000000  0.42552100  1
  O  O17  1  0.67367150  0.00000000  0.57447900  1
  O  O18  1  0.66275500  0.00000000  0.09037000  1
  O  O19  1  0.33724500  0.00000000  0.90963000  1
  O  O20  1  0.49062150  0.50000000  0.76187700  1
  O  O21  1  0.50937850  0.50000000  0.23812300  1
  O  O22  1  0.32632850  0.00000000  0.42552100  1
  O  O23  1  0.17367150  0.50000000  0.57447900  1
