# generated using pymatgen
data_LiVP2HO8
_symmetry_space_group_name_H-M   'P 1'
_cell_length_a   7.75006600
_cell_length_b   7.99837900
_cell_length_c   9.71853321
_cell_angle_alpha   90.00000000
_cell_angle_beta   111.65409269
_cell_angle_gamma   90.00000000
_symmetry_Int_Tables_number   1
_chemical_formula_structural   LiVP2HO8
_chemical_formula_sum   'Li4 V4 P8 H4 O32'
_cell_volume   559.91757696
_cell_formula_units_Z   4
loop_
 _symmetry_equiv_pos_site_id
 _symmetry_equiv_pos_as_xyz
  1  'x, y, z'
loop_
 _atom_site_type_symbol
 _atom_site_label
 _atom_site_symmetry_multiplicity
 _atom_site_fract_x
 _atom_site_fract_y
 _atom_site_fract_z
 _atom_site_occupancy
  Li  Li0  1  0.10256800  0.13172300  0.22047000  1
  Li  Li1  1  0.60202200  0.37031600  0.22540800  1
  Li  Li2  1  0.89743200  0.63172300  0.77953000  1
  Li  Li3  1  0.39797800  0.87031600  0.77459200  1
  V  V4  1  0.24253000  0.51000700  0.25095700  1
  V  V5  1  0.74850100  0.99080100  0.25277000  1
  V  V6  1  0.25149900  0.49080100  0.74723000  1
  V  V7  1  0.75747000  0.01000700  0.74904300  1
  P  P8  1  0.01896500  0.85082900  0.06697900  1
  P  P9  1  0.51374400  0.65395300  0.06639900  1
  P  P10  1  0.98275500  0.34646200  0.43197200  1
  P  P11  1  0.01724500  0.84646200  0.56802800  1
  P  P12  1  0.48843200  0.15587800  0.43310300  1
  P  P13  1  0.51156800  0.65587800  0.56689700  1
  P  P14  1  0.98103500  0.35082900  0.93302100  1
  P  P15  1  0.48625600  0.15395300  0.93360100  1
  H  H16  1  0.74171600  0.50773800  0.00843800  1
  H  H17  1  0.74039400  0.50647500  0.50878000  1
  H  H18  1  0.25960600  0.00647500  0.49122000  1
  H  H19  1  0.25828400  0.00773800  0.99156200  1
  O  O20  1  0.18968200  0.95900700  0.09278900  1
  O  O21  1  0.10747500  0.33076000  0.09886300  1
  O  O22  1  0.06736500  0.67557400  0.13565900  1
  O  O23  1  0.90283800  0.94821700  0.14492000  1
  O  O24  1  0.68898300  0.54494400  0.09450600  1
  O  O25  1  0.60678800  0.17242500  0.09963500  1
  O  O26  1  0.56732700  0.82669500  0.13715100  1
  O  O27  1  0.40341800  0.55257500  0.14482500  1
  O  O28  1  0.10087700  0.44712200  0.35658800  1
  O  O29  1  0.94047800  0.17625000  0.35046700  1
  O  O30  1  0.88977500  0.82899100  0.40378600  1
  O  O31  1  0.80138300  0.43748100  0.40862000  1
  O  O32  1  0.60349500  0.05479600  0.35817800  1
  O  O33  1  0.43808300  0.32387400  0.35035100  1
  O  O34  1  0.19861700  0.93748100  0.59138000  1
  O  O35  1  0.11022500  0.32899100  0.59621400  1
  O  O36  1  0.39143900  0.67212200  0.40226600  1
  O  O37  1  0.30286600  0.06283600  0.40622400  1
  O  O38  1  0.05952200  0.67625000  0.64953300  1
  O  O39  1  0.89912300  0.94712200  0.64341200  1
  O  O40  1  0.69713400  0.56283600  0.59377600  1
  O  O41  1  0.60856100  0.17212200  0.59773400  1
  O  O42  1  0.56191700  0.82387400  0.64964900  1
  O  O43  1  0.39650500  0.55479600  0.64182200  1
  O  O44  1  0.09716200  0.44821700  0.85508000  1
  O  O45  1  0.93263500  0.17557400  0.86434100  1
  O  O46  1  0.89252500  0.83076000  0.90113700  1
  O  O47  1  0.81031800  0.45900700  0.90721100  1
  O  O48  1  0.59658200  0.05257500  0.85517500  1
  O  O49  1  0.43267300  0.32669500  0.86284900  1
  O  O50  1  0.39321200  0.67242500  0.90036500  1
  O  O51  1  0.31101700  0.04494400  0.90549400  1
