# generated using pymatgen
data_Tm2WO6
_symmetry_space_group_name_H-M   'P 1'
_cell_length_a   5.21930500
_cell_length_b   9.04790800
_cell_length_c   9.89000400
_cell_angle_alpha   90.00000000
_cell_angle_beta   90.00000000
_cell_angle_gamma   90.00000000
_symmetry_Int_Tables_number   1
_chemical_formula_structural   Tm2WO6
_chemical_formula_sum   'Tm8 W4 O24'
_cell_volume   467.04348647
_cell_formula_units_Z   4
loop_
 _symmetry_equiv_pos_site_id
 _symmetry_equiv_pos_as_xyz
  1  'x, y, z'
loop_
 _atom_site_type_symbol
 _atom_site_label
 _atom_site_symmetry_multiplicity
 _atom_site_fract_x
 _atom_site_fract_y
 _atom_site_fract_z
 _atom_site_occupancy
  Tm  Tm0  1  0.01880600  0.39705100  0.03457600  1
  Tm  Tm1  1  0.03916600  0.28054600  0.62789800  1
  Tm  Tm2  1  0.46083400  0.71945400  0.12789800  1
  Tm  Tm3  1  0.48119400  0.60294900  0.53457600  1
  Tm  Tm4  1  0.51880600  0.10294900  0.96542400  1
  Tm  Tm5  1  0.53916600  0.21945400  0.37210200  1
  Tm  Tm6  1  0.96083400  0.78054600  0.87210200  1
  Tm  Tm7  1  0.98119400  0.89705100  0.46542400  1
  W  W8  1  0.03890500  0.00524100  0.15265100  1
  W  W9  1  0.46109500  0.99475900  0.65265100  1
  W  W10  1  0.53890500  0.49475900  0.84734900  1
  W  W11  1  0.96109500  0.50524100  0.34734900  1
  O  O12  1  0.08898900  0.65888800  0.47018800  1
  O  O13  1  0.17823900  0.54693100  0.19910700  1
  O  O14  1  0.17621400  0.86044200  0.68143000  1
  O  O15  1  0.19516200  0.85794400  0.26555900  1
  O  O16  1  0.23461500  0.38430800  0.43301300  1
  O  O17  1  0.25057100  0.08997400  0.50441200  1
  O  O18  1  0.24942900  0.91002600  0.00441200  1
  O  O19  1  0.26538500  0.61569200  0.93301300  1
  O  O20  1  0.30483800  0.14205600  0.76555900  1
  O  O21  1  0.32378600  0.13955800  0.18143000  1
  O  O22  1  0.32176100  0.45306900  0.69910700  1
  O  O23  1  0.41101100  0.34111200  0.97018800  1
  O  O24  1  0.58898900  0.84111200  0.52981200  1
  O  O25  1  0.67823900  0.95306900  0.80089300  1
  O  O26  1  0.67621400  0.63955800  0.31857000  1
  O  O27  1  0.69516200  0.64205600  0.73444100  1
  O  O28  1  0.73461500  0.11569200  0.56698700  1
  O  O29  1  0.75057100  0.41002600  0.49558800  1
  O  O30  1  0.74942900  0.58997400  0.99558800  1
  O  O31  1  0.76538500  0.88430800  0.06698700  1
  O  O32  1  0.80483800  0.35794400  0.23444100  1
  O  O33  1  0.82378600  0.36044200  0.81857000  1
  O  O34  1  0.82176100  0.04693100  0.30089300  1
  O  O35  1  0.91101100  0.15888800  0.02981200  1
