# generated using pymatgen
data_YBiO3
_symmetry_space_group_name_H-M   'P 1'
_cell_length_a   6.02665835
_cell_length_b   6.02665835
_cell_length_c   15.27086697
_cell_angle_alpha   90.00000000
_cell_angle_beta   90.00000000
_cell_angle_gamma   120.00000000
_symmetry_Int_Tables_number   1
_chemical_formula_structural   YBiO3
_chemical_formula_sum   'Y6 Bi6 O18'
_cell_volume   480.33857969
_cell_formula_units_Z   6
loop_
 _symmetry_equiv_pos_site_id
 _symmetry_equiv_pos_as_xyz
  1  'x, y, z'
loop_
 _atom_site_type_symbol
 _atom_site_label
 _atom_site_symmetry_multiplicity
 _atom_site_fract_x
 _atom_site_fract_y
 _atom_site_fract_z
 _atom_site_occupancy
  Y  Y0  1  0.00000000  0.00000000  0.22345600  1
  Y  Y1  1  0.66666667  0.33333333  0.05678933  1
  Y  Y2  1  0.66666667  0.33333333  0.55678933  1
  Y  Y3  1  0.33333333  0.66666667  0.39012267  1
  Y  Y4  1  0.33333333  0.66666667  0.89012267  1
  Y  Y5  1  0.00000000  0.00000000  0.72345600  1
  Bi  Bi6  1  0.00000000  0.00000000  0.00976800  1
  Bi  Bi7  1  0.33333333  0.66666667  0.17643467  1
  Bi  Bi8  1  0.66666667  0.33333333  0.34310133  1
  Bi  Bi9  1  0.00000000  0.00000000  0.50976800  1
  Bi  Bi10  1  0.33333333  0.66666667  0.67643467  1
  Bi  Bi11  1  0.66666667  0.33333333  0.84310133  1
  O  O12  1  0.29425867  0.03133333  0.11506233  1
  O  O13  1  0.07040800  0.69800000  0.28172900  1
  O  O14  1  0.62759200  0.92959200  0.28172900  1
  O  O15  1  0.73707467  0.70574133  0.11506233  1
  O  O16  1  0.96866667  0.26292533  0.11506233  1
  O  O17  1  0.30200000  0.37240800  0.28172900  1
  O  O18  1  0.96092533  0.36466667  0.44839567  1
  O  O19  1  0.73707467  0.03133333  0.61506233  1
  O  O20  1  0.29425867  0.26292533  0.61506233  1
  O  O21  1  0.40374133  0.03907467  0.44839567  1
  O  O22  1  0.63533333  0.59625867  0.44839567  1
  O  O23  1  0.96866667  0.70574133  0.61506233  1
  O  O24  1  0.62759200  0.69800000  0.78172900  1
  O  O25  1  0.40374133  0.36466667  0.94839567  1
  O  O26  1  0.96092533  0.59625867  0.94839567  1
  O  O27  1  0.07040800  0.37240800  0.78172900  1
  O  O28  1  0.30200000  0.92959200  0.78172900  1
  O  O29  1  0.63533333  0.03907467  0.94839567  1
