# generated using pymatgen
data_Na6MgO4
_symmetry_space_group_name_H-M   'P 1'
_cell_length_a   7.49596800
_cell_length_b   7.49596800
_cell_length_c   5.50849100
_cell_angle_alpha   90.00000000
_cell_angle_beta   90.00000000
_cell_angle_gamma   90.00000000
_symmetry_Int_Tables_number   1
_chemical_formula_structural   Na6MgO4
_chemical_formula_sum   'Na12 Mg2 O8'
_cell_volume   309.51955477
_cell_formula_units_Z   2
loop_
 _symmetry_equiv_pos_site_id
 _symmetry_equiv_pos_as_xyz
  1  'x, y, z'
loop_
 _atom_site_type_symbol
 _atom_site_label
 _atom_site_symmetry_multiplicity
 _atom_site_fract_x
 _atom_site_fract_y
 _atom_site_fract_z
 _atom_site_occupancy
  Na  Na0  1  0.28732300  0.28732300  0.50000000  1
  Na  Na1  1  0.28732300  0.71267700  0.50000000  1
  Na  Na2  1  0.50000000  0.00000000  0.42144600  1
  Na  Na3  1  0.50000000  0.00000000  0.92144600  1
  Na  Na4  1  0.71267700  0.28732300  0.50000000  1
  Na  Na5  1  0.71267700  0.71267700  0.50000000  1
  Na  Na6  1  0.78732300  0.78732300  0.00000000  1
  Na  Na7  1  0.78732300  0.21267700  0.00000000  1
  Na  Na8  1  0.00000000  0.50000000  0.07855400  1
  Na  Na9  1  0.00000000  0.50000000  0.57855400  1
  Na  Na10  1  0.21267700  0.78732300  0.00000000  1
  Na  Na11  1  0.21267700  0.21267700  0.00000000  1
  Mg  Mg12  1  0.50000000  0.50000000  0.00000000  1
  Mg  Mg13  1  0.00000000  0.00000000  0.50000000  1
  O  O14  1  0.24095400  0.00000000  0.68436900  1
  O  O15  1  0.50000000  0.74095400  0.18436900  1
  O  O16  1  0.50000000  0.25904600  0.18436900  1
  O  O17  1  0.75904600  0.00000000  0.68436900  1
  O  O18  1  0.74095400  0.50000000  0.81563100  1
  O  O19  1  0.00000000  0.75904600  0.31563100  1
  O  O20  1  0.00000000  0.24095400  0.31563100  1
  O  O21  1  0.25904600  0.50000000  0.81563100  1
