# generated using pymatgen
data_Sc2O3
_symmetry_space_group_name_H-M   'P 1'
_cell_length_a   5.37073583
_cell_length_b   5.37073583
_cell_length_c   14.38542427
_cell_angle_alpha   90.00000000
_cell_angle_beta   90.00000000
_cell_angle_gamma   120.00000000
_symmetry_Int_Tables_number   1
_chemical_formula_structural   Sc2O3
_chemical_formula_sum   'Sc12 O18'
_cell_volume   359.35268056
_cell_formula_units_Z   6
loop_
 _symmetry_equiv_pos_site_id
 _symmetry_equiv_pos_as_xyz
  1  'x, y, z'
loop_
 _atom_site_type_symbol
 _atom_site_label
 _atom_site_symmetry_multiplicity
 _atom_site_fract_x
 _atom_site_fract_y
 _atom_site_fract_z
 _atom_site_occupancy
  Sc  Sc0  1  0.33333333  0.66666667  0.31095867  1
  Sc  Sc1  1  0.66666667  0.33333333  0.18904133  1
  Sc  Sc2  1  0.00000000  0.00000000  0.14429200  1
  Sc  Sc3  1  0.33333333  0.66666667  0.02237467  1
  Sc  Sc4  1  0.00000000  0.00000000  0.64429200  1
  Sc  Sc5  1  0.33333333  0.66666667  0.52237467  1
  Sc  Sc6  1  0.66666667  0.33333333  0.47762533  1
  Sc  Sc7  1  0.00000000  0.00000000  0.35570800  1
  Sc  Sc8  1  0.66666667  0.33333333  0.97762533  1
  Sc  Sc9  1  0.00000000  0.00000000  0.85570800  1
  Sc  Sc10  1  0.33333333  0.66666667  0.81095867  1
  Sc  Sc11  1  0.66666667  0.33333333  0.68904133  1
  O  O12  1  0.36675467  0.03342133  0.08333333  1
  O  O13  1  0.70008800  1.00000000  0.25000000  1
  O  O14  1  0.00000000  0.70008800  0.25000000  1
  O  O15  1  0.66666667  0.63324533  0.08333333  1
  O  O16  1  0.96657867  0.33333333  0.08333333  1
  O  O17  1  0.29991200  0.29991200  0.25000000  1
  O  O18  1  0.03342133  0.36675467  0.41666667  1
  O  O19  1  0.36675467  0.33333333  0.58333333  1
  O  O20  1  0.66666667  0.03342133  0.58333333  1
  O  O21  1  0.33333333  0.96657867  0.41666667  1
  O  O22  1  0.63324533  0.66666667  0.41666667  1
  O  O23  1  0.96657867  0.63324533  0.58333333  1
  O  O24  1  0.70008800  0.70008800  0.75000000  1
  O  O25  1  0.03342133  0.66666667  0.91666667  1
  O  O26  1  0.33333333  0.36675467  0.91666667  1
  O  O27  1  0.00000000  0.29991200  0.75000000  1
  O  O28  1  0.29991200  0.00000000  0.75000000  1
  O  O29  1  0.63324533  0.96657867  0.91666667  1
