# generated using pymatgen
data_Na5Fe11O16
_symmetry_space_group_name_H-M   'P 1'
_cell_length_a   10.74615600
_cell_length_b   6.19593400
_cell_length_c   10.95614053
_cell_angle_alpha   90.00000000
_cell_angle_beta   108.27414967
_cell_angle_gamma   90.00000000
_symmetry_Int_Tables_number   1
_chemical_formula_structural   Na5Fe11O16
_chemical_formula_sum   'Na10 Fe22 O32'
_cell_volume   692.69675371
_cell_formula_units_Z   2
loop_
 _symmetry_equiv_pos_site_id
 _symmetry_equiv_pos_as_xyz
  1  'x, y, z'
loop_
 _atom_site_type_symbol
 _atom_site_label
 _atom_site_symmetry_multiplicity
 _atom_site_fract_x
 _atom_site_fract_y
 _atom_site_fract_z
 _atom_site_occupancy
  Na  Na0  1  0.56369700  0.75174900  0.94027800  1
  Na  Na1  1  0.56369700  0.24825100  0.94027800  1
  Na  Na2  1  0.56304250  0.75137050  0.43363800  1
  Na  Na3  1  0.81187700  0.00000000  0.93635300  1
  Na  Na4  1  0.56304250  0.24862950  0.43363800  1
  Na  Na5  1  0.06369700  0.25174900  0.94027800  1
  Na  Na6  1  0.06369700  0.74825100  0.94027800  1
  Na  Na7  1  0.06304250  0.25137050  0.43363800  1
  Na  Na8  1  0.31187700  0.50000000  0.93635300  1
  Na  Na9  1  0.06304250  0.74862950  0.43363800  1
  Fe  Fe10  1  0.56392600  0.50000000  0.68492800  1
  Fe  Fe11  1  0.81597900  0.50000000  0.94187700  1
  Fe  Fe12  1  0.81212300  0.24722000  0.18590900  1
  Fe  Fe13  1  0.81474700  0.75166700  0.68613000  1
  Fe  Fe14  1  0.81474700  0.24833300  0.68613000  1
  Fe  Fe15  1  0.81167800  0.00000000  0.43268500  1
  Fe  Fe16  1  0.56462000  0.00000000  0.68651000  1
  Fe  Fe17  1  0.56100100  0.50000000  0.18538200  1
  Fe  Fe18  1  0.56259500  0.00000000  0.18986700  1
  Fe  Fe19  1  0.81373600  0.50000000  0.43300500  1
  Fe  Fe20  1  0.81212300  0.75278000  0.18590900  1
  Fe  Fe21  1  0.06392600  0.00000000  0.68492800  1
  Fe  Fe22  1  0.31597900  0.00000000  0.94187700  1
  Fe  Fe23  1  0.31212300  0.74722000  0.18590900  1
  Fe  Fe24  1  0.31474700  0.25166700  0.68613000  1
  Fe  Fe25  1  0.31474700  0.74833300  0.68613000  1
  Fe  Fe26  1  0.31167800  0.50000000  0.43268500  1
  Fe  Fe27  1  0.06462000  0.50000000  0.68651000  1
  Fe  Fe28  1  0.06100100  0.00000000  0.18538200  1
  Fe  Fe29  1  0.06259500  0.50000000  0.18986700  1
  Fe  Fe30  1  0.31373600  0.00000000  0.43300500  1
  Fe  Fe31  1  0.31212300  0.25278000  0.18590900  1
  O  O32  1  0.68702050  0.72962550  0.79175100  1
  O  O33  1  0.93303300  0.23491700  0.56930500  1
  O  O34  1  0.69815700  0.50000000  0.08037000  1
  O  O35  1  0.93276100  0.00000000  0.78684600  1
  O  O36  1  0.70180500  0.00000000  0.58229900  1
  O  O37  1  0.92220900  0.50000000  0.29986900  1
  O  O38  1  0.92671800  0.50000000  0.79095100  1
  O  O39  1  0.70263500  0.50000000  0.57520500  1
  O  O40  1  0.69900250  0.25337550  0.30754200  1
  O  O41  1  0.68702050  0.27037450  0.79175100  1
  O  O42  1  0.69900250  0.74662450  0.30754200  1
  O  O43  1  0.93029350  0.26082350  0.07456900  1
  O  O44  1  0.93029350  0.73917650  0.07456900  1
  O  O45  1  0.93303300  0.76508300  0.56930500  1
  O  O46  1  0.92678300  0.00000000  0.29391000  1
  O  O47  1  0.69791500  0.00000000  0.08623500  1
  O  O48  1  0.18702050  0.22962550  0.79175100  1
  O  O49  1  0.43303300  0.73491700  0.56930500  1
  O  O50  1  0.19815700  0.00000000  0.08037000  1
  O  O51  1  0.43276100  0.50000000  0.78684600  1
  O  O52  1  0.20180500  0.50000000  0.58229900  1
  O  O53  1  0.42220900  0.00000000  0.29986900  1
  O  O54  1  0.42671800  0.00000000  0.79095100  1
  O  O55  1  0.20263500  0.00000000  0.57520500  1
  O  O56  1  0.19900250  0.75337550  0.30754200  1
  O  O57  1  0.18702050  0.77037450  0.79175100  1
  O  O58  1  0.19900250  0.24662450  0.30754200  1
  O  O59  1  0.43029350  0.76082350  0.07456900  1
  O  O60  1  0.43029350  0.23917650  0.07456900  1
  O  O61  1  0.43303300  0.26508300  0.56930500  1
  O  O62  1  0.42678300  0.50000000  0.29391000  1
  O  O63  1  0.19791500  0.50000000  0.08623500  1
