# generated using pymatgen
data_Li2FeO3
_symmetry_space_group_name_H-M   'P 1'
_cell_length_a   5.09118723
_cell_length_b   8.80220953
_cell_length_c   5.10758421
_cell_angle_alpha   90.00000000
_cell_angle_beta   109.70686812
_cell_angle_gamma   90.00000000
_symmetry_Int_Tables_number   1
_chemical_formula_structural   Li2FeO3
_chemical_formula_sum   'Li8 Fe4 O12'
_cell_volume   215.48368827
_cell_formula_units_Z   4
loop_
 _symmetry_equiv_pos_site_id
 _symmetry_equiv_pos_as_xyz
  1  'x, y, z'
loop_
 _atom_site_type_symbol
 _atom_site_label
 _atom_site_symmetry_multiplicity
 _atom_site_fract_x
 _atom_site_fract_y
 _atom_site_fract_z
 _atom_site_occupancy
  Li  Li0  1  0.00000000  0.49505150  0.50000000  1
  Li  Li1  1  0.00000000  0.00769450  0.00000000  1
  Li  Li2  1  0.00000000  0.17468875  0.50000000  1
  Li  Li3  1  0.50000000  0.34856450  0.50000000  1
  Li  Li4  1  0.50000000  0.99505150  0.50000000  1
  Li  Li5  1  0.50000000  0.50769450  0.00000000  1
  Li  Li6  1  0.50000000  0.67468875  0.50000000  1
  Li  Li7  1  0.00000000  0.84856450  0.50000000  1
  Fe  Fe8  1  0.00000000  0.34039150  0.00000000  1
  Fe  Fe9  1  0.50000000  0.17379300  0.00000000  1
  Fe  Fe10  1  0.50000000  0.84039150  0.00000000  1
  Fe  Fe11  1  0.00000000  0.67379300  0.00000000  1
  O  O12  1  0.21991125  0.49964325  0.23157300  1
  O  O13  1  0.28008875  0.99964325  0.76842700  1
  O  O14  1  0.24164400  0.19080600  0.22864300  1
  O  O15  1  0.25835600  0.69080600  0.77135700  1
  O  O16  1  0.23294325  0.33377625  0.77732000  1
  O  O17  1  0.26705675  0.83377625  0.22268000  1
  O  O18  1  0.71991125  0.99964325  0.23157300  1
  O  O19  1  0.78008875  0.49964325  0.76842700  1
  O  O20  1  0.74164400  0.69080600  0.22864300  1
  O  O21  1  0.75835600  0.19080600  0.77135700  1
  O  O22  1  0.73294325  0.83377625  0.77732000  1
  O  O23  1  0.76705675  0.33377625  0.22268000  1
