# generated using pymatgen
data_Sn2N2O
_symmetry_space_group_name_H-M   'P 1'
_cell_length_a   8.79997400
_cell_length_b   8.85043301
_cell_length_c   8.86796285
_cell_angle_alpha   109.53462149
_cell_angle_beta   109.34357631
_cell_angle_gamma   109.20802596
_symmetry_Int_Tables_number   1
_chemical_formula_structural   Sn2N2O
_chemical_formula_sum   'Sn16 N16 O8'
_cell_volume   533.81143262
_cell_formula_units_Z   8
loop_
 _symmetry_equiv_pos_site_id
 _symmetry_equiv_pos_as_xyz
  1  'x, y, z'
loop_
 _atom_site_type_symbol
 _atom_site_label
 _atom_site_symmetry_multiplicity
 _atom_site_fract_x
 _atom_site_fract_y
 _atom_site_fract_z
 _atom_site_occupancy
  Sn  Sn0  1  0.99015200  0.49916600  0.99919700  1
  Sn  Sn1  1  0.53475400  0.75247200  0.28689000  1
  Sn  Sn2  1  0.24471100  0.71752500  0.47327300  1
  Sn  Sn3  1  0.24476200  0.21328900  0.96099100  1
  Sn  Sn4  1  0.95688900  0.24471600  0.21582200  1
  Sn  Sn5  1  0.00434500  0.01125800  0.50712400  1
  Sn  Sn6  1  0.28790600  0.53166000  0.75408300  1
  Sn  Sn7  1  0.21375600  0.97553800  0.24981000  1
  Sn  Sn8  1  0.51274000  0.50725700  0.51495000  1
  Sn  Sn9  1  0.49998900  0.00246700  0.00055600  1
  Sn  Sn10  1  0.76451300  0.02024300  0.73313300  1
  Sn  Sn11  1  0.72911400  0.46758500  0.26213600  1
  Sn  Sn12  1  0.03553600  0.76063500  0.78726900  1
  Sn  Sn13  1  0.75918700  0.79051000  0.02544400  1
  Sn  Sn14  1  0.73797600  0.27523300  0.52606200  1
  Sn  Sn15  1  0.46691800  0.25176500  0.71162500  1
  N  N16  1  0.96609100  0.73021800  0.99555400  1
  N  N17  1  0.97268300  0.50754300  0.24010000  1
  N  N18  1  0.26433400  0.75992600  0.73288200  1
  N  N19  1  0.51624600  0.75370400  0.52500400  1
  N  N20  1  0.27696100  0.01588900  0.04362200  1
  N  N21  1  0.99673400  0.04063200  0.27060700  1
  N  N22  1  0.98653500  0.96262800  0.73057700  1
  N  N23  1  0.23327700  0.95746100  0.50047400  1
  N  N24  1  0.23652300  0.27631300  0.74264400  1
  N  N25  1  0.45717800  0.23366600  0.45514200  1
  N  N26  1  0.78069100  0.54617800  0.54274500  1
  N  N27  1  0.54710000  0.54825200  0.77983200  1
  N  N28  1  0.72768800  0.99820900  0.95099900  1
  N  N29  1  0.72717300  0.22495500  0.26815000  1
  N  N30  1  0.75571200  0.02890900  0.48333900  1
  N  N31  1  0.73044900  0.26474900  0.77210300  1
  O  O32  1  0.06771900  0.29443900  0.02946400  1
  O  O33  1  0.49817400  0.76710700  0.04747800  1
  O  O34  1  0.27277100  0.72776600  0.20820100  1
  O  O35  1  0.04120600  0.48070900  0.77053300  1
  O  O36  1  0.46003400  0.46079100  0.21858200  1
  O  O37  1  0.76178100  0.71422300  0.25513600  1
  O  O38  1  0.22198800  0.44023800  0.46226900  1
  O  O39  1  0.51770600  0.24417600  0.96619700  1
