# generated using pymatgen
data_Na5Bi2As(CO4)4
_symmetry_space_group_name_H-M   'P 1'
_cell_length_a   14.68517400
_cell_length_b   14.75655800
_cell_length_c   14.99791000
_cell_angle_alpha   90.00000000
_cell_angle_beta   90.00000000
_cell_angle_gamma   90.00000000
_symmetry_Int_Tables_number   1
_chemical_formula_structural   Na5Bi2As(CO4)4
_chemical_formula_sum   'Na40 Bi16 As8 C32 O128'
_cell_volume   3250.08641959
_cell_formula_units_Z   8
loop_
 _symmetry_equiv_pos_site_id
 _symmetry_equiv_pos_as_xyz
  1  'x, y, z'
loop_
 _atom_site_type_symbol
 _atom_site_label
 _atom_site_symmetry_multiplicity
 _atom_site_fract_x
 _atom_site_fract_y
 _atom_site_fract_z
 _atom_site_occupancy
  Na  Na0  1  0.75000000  0.05380800  0.25000000  1
  Na  Na1  1  0.30505700  0.00000000  0.00000000  1
  Na  Na2  1  0.50000000  0.80555100  0.00000000  1
  Na  Na3  1  0.75000000  0.25000000  0.05362100  1
  Na  Na4  1  0.75000000  0.25000000  0.44637900  1
  Na  Na5  1  0.55354200  0.25000000  0.25000000  1
  Na  Na6  1  0.69494300  0.00000000  0.00000000  1
  Na  Na7  1  0.75000000  0.44619200  0.25000000  1
  Na  Na8  1  0.94645800  0.25000000  0.25000000  1
  Na  Na9  1  0.50000000  0.19444900  0.00000000  1
  Na  Na10  1  0.75000000  0.55380800  0.75000000  1
  Na  Na11  1  0.30505700  0.50000000  0.50000000  1
  Na  Na12  1  0.50000000  0.30555100  0.50000000  1
  Na  Na13  1  0.75000000  0.75000000  0.55362100  1
  Na  Na14  1  0.75000000  0.75000000  0.94637900  1
  Na  Na15  1  0.55354200  0.75000000  0.75000000  1
  Na  Na16  1  0.69494300  0.50000000  0.50000000  1
  Na  Na17  1  0.75000000  0.94619200  0.75000000  1
  Na  Na18  1  0.94645800  0.75000000  0.75000000  1
  Na  Na19  1  0.50000000  0.69444900  0.50000000  1
  Na  Na20  1  0.25000000  0.05380800  0.75000000  1
  Na  Na21  1  0.80505700  0.00000000  0.50000000  1
  Na  Na22  1  0.00000000  0.80555100  0.50000000  1
  Na  Na23  1  0.25000000  0.25000000  0.55362100  1
  Na  Na24  1  0.25000000  0.25000000  0.94637900  1
  Na  Na25  1  0.05354200  0.25000000  0.75000000  1
  Na  Na26  1  0.19494300  0.00000000  0.50000000  1
  Na  Na27  1  0.25000000  0.44619200  0.75000000  1
  Na  Na28  1  0.44645800  0.25000000  0.75000000  1
  Na  Na29  1  0.00000000  0.19444900  0.50000000  1
  Na  Na30  1  0.25000000  0.55380800  0.25000000  1
  Na  Na31  1  0.80505700  0.50000000  0.00000000  1
  Na  Na32  1  0.00000000  0.30555100  0.00000000  1
  Na  Na33  1  0.25000000  0.75000000  0.05362100  1
  Na  Na34  1  0.25000000  0.75000000  0.44637900  1
  Na  Na35  1  0.05354200  0.75000000  0.25000000  1
  Na  Na36  1  0.19494300  0.50000000  0.00000000  1
  Na  Na37  1  0.25000000  0.94619200  0.25000000  1
  Na  Na38  1  0.44645800  0.75000000  0.25000000  1
  Na  Na39  1  0.00000000  0.69444900  0.00000000  1
  Bi  Bi40  1  0.62283000  0.62346500  0.12961200  1
  Bi  Bi41  1  0.62283000  0.87653500  0.37038800  1
  Bi  Bi42  1  0.87717000  0.62346500  0.37038800  1
  Bi  Bi43  1  0.87717000  0.87653500  0.12961200  1
  Bi  Bi44  1  0.62283000  0.12346500  0.62961200  1
  Bi  Bi45  1  0.62283000  0.37653500  0.87038800  1
  Bi  Bi46  1  0.87717000  0.12346500  0.87038800  1
  Bi  Bi47  1  0.87717000  0.37653500  0.62961200  1
  Bi  Bi48  1  0.12283000  0.62346500  0.62961200  1
  Bi  Bi49  1  0.12283000  0.87653500  0.87038800  1
  Bi  Bi50  1  0.37717000  0.62346500  0.87038800  1
  Bi  Bi51  1  0.37717000  0.87653500  0.62961200  1
  Bi  Bi52  1  0.12283000  0.12346500  0.12961200  1
  Bi  Bi53  1  0.12283000  0.37653500  0.37038800  1
  Bi  Bi54  1  0.37717000  0.12346500  0.37038800  1
  Bi  Bi55  1  0.37717000  0.37653500  0.12961200  1
  As  As56  1  0.75000000  0.25000000  0.25000000  1
  As  As57  1  0.50000000  0.00000000  0.00000000  1
  As  As58  1  0.75000000  0.75000000  0.75000000  1
  As  As59  1  0.50000000  0.50000000  0.50000000  1
  As  As60  1  0.25000000  0.25000000  0.75000000  1
  As  As61  1  0.00000000  0.00000000  0.50000000  1
  As  As62  1  0.25000000  0.75000000  0.25000000  1
  As  As63  1  0.00000000  0.50000000  0.00000000  1
  C  C64  1  0.65479100  0.84366950  0.15395250  1
  C  C65  1  0.84520900  0.84366950  0.34604750  1
  C  C66  1  0.15479100  0.15633050  0.34604750  1
  C  C67  1  0.34520900  0.15633050  0.15395250  1
  C  C68  1  0.59924550  0.09867400  0.40683150  1
  C  C69  1  0.90075450  0.09867400  0.09316850  1
  C  C70  1  0.59924550  0.40132600  0.09316850  1
  C  C71  1  0.90075450  0.40132600  0.40683150  1
  C  C72  1  0.65479100  0.34366950  0.65395250  1
  C  C73  1  0.84520900  0.34366950  0.84604750  1
  C  C74  1  0.15479100  0.65633050  0.84604750  1
  C  C75  1  0.34520900  0.65633050  0.65395250  1
  C  C76  1  0.59924550  0.59867400  0.90683150  1
  C  C77  1  0.90075450  0.59867400  0.59316850  1
  C  C78  1  0.59924550  0.90132600  0.59316850  1
  C  C79  1  0.90075450  0.90132600  0.90683150  1
  C  C80  1  0.15479100  0.84366950  0.65395250  1
  C  C81  1  0.34520900  0.84366950  0.84604750  1
  C  C82  1  0.65479100  0.15633050  0.84604750  1
  C  C83  1  0.84520900  0.15633050  0.65395250  1
  C  C84  1  0.09924550  0.09867400  0.90683150  1
  C  C85  1  0.40075450  0.09867400  0.59316850  1
  C  C86  1  0.09924550  0.40132600  0.59316850  1
  C  C87  1  0.40075450  0.40132600  0.90683150  1
  C  C88  1  0.15479100  0.34366950  0.15395250  1
  C  C89  1  0.34520900  0.34366950  0.34604750  1
  C  C90  1  0.65479100  0.65633050  0.34604750  1
  C  C91  1  0.84520900  0.65633050  0.15395250  1
  C  C92  1  0.09924550  0.59867400  0.40683150  1
  C  C93  1  0.40075450  0.59867400  0.09316850  1
  C  C94  1  0.09924550  0.90132600  0.09316850  1
  C  C95  1  0.40075450  0.90132600  0.40683150  1
  O  O96  1  0.65692400  0.10522950  0.47259650  1
  O  O97  1  0.71866100  0.90511050  0.14844650  1
  O  O98  1  0.78133900  0.90511050  0.35155350  1
  O  O99  1  0.15692400  0.89477050  0.02740350  1
  O  O100  1  0.90247500  0.84424050  0.28062050  1
  O  O101  1  0.81736500  0.31723700  0.18284300  1
  O  O102  1  0.68263500  0.31723700  0.31715700  1
  O  O103  1  0.85113600  0.78061350  0.40694150  1
  O  O104  1  0.64886400  0.78061350  0.09305850  1
  O  O105  1  0.14886400  0.21938650  0.40694150  1
  O  O106  1  0.35113600  0.21938650  0.09305850  1
  O  O107  1  0.81736500  0.18276300  0.31715700  1
  O  O108  1  0.68263500  0.18276300  0.18284300  1
  O  O109  1  0.03376900  0.65826850  0.39931350  1
  O  O110  1  0.46623100  0.65826850  0.10068650  1
  O  O111  1  0.40247500  0.15575950  0.21937950  1
  O  O112  1  0.84307600  0.10522950  0.02740350  1
  O  O113  1  0.28133900  0.09488950  0.14844650  1
  O  O114  1  0.21866100  0.09488950  0.35155350  1
  O  O115  1  0.92832900  0.07156800  0.44072500  1
  O  O116  1  0.57167100  0.07156800  0.05927500  1
  O  O117  1  0.89236500  0.03486950  0.15179050  1
  O  O118  1  0.60763500  0.03486950  0.34820950  1
  O  O119  1  0.10763500  0.96513050  0.15179050  1
  O  O120  1  0.39236500  0.96513050  0.34820950  1
  O  O121  1  0.07167100  0.92843200  0.44072500  1
  O  O122  1  0.42832900  0.92843200  0.05927500  1
  O  O123  1  0.34307600  0.89477050  0.47259650  1
  O  O124  1  0.59752500  0.84424050  0.21937950  1
  O  O125  1  0.96623100  0.34173150  0.39931350  1
  O  O126  1  0.53376900  0.34173150  0.10068650  1
  O  O127  1  0.09752500  0.15575950  0.28062050  1
  O  O128  1  0.65692400  0.60522950  0.97259650  1
  O  O129  1  0.71866100  0.40511050  0.64844650  1
  O  O130  1  0.78133900  0.40511050  0.85155350  1
  O  O131  1  0.15692400  0.39477050  0.52740350  1
  O  O132  1  0.90247500  0.34424050  0.78062050  1
  O  O133  1  0.81736500  0.81723700  0.68284300  1
  O  O134  1  0.68263500  0.81723700  0.81715700  1
  O  O135  1  0.85113600  0.28061350  0.90694150  1
  O  O136  1  0.64886400  0.28061350  0.59305850  1
  O  O137  1  0.14886400  0.71938650  0.90694150  1
  O  O138  1  0.35113600  0.71938650  0.59305850  1
  O  O139  1  0.81736500  0.68276300  0.81715700  1
  O  O140  1  0.68263500  0.68276300  0.68284300  1
  O  O141  1  0.03376900  0.15826850  0.89931350  1
  O  O142  1  0.46623100  0.15826850  0.60068650  1
  O  O143  1  0.40247500  0.65575950  0.71937950  1
  O  O144  1  0.84307600  0.60522950  0.52740350  1
  O  O145  1  0.28133900  0.59488950  0.64844650  1
  O  O146  1  0.21866100  0.59488950  0.85155350  1
  O  O147  1  0.92832900  0.57156800  0.94072500  1
  O  O148  1  0.57167100  0.57156800  0.55927500  1
  O  O149  1  0.89236500  0.53486950  0.65179050  1
  O  O150  1  0.60763500  0.53486950  0.84820950  1
  O  O151  1  0.10763500  0.46513050  0.65179050  1
  O  O152  1  0.39236500  0.46513050  0.84820950  1
  O  O153  1  0.07167100  0.42843200  0.94072500  1
  O  O154  1  0.42832900  0.42843200  0.55927500  1
  O  O155  1  0.34307600  0.39477050  0.97259650  1
  O  O156  1  0.59752500  0.34424050  0.71937950  1
  O  O157  1  0.96623100  0.84173150  0.89931350  1
  O  O158  1  0.53376900  0.84173150  0.60068650  1
  O  O159  1  0.09752500  0.65575950  0.78062050  1
  O  O160  1  0.15692400  0.10522950  0.97259650  1
  O  O161  1  0.21866100  0.90511050  0.64844650  1
  O  O162  1  0.28133900  0.90511050  0.85155350  1
  O  O163  1  0.65692400  0.89477050  0.52740350  1
  O  O164  1  0.40247500  0.84424050  0.78062050  1
  O  O165  1  0.31736500  0.31723700  0.68284300  1
  O  O166  1  0.18263500  0.31723700  0.81715700  1
  O  O167  1  0.35113600  0.78061350  0.90694150  1
  O  O168  1  0.14886400  0.78061350  0.59305850  1
  O  O169  1  0.64886400  0.21938650  0.90694150  1
  O  O170  1  0.85113600  0.21938650  0.59305850  1
  O  O171  1  0.31736500  0.18276300  0.81715700  1
  O  O172  1  0.18263500  0.18276300  0.68284300  1
  O  O173  1  0.53376900  0.65826850  0.89931350  1
  O  O174  1  0.96623100  0.65826850  0.60068650  1
  O  O175  1  0.90247500  0.15575950  0.71937950  1
  O  O176  1  0.34307600  0.10522950  0.52740350  1
  O  O177  1  0.78133900  0.09488950  0.64844650  1
  O  O178  1  0.71866100  0.09488950  0.85155350  1
  O  O179  1  0.42832900  0.07156800  0.94072500  1
  O  O180  1  0.07167100  0.07156800  0.55927500  1
  O  O181  1  0.39236500  0.03486950  0.65179050  1
  O  O182  1  0.10763500  0.03486950  0.84820950  1
  O  O183  1  0.60763500  0.96513050  0.65179050  1
  O  O184  1  0.89236500  0.96513050  0.84820950  1
  O  O185  1  0.57167100  0.92843200  0.94072500  1
  O  O186  1  0.92832900  0.92843200  0.55927500  1
  O  O187  1  0.84307600  0.89477050  0.97259650  1
  O  O188  1  0.09752500  0.84424050  0.71937950  1
  O  O189  1  0.46623100  0.34173150  0.89931350  1
  O  O190  1  0.03376900  0.34173150  0.60068650  1
  O  O191  1  0.59752500  0.15575950  0.78062050  1
  O  O192  1  0.15692400  0.60522950  0.47259650  1
  O  O193  1  0.21866100  0.40511050  0.14844650  1
  O  O194  1  0.28133900  0.40511050  0.35155350  1
  O  O195  1  0.65692400  0.39477050  0.02740350  1
  O  O196  1  0.40247500  0.34424050  0.28062050  1
  O  O197  1  0.31736500  0.81723700  0.18284300  1
  O  O198  1  0.18263500  0.81723700  0.31715700  1
  O  O199  1  0.35113600  0.28061350  0.40694150  1
  O  O200  1  0.14886400  0.28061350  0.09305850  1
  O  O201  1  0.64886400  0.71938650  0.40694150  1
  O  O202  1  0.85113600  0.71938650  0.09305850  1
  O  O203  1  0.31736500  0.68276300  0.31715700  1
  O  O204  1  0.18263500  0.68276300  0.18284300  1
  O  O205  1  0.53376900  0.15826850  0.39931350  1
  O  O206  1  0.96623100  0.15826850  0.10068650  1
  O  O207  1  0.90247500  0.65575950  0.21937950  1
  O  O208  1  0.34307600  0.60522950  0.02740350  1
  O  O209  1  0.78133900  0.59488950  0.14844650  1
  O  O210  1  0.71866100  0.59488950  0.35155350  1
  O  O211  1  0.42832900  0.57156800  0.44072500  1
  O  O212  1  0.07167100  0.57156800  0.05927500  1
  O  O213  1  0.39236500  0.53486950  0.15179050  1
  O  O214  1  0.10763500  0.53486950  0.34820950  1
  O  O215  1  0.60763500  0.46513050  0.15179050  1
  O  O216  1  0.89236500  0.46513050  0.34820950  1
  O  O217  1  0.57167100  0.42843200  0.44072500  1
  O  O218  1  0.92832900  0.42843200  0.05927500  1
  O  O219  1  0.84307600  0.39477050  0.47259650  1
  O  O220  1  0.09752500  0.34424050  0.21937950  1
  O  O221  1  0.46623100  0.84173150  0.39931350  1
  O  O222  1  0.03376900  0.84173150  0.10068650  1
  O  O223  1  0.59752500  0.65575950  0.28062050  1
