# generated using pymatgen
data_K2B5H5O11
_symmetry_space_group_name_H-M   'P 1'
_cell_length_a   6.75721800
_cell_length_b   11.66580100
_cell_length_c   12.57465600
_cell_angle_alpha   90.00000000
_cell_angle_beta   90.00000000
_cell_angle_gamma   90.00000000
_symmetry_Int_Tables_number   1
_chemical_formula_structural   K2B5H5O11
_chemical_formula_sum   'K8 B20 H20 O44'
_cell_volume   991.23951635
_cell_formula_units_Z   4
loop_
 _symmetry_equiv_pos_site_id
 _symmetry_equiv_pos_as_xyz
  1  'x, y, z'
loop_
 _atom_site_type_symbol
 _atom_site_label
 _atom_site_symmetry_multiplicity
 _atom_site_fract_x
 _atom_site_fract_y
 _atom_site_fract_z
 _atom_site_occupancy
  K  K0  1  0.35423900  0.99433100  0.54271000  1
  K  K1  1  0.64576100  0.49433100  0.45729000  1
  K  K2  1  0.85423900  0.49433100  0.95729000  1
  K  K3  1  0.14576100  0.99433100  0.04271000  1
  K  K4  1  0.00827000  0.19429900  0.75238500  1
  K  K5  1  0.99173000  0.69429900  0.24761500  1
  K  K6  1  0.50827000  0.69429900  0.74761500  1
  K  K7  1  0.49173000  0.19429900  0.25238500  1
  B  B8  1  0.50575700  0.02938800  0.78929300  1
  B  B9  1  0.49424300  0.52938800  0.21070700  1
  B  B10  1  0.00575700  0.52938800  0.71070700  1
  B  B11  1  0.99424300  0.02938800  0.28929300  1
  B  B12  1  0.33709400  0.43798700  0.66258200  1
  B  B13  1  0.66290600  0.93798700  0.33741800  1
  B  B14  1  0.83709400  0.93798700  0.83741800  1
  B  B15  1  0.16290600  0.43798700  0.16258200  1
  B  B16  1  0.11224000  0.51648900  0.52077400  1
  B  B17  1  0.88776000  0.01648900  0.47922600  1
  B  B18  1  0.61224000  0.01648900  0.97922600  1
  B  B19  1  0.38776000  0.51648900  0.02077400  1
  B  B20  1  0.45765000  0.24182500  0.72188400  1
  B  B21  1  0.54235000  0.74182500  0.27811600  1
  B  B22  1  0.95765000  0.74182500  0.77811600  1
  B  B23  1  0.04235000  0.24182500  0.22188400  1
  B  B24  1  0.18993400  0.90003600  0.77745900  1
  B  B25  1  0.81006600  0.40003600  0.22254100  1
  B  B26  1  0.68993400  0.40003600  0.72254100  1
  B  B27  1  0.31006600  0.90003600  0.27745900  1
  H  H28  1  0.33775600  0.50962200  0.86089900  1
  H  H29  1  0.66224400  0.00962200  0.13910100  1
  H  H30  1  0.83775600  0.00962200  0.63910100  1
  H  H31  1  0.16224400  0.50962200  0.36089900  1
  H  H32  1  0.31377400  0.17534200  0.93637700  1
  H  H33  1  0.68622600  0.67534200  0.06362300  1
  H  H34  1  0.81377400  0.67534200  0.56362300  1
  H  H35  1  0.18622600  0.17534200  0.43637700  1
  H  H36  1  0.22831400  0.27790000  0.00631500  1
  H  H37  1  0.77168600  0.77790000  0.99368500  1
  H  H38  1  0.72831400  0.77790000  0.49368500  1
  H  H39  1  0.27168600  0.27790000  0.50631500  1
  H  H40  1  0.70520400  0.24070000  0.92921700  1
  H  H41  1  0.29479600  0.74070000  0.07078300  1
  H  H42  1  0.20520400  0.74070000  0.57078300  1
  H  H43  1  0.79479600  0.24070000  0.42921700  1
  H  H44  1  0.86365500  0.22141500  0.01618200  1
  H  H45  1  0.13634500  0.72141500  0.98381800  1
  H  H46  1  0.36365500  0.72141500  0.48381800  1
  H  H47  1  0.63634500  0.22141500  0.51618200  1
  O  O48  1  0.47752500  0.05542500  0.90523100  1
  O  O49  1  0.52247500  0.55542500  0.09476900  1
  O  O50  1  0.97752500  0.55542500  0.59476900  1
  O  O51  1  0.02247500  0.05542500  0.40523100  1
  O  O52  1  0.42245900  0.12678800  0.72733900  1
  O  O53  1  0.57754100  0.62678800  0.27266100  1
  O  O54  1  0.92245900  0.62678800  0.77266100  1
  O  O55  1  0.07754100  0.12678800  0.22733900  1
  O  O56  1  0.31613600  0.31150000  0.67789700  1
  O  O57  1  0.68386400  0.81150000  0.32210300  1
  O  O58  1  0.81613600  0.81150000  0.82210300  1
  O  O59  1  0.18386400  0.31150000  0.17789700  1
  O  O60  1  0.28427400  0.46198700  0.54899200  1
  O  O61  1  0.71572600  0.96198700  0.45100800  1
  O  O62  1  0.78427400  0.96198700  0.95100800  1
  O  O63  1  0.21572600  0.46198700  0.04899200  1
  O  O64  1  0.21418300  0.50596100  0.73473800  1
  O  O65  1  0.78581700  0.00596100  0.26526200  1
  O  O66  1  0.71418300  0.00596100  0.76526200  1
  O  O67  1  0.28581700  0.50596100  0.23473800  1
  O  O68  1  0.38316900  0.92711200  0.75965200  1
  O  O69  1  0.61683100  0.42711200  0.24034800  1
  O  O70  1  0.88316900  0.42711200  0.74034800  1
  O  O71  1  0.11683100  0.92711200  0.25965200  1
  O  O72  1  0.05109500  0.96939300  0.82378300  1
  O  O73  1  0.94890500  0.46939300  0.17621700  1
  O  O74  1  0.55109500  0.46939300  0.67621700  1
  O  O75  1  0.44890500  0.96939300  0.32378300  1
  O  O76  1  0.43609800  0.53526500  0.91519100  1
  O  O77  1  0.56390200  0.03526500  0.08480900  1
  O  O78  1  0.93609800  0.03526500  0.58480900  1
  O  O79  1  0.06390200  0.53526500  0.41519100  1
  O  O80  1  0.13728800  0.78824800  0.74299400  1
  O  O81  1  0.86271200  0.28824800  0.25700600  1
  O  O82  1  0.63728800  0.28824800  0.75700600  1
  O  O83  1  0.36271200  0.78824800  0.24299400  1
  O  O84  1  0.19299300  0.22033200  0.95258100  1
  O  O85  1  0.80700700  0.72033200  0.04741900  1
  O  O86  1  0.69299300  0.72033200  0.54741900  1
  O  O87  1  0.30700700  0.22033200  0.45258100  1
  O  O88  1  0.25129600  0.76985400  0.50174200  1
  O  O89  1  0.74870400  0.26985400  0.49825800  1
  O  O90  1  0.75129600  0.26985400  0.99825800  1
  O  O91  1  0.24870400  0.76985400  0.00174200  1
