# generated using pymatgen
data_Li3Cr3(PO4)4
_symmetry_space_group_name_H-M   'P 1'
_cell_length_a   6.22551300
_cell_length_b   11.30197500
_cell_length_c   8.47123379
_cell_angle_alpha   90.00000000
_cell_angle_beta   101.64585663
_cell_angle_gamma   90.00000000
_symmetry_Int_Tables_number   1
_chemical_formula_structural   Li3Cr3(PO4)4
_chemical_formula_sum   'Li6 Cr6 P8 O32'
_cell_volume   583.77092832
_cell_formula_units_Z   2
loop_
 _symmetry_equiv_pos_site_id
 _symmetry_equiv_pos_as_xyz
  1  'x, y, z'
loop_
 _atom_site_type_symbol
 _atom_site_label
 _atom_site_symmetry_multiplicity
 _atom_site_fract_x
 _atom_site_fract_y
 _atom_site_fract_z
 _atom_site_occupancy
  Li  Li0  1  0.35272400  0.38992500  0.07117400  1
  Li  Li1  1  0.85761700  0.10781600  0.06067600  1
  Li  Li2  1  0.39784600  0.69763000  0.34663000  1
  Li  Li3  1  0.60215400  0.19763000  0.65337000  1
  Li  Li4  1  0.64727600  0.88992500  0.92882600  1
  Li  Li5  1  0.14238300  0.60781600  0.93932400  1
  Cr  Cr6  1  0.42169400  0.08539300  0.28091500  1
  Cr  Cr7  1  0.90042100  0.40885700  0.27403800  1
  Cr  Cr8  1  0.87578700  0.81409900  0.33846900  1
  Cr  Cr9  1  0.12421300  0.31409900  0.66153100  1
  Cr  Cr10  1  0.57830600  0.58539300  0.71908500  1
  Cr  Cr11  1  0.09957900  0.90885700  0.72596200  1
  P  P12  1  0.63455100  0.62603300  0.08530000  1
  P  P13  1  0.13040500  0.86853300  0.09909000  1
  P  P14  1  0.42573000  0.41359300  0.40396200  1
  P  P15  1  0.95936000  0.09105600  0.39894600  1
  P  P16  1  0.57427000  0.91359300  0.59603800  1
  P  P17  1  0.04064000  0.59105600  0.60105400  1
  P  P18  1  0.36544900  0.12603300  0.91470000  1
  P  P19  1  0.86959500  0.36853300  0.90091000  1
  O  O20  1  0.42105300  0.56163500  0.08199300  1
  O  O21  1  0.34980100  0.18184200  0.07976000  1
  O  O22  1  0.91012300  0.93126500  0.09885800  1
  O  O23  1  0.85199100  0.31395700  0.06697900  1
  O  O24  1  0.34041200  0.94353900  0.15749300  1
  O  O25  1  0.64072300  0.73214600  0.20382200  1
  O  O26  1  0.84478800  0.55116500  0.15021600  1
  O  O27  1  0.60628700  0.36749300  0.31646000  1
  O  O28  1  0.73591000  0.08726200  0.28127400  1
  O  O29  1  0.12518800  0.76871800  0.22549700  1
  O  O30  1  0.12278600  0.12016500  0.29194200  1
  O  O31  1  0.21546600  0.41858500  0.26966300  1
  O  O32  1  0.61268600  0.82347700  0.46641600  1
  O  O33  1  0.48952000  0.53745500  0.48157100  1
  O  O34  1  0.04012900  0.69265500  0.48112800  1
  O  O35  1  0.51048000  0.03745500  0.51842900  1
  O  O36  1  0.00884300  0.96570400  0.48373000  1
  O  O37  1  0.38731400  0.32347700  0.53358400  1
  O  O38  1  0.99115700  0.46570400  0.51627000  1
  O  O39  1  0.95987100  0.19265500  0.51887200  1
  O  O40  1  0.26409000  0.58726200  0.71872600  1
  O  O41  1  0.39371300  0.86749300  0.68354000  1
  O  O42  1  0.35927700  0.23214600  0.79617800  1
  O  O43  1  0.78453400  0.91858500  0.73033700  1
  O  O44  1  0.87721400  0.62016500  0.70805800  1
  O  O45  1  0.65958800  0.44353900  0.84250700  1
  O  O46  1  0.87481200  0.26871800  0.77450300  1
  O  O47  1  0.15521200  0.05116500  0.84978400  1
  O  O48  1  0.65019900  0.68184200  0.92024000  1
  O  O49  1  0.57894700  0.06163500  0.91800700  1
  O  O50  1  0.14800900  0.81395700  0.93302100  1
  O  O51  1  0.08987700  0.43126500  0.90114200  1
