# generated using pymatgen
data_AsAuO3
_symmetry_space_group_name_H-M   'P 1'
_cell_length_a   12.71877000
_cell_length_b   10.85496200
_cell_length_c   5.17151312
_cell_angle_alpha   90.00000000
_cell_angle_beta   105.39536953
_cell_angle_gamma   90.00000000
_symmetry_Int_Tables_number   1
_chemical_formula_structural   AsAuO3
_chemical_formula_sum   'As8 Au8 O24'
_cell_volume   688.36809095
_cell_formula_units_Z   8
loop_
 _symmetry_equiv_pos_site_id
 _symmetry_equiv_pos_as_xyz
  1  'x, y, z'
loop_
 _atom_site_type_symbol
 _atom_site_label
 _atom_site_symmetry_multiplicity
 _atom_site_fract_x
 _atom_site_fract_y
 _atom_site_fract_z
 _atom_site_occupancy
  As  As0  1  0.71196800  0.08511600  0.16191400  1
  As  As1  1  0.71196800  0.91488400  0.66191400  1
  As  As2  1  0.28803200  0.08511600  0.33808600  1
  As  As3  1  0.28803200  0.91488400  0.83808600  1
  As  As4  1  0.21196800  0.58511600  0.16191400  1
  As  As5  1  0.21196800  0.41488400  0.66191400  1
  As  As6  1  0.78803200  0.58511600  0.33808600  1
  As  As7  1  0.78803200  0.41488400  0.83808600  1
  Au  Au8  1  0.50000000  0.41442900  0.75000000  1
  Au  Au9  1  0.50000000  0.77386500  0.75000000  1
  Au  Au10  1  0.50000000  0.22613500  0.25000000  1
  Au  Au11  1  0.50000000  0.58557100  0.25000000  1
  Au  Au12  1  0.00000000  0.91442900  0.75000000  1
  Au  Au13  1  0.00000000  0.27386500  0.75000000  1
  Au  Au14  1  0.00000000  0.72613500  0.25000000  1
  Au  Au15  1  0.00000000  0.08557100  0.25000000  1
  O  O16  1  0.84616250  0.07821450  0.31112000  1
  O  O17  1  0.84616250  0.92178550  0.81112000  1
  O  O18  1  0.65399850  0.22413650  0.18848800  1
  O  O19  1  0.65527450  0.03735750  0.82065900  1
  O  O20  1  0.65399850  0.77586350  0.68848800  1
  O  O21  1  0.65527450  0.96264250  0.32065900  1
  O  O22  1  0.34472550  0.03735750  0.67934100  1
  O  O23  1  0.34600150  0.22413650  0.31151200  1
  O  O24  1  0.34472550  0.96264250  0.17934100  1
  O  O25  1  0.34600150  0.77586350  0.81151200  1
  O  O26  1  0.15383750  0.07821450  0.18888000  1
  O  O27  1  0.15383750  0.92178550  0.68888000  1
  O  O28  1  0.34616250  0.57821450  0.31112000  1
  O  O29  1  0.34616250  0.42178550  0.81112000  1
  O  O30  1  0.15399850  0.72413650  0.18848800  1
  O  O31  1  0.15527450  0.53735750  0.82065900  1
  O  O32  1  0.15399850  0.27586350  0.68848800  1
  O  O33  1  0.15527450  0.46264250  0.32065900  1
  O  O34  1  0.84472550  0.53735750  0.67934100  1
  O  O35  1  0.84600150  0.72413650  0.31151200  1
  O  O36  1  0.84472550  0.46264250  0.17934100  1
  O  O37  1  0.84600150  0.27586350  0.81151200  1
  O  O38  1  0.65383750  0.57821450  0.18888000  1
  O  O39  1  0.65383750  0.42178550  0.68888000  1
