# generated using pymatgen
data_Na8Nb5O14
_symmetry_space_group_name_H-M   'P 1'
_cell_length_a   8.66597500
_cell_length_b   8.75468883
_cell_length_c   10.82558149
_cell_angle_alpha   104.23407611
_cell_angle_beta   100.44776721
_cell_angle_gamma   112.85615725
_symmetry_Int_Tables_number   1
_chemical_formula_structural   Na8Nb5O14
_chemical_formula_sum   'Na16 Nb10 O28'
_cell_volume   697.46463932
_cell_formula_units_Z   2
loop_
 _symmetry_equiv_pos_site_id
 _symmetry_equiv_pos_as_xyz
  1  'x, y, z'
loop_
 _atom_site_type_symbol
 _atom_site_label
 _atom_site_symmetry_multiplicity
 _atom_site_fract_x
 _atom_site_fract_y
 _atom_site_fract_z
 _atom_site_occupancy
  Na  Na0  1  0.45921400  0.68297600  0.02014600  1
  Na  Na1  1  0.00000000  0.00000000  0.00000000  1
  Na  Na2  1  0.20696200  0.68676900  0.19624100  1
  Na  Na3  1  0.30501100  0.36697900  0.17547500  1
  Na  Na4  1  0.37055100  0.01936000  0.11627000  1
  Na  Na5  1  0.70371100  0.42122700  0.29622900  1
  Na  Na6  1  0.10684400  0.48203900  0.38848500  1
  Na  Na7  1  0.56775600  0.13523700  0.42814300  1
  Na  Na8  1  0.50000000  0.50000000  0.50000000  1
  Na  Na9  1  0.43224400  0.86476300  0.57185700  1
  Na  Na10  1  0.89315600  0.51796100  0.61151500  1
  Na  Na11  1  0.29628900  0.57877300  0.70377100  1
  Na  Na12  1  0.62944900  0.98064000  0.88373000  1
  Na  Na13  1  0.69498900  0.63302100  0.82452500  1
  Na  Na14  1  0.79303800  0.31323100  0.80375900  1
  Na  Na15  1  0.54078600  0.31702400  0.97985400  1
  Nb  Nb16  1  0.85253200  0.70549600  0.14192100  1
  Nb  Nb17  1  0.78015300  0.08504600  0.20944700  1
  Nb  Nb18  1  0.62520800  0.77383200  0.35689000  1
  Nb  Nb19  1  0.16937300  0.09923500  0.34451400  1
  Nb  Nb20  1  0.03199800  0.85988000  0.47120300  1
  Nb  Nb21  1  0.96800200  0.14012000  0.52879700  1
  Nb  Nb22  1  0.83062700  0.90076500  0.65548600  1
  Nb  Nb23  1  0.37479200  0.22616800  0.64311000  1
  Nb  Nb24  1  0.21984700  0.91495400  0.79055300  1
  Nb  Nb25  1  0.14746800  0.29450400  0.85807900  1
  O  O26  1  0.80759900  0.53203600  0.98482900  1
  O  O27  1  0.75536400  0.85980100  0.05861700  1
  O  O28  1  0.61848300  0.59217400  0.17883500  1
  O  O29  1  0.55745100  0.91016000  0.23514600  1
  O  O30  1  0.67104200  0.17734300  0.10644200  1
  O  O31  1  0.09703000  0.88728500  0.16488200  1
  O  O32  1  0.96814700  0.64419900  0.28661500  1
  O  O33  1  0.88191000  0.93336300  0.32708300  1
  O  O34  1  0.39358700  0.63879900  0.35453500  1
  O  O35  1  0.03431400  0.19883000  0.22181100  1
  O  O36  1  0.39826600  0.23503600  0.31261500  1
  O  O37  1  0.69514400  0.99355900  0.52641400  1
  O  O38  1  0.76369200  0.67642000  0.47315000  1
  O  O39  1  0.84493100  0.25468400  0.39554200  1
  O  O40  1  0.15506900  0.74531600  0.60445800  1
  O  O41  1  0.23630800  0.32358000  0.52685000  1
  O  O42  1  0.30485600  0.00644100  0.47358600  1
  O  O43  1  0.60173400  0.76496400  0.68738500  1
  O  O44  1  0.96568600  0.80117000  0.77818900  1
  O  O45  1  0.60641300  0.36120100  0.64546500  1
  O  O46  1  0.11809000  0.06663700  0.67291700  1
  O  O47  1  0.03185300  0.35580100  0.71338500  1
  O  O48  1  0.90297000  0.11271500  0.83511800  1
  O  O49  1  0.32895800  0.82265700  0.89355800  1
  O  O50  1  0.44254900  0.08984000  0.76485400  1
  O  O51  1  0.38151700  0.40782600  0.82116500  1
  O  O52  1  0.24463600  0.14019900  0.94138300  1
  O  O53  1  0.19240100  0.46796400  0.01517100  1
