# generated using pymatgen
data_K2S3
_symmetry_space_group_name_H-M   'P 1'
_cell_length_a   7.34416000
_cell_length_b   10.22842200
_cell_length_c   7.58762700
_cell_angle_alpha   90.00000000
_cell_angle_beta   90.00000000
_cell_angle_gamma   90.00000000
_symmetry_Int_Tables_number   1
_chemical_formula_structural   K2S3
_chemical_formula_sum   'K8 S12'
_cell_volume   569.97622518
_cell_formula_units_Z   4
loop_
 _symmetry_equiv_pos_site_id
 _symmetry_equiv_pos_as_xyz
  1  'x, y, z'
loop_
 _atom_site_type_symbol
 _atom_site_label
 _atom_site_symmetry_multiplicity
 _atom_site_fract_x
 _atom_site_fract_y
 _atom_site_fract_z
 _atom_site_occupancy
  K  K0  1  0.50000000  0.91748100  0.84297900  1
  K  K1  1  0.50000000  0.08251900  0.34297900  1
  K  K2  1  0.50000000  0.39431900  0.11305600  1
  K  K3  1  0.50000000  0.60568100  0.61305600  1
  K  K4  1  0.00000000  0.41748100  0.84297900  1
  K  K5  1  0.00000000  0.58251900  0.34297900  1
  K  K6  1  0.00000000  0.89431900  0.11305600  1
  K  K7  1  0.00000000  0.10568100  0.61305600  1
  S  S8  1  0.22987350  0.15723550  0.99961600  1
  S  S9  1  0.77012650  0.84276450  0.49961600  1
  S  S10  1  0.77012650  0.15723550  0.99961600  1
  S  S11  1  0.22987350  0.84276450  0.49961600  1
  S  S12  1  0.50000000  0.30019000  0.65403400  1
  S  S13  1  0.50000000  0.69981000  0.15403400  1
  S  S14  1  0.72987350  0.65723550  0.99961600  1
  S  S15  1  0.27012650  0.34276450  0.49961600  1
  S  S16  1  0.27012650  0.65723550  0.99961600  1
  S  S17  1  0.72987350  0.34276450  0.49961600  1
  S  S18  1  0.00000000  0.80019000  0.65403400  1
  S  S19  1  0.00000000  0.19981000  0.15403400  1
