# generated using pymatgen
data_Na4Fe2C4SO16
_symmetry_space_group_name_H-M   'P 1'
_cell_length_a   9.78402019
_cell_length_b   9.85956907
_cell_length_c   9.86520306
_cell_angle_alpha   119.60924097
_cell_angle_beta   90.35246207
_cell_angle_gamma   119.12754678
_symmetry_Int_Tables_number   1
_chemical_formula_structural   Na4Fe2C4SO16
_chemical_formula_sum   'Na8 Fe4 C8 S2 O32'
_cell_volume   683.57685933
_cell_formula_units_Z   2
loop_
 _symmetry_equiv_pos_site_id
 _symmetry_equiv_pos_as_xyz
  1  'x, y, z'
loop_
 _atom_site_type_symbol
 _atom_site_label
 _atom_site_symmetry_multiplicity
 _atom_site_fract_x
 _atom_site_fract_y
 _atom_site_fract_z
 _atom_site_occupancy
  Na  Na0  1  0.58485100  0.33528400  0.91437000  1
  Na  Na1  1  0.82279000  0.65903100  0.08797200  1
  Na  Na2  1  0.42581300  0.08753200  0.65750300  1
  Na  Na3  1  0.59119500  0.91947500  0.35067900  1
  Na  Na4  1  0.15260700  0.32496300  0.90851000  1
  Na  Na5  1  0.15417900  0.91876000  0.90940500  1
  Na  Na6  1  0.42229600  0.65904100  0.08636500  1
  Na  Na7  1  0.16323500  0.91210400  0.33739100  1
  Fe  Fe8  1  0.99689900  0.00344900  0.49730600  1
  Fe  Fe9  1  0.99754200  0.49553000  0.50220300  1
  Fe  Fe10  1  0.50291600  0.50136200  0.50092900  1
  Fe  Fe11  1  0.99665400  0.49408200  0.00015300  1
  C  C12  1  0.21506300  0.28442300  0.64204300  1
  C  C13  1  0.85971500  0.29169000  0.28538300  1
  C  C14  1  0.21725200  0.28701100  0.28918200  1
  C  C15  1  0.21196200  0.64348800  0.28299100  1
  C  C16  1  0.78673400  0.71316000  0.71338700  1
  C  C17  1  0.78840100  0.36076200  0.71373500  1
  C  C18  1  0.78809300  0.71760300  0.35951000  1
  C  C19  1  0.14187500  0.71175000  0.71424400  1
  S  S20  1  0.37283800  0.12374700  0.12514500  1
  S  S21  1  0.62491500  0.87351800  0.87346100  1
  O  O22  1  0.42937700  0.05877400  0.30755200  1
  O  O23  1  0.18700400  0.06086100  0.06378300  1
  O  O24  1  0.43597900  0.06011100  0.06490600  1
  O  O25  1  0.42897400  0.30684400  0.05675300  1
  O  O26  1  0.10010500  0.31246700  0.64351200  1
  O  O27  1  0.85691100  0.14635100  0.39767300  1
  O  O28  1  0.18866400  0.13840900  0.64653400  1
  O  O29  1  0.86656600  0.40866200  0.31408500  1
  O  O30  1  0.85059800  0.31909400  0.13821800  1
  O  O31  1  0.35894500  0.39569000  0.64446200  1
  O  O32  1  0.10676400  0.14231900  0.31827200  1
  O  O33  1  0.18124800  0.64314300  0.39538300  1
  O  O34  1  0.64078700  0.35231000  0.69129300  1
  O  O35  1  0.81088300  0.59964900  0.86028500  1
  O  O36  1  0.35654700  0.31821400  0.40293000  1
  O  O37  1  0.09909700  0.64704400  0.13832100  1
  O  O38  1  0.64808500  0.68465600  0.59794500  1
  O  O39  1  0.90338700  0.36328600  0.85479900  1
  O  O40  1  0.35808600  0.64776900  0.30854000  1
  O  O41  1  0.18897800  0.39990200  0.14262600  1
  O  O42  1  0.90296600  0.85338100  0.68720500  1
  O  O43  1  0.81608200  0.36395800  0.59882800  1
  O  O44  1  0.64394200  0.60520700  0.35471000  1
  O  O45  1  0.14800300  0.68732700  0.85977700  1
  O  O46  1  0.13373500  0.59342100  0.68673900  1
  O  O47  1  0.81529500  0.85765900  0.36445900  1
  O  O48  1  0.90370100  0.69100300  0.35503500  1
  O  O49  1  0.14755300  0.85792600  0.60035500  1
  O  O50  1  0.55334000  0.93214100  0.93097900  1
  O  O51  1  0.56444300  0.68728800  0.94082500  1
  O  O52  1  0.80798500  0.92832800  0.93998000  1
  O  O53  1  0.56459800  0.93549700  0.69136900  1
