# generated using pymatgen
data_CeZr6O14
_symmetry_space_group_name_H-M   'P 1'
_cell_length_a   3.68250400
_cell_length_b   5.29756400
_cell_length_c   25.72219700
_cell_angle_alpha   90.00000000
_cell_angle_beta   90.00000000
_cell_angle_gamma   90.00000000
_symmetry_Int_Tables_number   1
_chemical_formula_structural   CeZr6O14
_chemical_formula_sum   'Ce2 Zr12 O28'
_cell_volume   501.79635169
_cell_formula_units_Z   2
loop_
 _symmetry_equiv_pos_site_id
 _symmetry_equiv_pos_as_xyz
  1  'x, y, z'
loop_
 _atom_site_type_symbol
 _atom_site_label
 _atom_site_symmetry_multiplicity
 _atom_site_fract_x
 _atom_site_fract_y
 _atom_site_fract_z
 _atom_site_occupancy
  Ce  Ce0  1  0.50000000  0.49894800  0.64362300  1
  Ce  Ce1  1  0.50000000  0.49894800  0.35637700  1
  Zr  Zr2  1  0.00000000  0.99971200  0.71712400  1
  Zr  Zr3  1  0.00000000  0.00082400  0.85841200  1
  Zr  Zr4  1  0.00000000  0.00053200  0.00000000  1
  Zr  Zr5  1  0.00000000  0.00082400  0.14158800  1
  Zr  Zr6  1  0.00000000  0.99971200  0.28287600  1
  Zr  Zr7  1  0.00000000  0.00005500  0.42983300  1
  Zr  Zr8  1  0.00000000  0.00005500  0.57016700  1
  Zr  Zr9  1  0.50000000  0.49945400  0.92924900  1
  Zr  Zr10  1  0.50000000  0.49996400  0.21214200  1
  Zr  Zr11  1  0.50000000  0.50017900  0.50000000  1
  Zr  Zr12  1  0.50000000  0.49996400  0.78785800  1
  Zr  Zr13  1  0.50000000  0.49945400  0.07075100  1
  O  O14  1  0.00000000  0.80194300  0.92923400  1
  O  O15  1  0.00000000  0.79854400  0.78822700  1
  O  O16  1  0.00000000  0.30056400  0.78672800  1
  O  O17  1  0.00000000  0.80194300  0.07076600  1
  O  O18  1  0.00000000  0.30244000  0.07112000  1
  O  O19  1  0.00000000  0.79854400  0.21177300  1
  O  O20  1  0.00000000  0.30056400  0.21327200  1
  O  O21  1  0.00000000  0.79047700  0.35635800  1
  O  O22  1  0.00000000  0.26231000  0.35674000  1
  O  O23  1  0.00000000  0.79400000  0.50000000  1
  O  O24  1  0.00000000  0.30244000  0.92888000  1
  O  O25  1  0.00000000  0.29783200  0.50000000  1
  O  O26  1  0.00000000  0.79047700  0.64364200  1
  O  O27  1  0.00000000  0.26231000  0.64326000  1
  O  O28  1  0.50000000  0.72029000  0.43099700  1
  O  O29  1  0.50000000  0.20770900  0.43212400  1
  O  O30  1  0.50000000  0.72029000  0.56900300  1
  O  O31  1  0.50000000  0.71839100  0.71882700  1
  O  O32  1  0.50000000  0.20607100  0.71861800  1
  O  O33  1  0.50000000  0.69946200  0.85877900  1
  O  O34  1  0.50000000  0.19879900  0.85760200  1
  O  O35  1  0.50000000  0.69822000  0.00000000  1
  O  O36  1  0.50000000  0.19732000  0.00000000  1
  O  O37  1  0.50000000  0.69946200  0.14122100  1
  O  O38  1  0.50000000  0.19879900  0.14239800  1
  O  O39  1  0.50000000  0.71839100  0.28117300  1
  O  O40  1  0.50000000  0.20607100  0.28138200  1
  O  O41  1  0.50000000  0.20770900  0.56787600  1
