# generated using pymatgen
data_Na8FeO6
_symmetry_space_group_name_H-M   'P 1'
_cell_length_a   10.88997600
_cell_length_b   6.37822800
_cell_length_c   12.74320268
_cell_angle_alpha   90.00000000
_cell_angle_beta   91.45339885
_cell_angle_gamma   90.00000000
_symmetry_Int_Tables_number   1
_chemical_formula_structural   Na8FeO6
_chemical_formula_sum   'Na32 Fe4 O24'
_cell_volume   884.84216850
_cell_formula_units_Z   4
loop_
 _symmetry_equiv_pos_site_id
 _symmetry_equiv_pos_as_xyz
  1  'x, y, z'
loop_
 _atom_site_type_symbol
 _atom_site_label
 _atom_site_symmetry_multiplicity
 _atom_site_fract_x
 _atom_site_fract_y
 _atom_site_fract_z
 _atom_site_occupancy
  Na  Na0  1  0.50190200  0.79144300  0.77164700  1
  Na  Na1  1  0.49763400  0.89127500  0.12341600  1
  Na  Na2  1  0.49763400  0.10872500  0.62341600  1
  Na  Na3  1  0.50190200  0.20855700  0.27164700  1
  Na  Na4  1  0.33389450  0.00218350  0.41240100  1
  Na  Na5  1  0.33389450  0.99781650  0.91240100  1
  Na  Na6  1  0.35465600  0.34713200  0.77202800  1
  Na  Na7  1  0.80415350  0.80763450  0.12332500  1
  Na  Na8  1  0.69208900  0.69377500  0.62271600  1
  Na  Na9  1  0.35465600  0.65286800  0.27202800  1
  Na  Na10  1  0.64663800  0.65034500  0.26737900  1
  Na  Na11  1  0.80415350  0.19236550  0.62332500  1
  Na  Na12  1  0.66840800  0.00210800  0.91233700  1
  Na  Na13  1  0.66840800  0.99789200  0.41233700  1
  Na  Na14  1  0.69208900  0.30622500  0.12271600  1
  Na  Na15  1  0.64663800  0.34965500  0.76737900  1
  Na  Na16  1  0.00190200  0.29144300  0.77164700  1
  Na  Na17  1  0.99763400  0.39127500  0.12341600  1
  Na  Na18  1  0.99763400  0.60872500  0.62341600  1
  Na  Na19  1  0.00190200  0.70855700  0.27164700  1
  Na  Na20  1  0.83389450  0.50218350  0.41240100  1
  Na  Na21  1  0.83389450  0.49781650  0.91240100  1
  Na  Na22  1  0.85465600  0.84713200  0.77202800  1
  Na  Na23  1  0.30415350  0.30763450  0.12332500  1
  Na  Na24  1  0.19208900  0.19377500  0.62271600  1
  Na  Na25  1  0.85465600  0.15286800  0.27202800  1
  Na  Na26  1  0.14663800  0.15034500  0.26737900  1
  Na  Na27  1  0.30415350  0.69236550  0.62332500  1
  Na  Na28  1  0.16840800  0.50210800  0.91233700  1
  Na  Na29  1  0.16840800  0.49789200  0.41233700  1
  Na  Na30  1  0.19208900  0.80622500  0.12271600  1
  Na  Na31  1  0.14663800  0.84965500  0.76737900  1
  Fe  Fe32  1  0.49881050  0.50178550  0.99565800  1
  Fe  Fe33  1  0.49881050  0.49821450  0.49565800  1
  Fe  Fe34  1  0.99881050  0.00178550  0.99565800  1
  Fe  Fe35  1  0.99881050  0.99821450  0.49565800  1
  O  O36  1  0.50644700  0.77954400  0.95292500  1
  O  O37  1  0.50644700  0.22045600  0.45292500  1
  O  O38  1  0.33290900  0.00263800  0.22141600  1
  O  O39  1  0.49601350  0.50665750  0.14770300  1
  O  O40  1  0.49601350  0.49334250  0.64770300  1
  O  O41  1  0.33290900  0.99736200  0.72141600  1
  O  O42  1  0.36218800  0.34880400  0.95319900  1
  O  O43  1  0.36218800  0.65119600  0.45319900  1
  O  O44  1  0.63618000  0.63693300  0.44754500  1
  O  O45  1  0.66738700  0.99594000  0.72164700  1
  O  O46  1  0.66738700  0.00406000  0.22164700  1
  O  O47  1  0.63618000  0.36306700  0.94754500  1
  O  O48  1  0.00644700  0.27954400  0.95292500  1
  O  O49  1  0.00644700  0.72045600  0.45292500  1
  O  O50  1  0.83290900  0.50263800  0.22141600  1
  O  O51  1  0.99601350  0.00665750  0.14770300  1
  O  O52  1  0.99601350  0.99334250  0.64770300  1
  O  O53  1  0.83290900  0.49736200  0.72141600  1
  O  O54  1  0.86218800  0.84880400  0.95319900  1
  O  O55  1  0.86218800  0.15119600  0.45319900  1
  O  O56  1  0.13618000  0.13693300  0.44754500  1
  O  O57  1  0.16738700  0.49594000  0.72164700  1
  O  O58  1  0.16738700  0.50406000  0.22164700  1
  O  O59  1  0.13618000  0.86306700  0.94754500  1
