# generated using pymatgen
data_Li2MnV(P2O7)2
_symmetry_space_group_name_H-M   'P 1'
_cell_length_a   7.15444500
_cell_length_b   8.31238500
_cell_length_c   9.73260352
_cell_angle_alpha   90.00000000
_cell_angle_beta   110.84899392
_cell_angle_gamma   90.00000000
_symmetry_Int_Tables_number   1
_chemical_formula_structural   Li2MnV(P2O7)2
_chemical_formula_sum   'Li4 Mn2 V2 P8 O28'
_cell_volume   540.90377513
_cell_formula_units_Z   2
loop_
 _symmetry_equiv_pos_site_id
 _symmetry_equiv_pos_as_xyz
  1  'x, y, z'
loop_
 _atom_site_type_symbol
 _atom_site_label
 _atom_site_symmetry_multiplicity
 _atom_site_fract_x
 _atom_site_fract_y
 _atom_site_fract_z
 _atom_site_occupancy
  Li  Li0  1  0.67330000  0.36035800  0.49726100  1
  Li  Li1  1  0.32670000  0.86035800  0.50273900  1
  Li  Li2  1  0.67430100  0.35997100  0.99986200  1
  Li  Li3  1  0.32569900  0.85997100  0.00013800  1
  Mn  Mn4  1  0.72922600  0.99815900  0.00915500  1
  Mn  Mn5  1  0.27077400  0.49815900  0.99084500  1
  V  V6  1  0.72784100  0.00002900  0.50642100  1
  V  V7  1  0.27215900  0.50002900  0.49357900  1
  P  P8  1  0.91391600  0.78333500  0.31284100  1
  P  P9  1  0.52215100  0.67970900  0.30991000  1
  P  P10  1  0.47784900  0.17970900  0.69009000  1
  P  P11  1  0.90971300  0.78723100  0.81365900  1
  P  P12  1  0.08608400  0.28333500  0.68715900  1
  P  P13  1  0.51767000  0.67913900  0.80998800  1
  P  P14  1  0.48233000  0.17913900  0.19001200  1
  P  P15  1  0.09028700  0.28723100  0.18634100  1
  O  O16  1  0.75325400  0.65260500  0.32799700  1
  O  O17  1  0.91600400  0.93227000  0.40621100  1
  O  O18  1  0.60375000  0.17354900  0.35594200  1
  O  O19  1  0.50727400  0.84257000  0.37958500  1
  O  O20  1  0.48392600  0.53905600  0.39835700  1
  O  O21  1  0.15422000  0.32785300  0.34958800  1
  O  O22  1  0.11407400  0.69562500  0.37547900  1
  O  O23  1  0.88592600  0.19562500  0.62452100  1
  O  O24  1  0.84578000  0.82785300  0.65041200  1
  O  O25  1  0.51607400  0.03905600  0.60164300  1
  O  O26  1  0.49272600  0.34257000  0.62041500  1
  O  O27  1  0.39625000  0.67354900  0.64405800  1
  O  O28  1  0.08399600  0.43227000  0.59378900  1
  O  O29  1  0.24674600  0.15260500  0.67200300  1
  O  O30  1  0.74982100  0.65533100  0.82855400  1
  O  O31  1  0.90733400  0.93772700  0.90646700  1
  O  O32  1  0.60597200  0.17774500  0.85411100  1
  O  O33  1  0.49436800  0.84070900  0.87401900  1
  O  O34  1  0.47849400  0.53451400  0.89546400  1
  O  O35  1  0.14170500  0.32315400  0.84987300  1
  O  O36  1  0.11125000  0.70494100  0.87066900  1
  O  O37  1  0.88875000  0.20494100  0.12933100  1
  O  O38  1  0.85829500  0.82315400  0.15012700  1
  O  O39  1  0.52150600  0.03451400  0.10453600  1
  O  O40  1  0.50563200  0.34070900  0.12598100  1
  O  O41  1  0.39402800  0.67774500  0.14588900  1
  O  O42  1  0.09266600  0.43772700  0.09353300  1
  O  O43  1  0.25017900  0.15533100  0.17144600  1
