# generated using pymatgen
data_Fe10O11F9
_symmetry_space_group_name_H-M   'P 1'
_cell_length_a   4.77428500
_cell_length_b   4.77803762
_cell_length_c   15.30077055
_cell_angle_alpha   89.91365737
_cell_angle_beta   89.89312061
_cell_angle_gamma   84.99000196
_symmetry_Int_Tables_number   1
_chemical_formula_structural   Fe10O11F9
_chemical_formula_sum   'Fe10 O11 F9'
_cell_volume   347.70236581
_cell_formula_units_Z   1
loop_
 _symmetry_equiv_pos_site_id
 _symmetry_equiv_pos_as_xyz
  1  'x, y, z'
loop_
 _atom_site_type_symbol
 _atom_site_label
 _atom_site_symmetry_multiplicity
 _atom_site_fract_x
 _atom_site_fract_y
 _atom_site_fract_z
 _atom_site_occupancy
  Fe  Fe0  1  0.99345300  0.98445000  0.99486300  1
  Fe  Fe1  1  0.99063300  0.98920500  0.80421000  1
  Fe  Fe2  1  0.00170400  0.99907300  0.60108400  1
  Fe  Fe3  1  0.99462300  0.98361200  0.39536800  1
  Fe  Fe4  1  0.96069700  0.01575500  0.20409600  1
  Fe  Fe5  1  0.53051200  0.52924300  0.89905400  1
  Fe  Fe6  1  0.49646000  0.49306600  0.50104300  1
  Fe  Fe7  1  0.49728000  0.49505100  0.70057500  1
  Fe  Fe8  1  0.54312300  0.52289100  0.30710600  1
  Fe  Fe9  1  0.49736200  0.47995000  0.09335300  1
  O  O10  1  0.81387200  0.80904800  0.89763000  1
  O  O11  1  0.80887000  0.81282800  0.29889300  1
  O  O12  1  0.70415500  0.30004700  0.99821800  1
  O  O13  1  0.69703700  0.30487500  0.79463100  1
  O  O14  1  0.69502000  0.29804600  0.60320900  1
  O  O15  1  0.70644900  0.30055000  0.40513800  1
  O  O16  1  0.67986400  0.32183100  0.19922700  1
  O  O17  1  0.30625000  0.69722800  0.00049000  1
  O  O18  1  0.30710000  0.69530600  0.79464300  1
  O  O19  1  0.30117600  0.69210800  0.60307200  1
  O  O20  1  0.30840700  0.69640200  0.40299700  1
  F  F21  1  0.80772500  0.80566700  0.69878500  1
  F  F22  1  0.81061100  0.80346100  0.50288500  1
  F  F23  1  0.80181300  0.80951800  0.10155900  1
  F  F24  1  0.29171600  0.71184600  0.19781900  1
  F  F25  1  0.19648300  0.19126000  0.89794700  1
  F  F26  1  0.19261400  0.18569000  0.50153900  1
  F  F27  1  0.18943300  0.18762900  0.70038000  1
  F  F28  1  0.18537400  0.18953000  0.10207900  1
  F  F29  1  0.19018200  0.19483500  0.29810900  1
