# generated using pymatgen
data_Na4Co2P(CO4)4
_symmetry_space_group_name_H-M   'P 1'
_cell_length_a   13.85099000
_cell_length_b   13.89445200
_cell_length_c   14.38562600
_cell_angle_alpha   90.00000000
_cell_angle_beta   90.00000000
_cell_angle_gamma   90.00000000
_symmetry_Int_Tables_number   1
_chemical_formula_structural   Na4Co2P(CO4)4
_chemical_formula_sum   'Na32 Co16 P8 C32 O128'
_cell_volume   2768.54128235
_cell_formula_units_Z   8
loop_
 _symmetry_equiv_pos_site_id
 _symmetry_equiv_pos_as_xyz
  1  'x, y, z'
loop_
 _atom_site_type_symbol
 _atom_site_label
 _atom_site_symmetry_multiplicity
 _atom_site_fract_x
 _atom_site_fract_y
 _atom_site_fract_z
 _atom_site_occupancy
  Na  Na0  1  0.75000000  0.46400000  0.25000000  1
  Na  Na1  1  0.53642900  0.25000000  0.25000000  1
  Na  Na2  1  0.28642900  0.00000000  0.00000000  1
  Na  Na3  1  0.50000000  0.21400000  0.00000000  1
  Na  Na4  1  0.75000000  0.03600000  0.25000000  1
  Na  Na5  1  0.96357100  0.25000000  0.25000000  1
  Na  Na6  1  0.71357100  0.00000000  0.00000000  1
  Na  Na7  1  0.50000000  0.78600000  0.00000000  1
  Na  Na8  1  0.75000000  0.96400000  0.75000000  1
  Na  Na9  1  0.53642900  0.75000000  0.75000000  1
  Na  Na10  1  0.28642900  0.50000000  0.50000000  1
  Na  Na11  1  0.50000000  0.71400000  0.50000000  1
  Na  Na12  1  0.75000000  0.53600000  0.75000000  1
  Na  Na13  1  0.96357100  0.75000000  0.75000000  1
  Na  Na14  1  0.71357100  0.50000000  0.50000000  1
  Na  Na15  1  0.50000000  0.28600000  0.50000000  1
  Na  Na16  1  0.25000000  0.46400000  0.75000000  1
  Na  Na17  1  0.03642900  0.25000000  0.75000000  1
  Na  Na18  1  0.78642900  0.00000000  0.50000000  1
  Na  Na19  1  0.00000000  0.21400000  0.50000000  1
  Na  Na20  1  0.25000000  0.03600000  0.75000000  1
  Na  Na21  1  0.46357100  0.25000000  0.75000000  1
  Na  Na22  1  0.21357100  0.00000000  0.50000000  1
  Na  Na23  1  0.00000000  0.78600000  0.50000000  1
  Na  Na24  1  0.25000000  0.96400000  0.25000000  1
  Na  Na25  1  0.03642900  0.75000000  0.25000000  1
  Na  Na26  1  0.78642900  0.50000000  0.00000000  1
  Na  Na27  1  0.00000000  0.71400000  0.00000000  1
  Na  Na28  1  0.25000000  0.53600000  0.25000000  1
  Na  Na29  1  0.46357100  0.75000000  0.25000000  1
  Na  Na30  1  0.21357100  0.50000000  0.00000000  1
  Na  Na31  1  0.00000000  0.28600000  0.00000000  1
  Co  Co32  1  0.87500000  0.62500000  0.37500000  1
  Co  Co33  1  0.62500000  0.87500000  0.37500000  1
  Co  Co34  1  0.62500000  0.62500000  0.12500000  1
  Co  Co35  1  0.87500000  0.87500000  0.12500000  1
  Co  Co36  1  0.87500000  0.12500000  0.87500000  1
  Co  Co37  1  0.62500000  0.37500000  0.87500000  1
  Co  Co38  1  0.62500000  0.12500000  0.62500000  1
  Co  Co39  1  0.87500000  0.37500000  0.62500000  1
  Co  Co40  1  0.37500000  0.62500000  0.87500000  1
  Co  Co41  1  0.12500000  0.87500000  0.87500000  1
  Co  Co42  1  0.12500000  0.62500000  0.62500000  1
  Co  Co43  1  0.37500000  0.87500000  0.62500000  1
  Co  Co44  1  0.37500000  0.12500000  0.37500000  1
  Co  Co45  1  0.12500000  0.37500000  0.37500000  1
  Co  Co46  1  0.12500000  0.12500000  0.12500000  1
  Co  Co47  1  0.37500000  0.37500000  0.12500000  1
  P  P48  1  0.50000000  0.00000000  0.00000000  1
  P  P49  1  0.75000000  0.25000000  0.25000000  1
  P  P50  1  0.50000000  0.50000000  0.50000000  1
  P  P51  1  0.75000000  0.75000000  0.75000000  1
  P  P52  1  0.00000000  0.00000000  0.50000000  1
  P  P53  1  0.25000000  0.25000000  0.75000000  1
  P  P54  1  0.00000000  0.50000000  0.00000000  1
  P  P55  1  0.25000000  0.75000000  0.25000000  1
  C  C56  1  0.59218200  0.40939250  0.08564050  1
  C  C57  1  0.34218200  0.15939250  0.16435950  1
  C  C58  1  0.90781800  0.40939250  0.41435950  1
  C  C59  1  0.59218200  0.09060750  0.41435950  1
  C  C60  1  0.15781800  0.15939250  0.33564050  1
  C  C61  1  0.84218200  0.84060750  0.33564050  1
  C  C62  1  0.90781800  0.09060750  0.08564050  1
  C  C63  1  0.65781800  0.84060750  0.16435950  1
  C  C64  1  0.59218200  0.90939250  0.58564050  1
  C  C65  1  0.34218200  0.65939250  0.66435950  1
  C  C66  1  0.90781800  0.90939250  0.91435950  1
  C  C67  1  0.59218200  0.59060750  0.91435950  1
  C  C68  1  0.15781800  0.65939250  0.83564050  1
  C  C69  1  0.84218200  0.34060750  0.83564050  1
  C  C70  1  0.90781800  0.59060750  0.58564050  1
  C  C71  1  0.65781800  0.34060750  0.66435950  1
  C  C72  1  0.09218200  0.40939250  0.58564050  1
  C  C73  1  0.84218200  0.15939250  0.66435950  1
  C  C74  1  0.40781800  0.40939250  0.91435950  1
  C  C75  1  0.09218200  0.09060750  0.91435950  1
  C  C76  1  0.65781800  0.15939250  0.83564050  1
  C  C77  1  0.34218200  0.84060750  0.83564050  1
  C  C78  1  0.40781800  0.09060750  0.58564050  1
  C  C79  1  0.15781800  0.84060750  0.66435950  1
  C  C80  1  0.09218200  0.90939250  0.08564050  1
  C  C81  1  0.84218200  0.65939250  0.16435950  1
  C  C82  1  0.40781800  0.90939250  0.41435950  1
  C  C83  1  0.09218200  0.59060750  0.41435950  1
  C  C84  1  0.65781800  0.65939250  0.33564050  1
  C  C85  1  0.34218200  0.34060750  0.33564050  1
  C  C86  1  0.40781800  0.59060750  0.08564050  1
  C  C87  1  0.15781800  0.34060750  0.16435950  1
  O  O88  1  0.11018350  0.97808750  0.14370400  1
  O  O89  1  0.43463950  0.93409950  0.06083300  1
  O  O90  1  0.14631150  0.89874650  0.01305400  1
  O  O91  1  0.39631150  0.14874650  0.23694600  1
  O  O92  1  0.35368850  0.89874650  0.48694600  1
  O  O93  1  0.27292150  0.09879900  0.14805650  1
  O  O94  1  0.06536050  0.93409950  0.43916700  1
  O  O95  1  0.56536050  0.06590050  0.06083300  1
  O  O96  1  0.77292150  0.90120100  0.35194350  1
  O  O97  1  0.64631150  0.10125350  0.48694600  1
  O  O98  1  0.36018350  0.22808750  0.10629600  1
  O  O99  1  0.93463950  0.06590050  0.43916700  1
  O  O100  1  0.38981650  0.97808750  0.35629600  1
  O  O101  1  0.61018350  0.02191250  0.35629600  1
  O  O102  1  0.52292150  0.34879900  0.10194350  1
  O  O103  1  0.22707850  0.09879900  0.35194350  1
  O  O104  1  0.02292150  0.65120100  0.39805650  1
  O  O105  1  0.72707850  0.90120100  0.14805650  1
  O  O106  1  0.13981650  0.22808750  0.39370400  1
  O  O107  1  0.86018350  0.77191250  0.39370400  1
  O  O108  1  0.81536050  0.18409950  0.31083300  1
  O  O109  1  0.88981650  0.02191250  0.14370400  1
  O  O110  1  0.10368850  0.14874650  0.26305400  1
  O  O111  1  0.97707850  0.34879900  0.39805650  1
  O  O112  1  0.68463950  0.18409950  0.18916700  1
  O  O113  1  0.68463950  0.31590050  0.31083300  1
  O  O114  1  0.47707850  0.65120100  0.10194350  1
  O  O115  1  0.89631150  0.85125350  0.26305400  1
  O  O116  1  0.85368850  0.10125350  0.01305400  1
  O  O117  1  0.60368850  0.85125350  0.23694600  1
  O  O118  1  0.81536050  0.31590050  0.18916700  1
  O  O119  1  0.63981650  0.77191250  0.10629600  1
  O  O120  1  0.11018350  0.47808750  0.64370400  1
  O  O121  1  0.43463950  0.43409950  0.56083300  1
  O  O122  1  0.14631150  0.39874650  0.51305400  1
  O  O123  1  0.39631150  0.64874650  0.73694600  1
  O  O124  1  0.35368850  0.39874650  0.98694600  1
  O  O125  1  0.27292150  0.59879900  0.64805650  1
  O  O126  1  0.06536050  0.43409950  0.93916700  1
  O  O127  1  0.56536050  0.56590050  0.56083300  1
  O  O128  1  0.77292150  0.40120100  0.85194350  1
  O  O129  1  0.64631150  0.60125350  0.98694600  1
  O  O130  1  0.36018350  0.72808750  0.60629600  1
  O  O131  1  0.93463950  0.56590050  0.93916700  1
  O  O132  1  0.38981650  0.47808750  0.85629600  1
  O  O133  1  0.61018350  0.52191250  0.85629600  1
  O  O134  1  0.52292150  0.84879900  0.60194350  1
  O  O135  1  0.22707850  0.59879900  0.85194350  1
  O  O136  1  0.02292150  0.15120100  0.89805650  1
  O  O137  1  0.72707850  0.40120100  0.64805650  1
  O  O138  1  0.13981650  0.72808750  0.89370400  1
  O  O139  1  0.86018350  0.27191250  0.89370400  1
  O  O140  1  0.81536050  0.68409950  0.81083300  1
  O  O141  1  0.88981650  0.52191250  0.64370400  1
  O  O142  1  0.10368850  0.64874650  0.76305400  1
  O  O143  1  0.97707850  0.84879900  0.89805650  1
  O  O144  1  0.68463950  0.68409950  0.68916700  1
  O  O145  1  0.68463950  0.81590050  0.81083300  1
  O  O146  1  0.47707850  0.15120100  0.60194350  1
  O  O147  1  0.89631150  0.35125350  0.76305400  1
  O  O148  1  0.85368850  0.60125350  0.51305400  1
  O  O149  1  0.60368850  0.35125350  0.73694600  1
  O  O150  1  0.81536050  0.81590050  0.68916700  1
  O  O151  1  0.63981650  0.27191250  0.60629600  1
  O  O152  1  0.61018350  0.97808750  0.64370400  1
  O  O153  1  0.93463950  0.93409950  0.56083300  1
  O  O154  1  0.64631150  0.89874650  0.51305400  1
  O  O155  1  0.89631150  0.14874650  0.73694600  1
  O  O156  1  0.85368850  0.89874650  0.98694600  1
  O  O157  1  0.77292150  0.09879900  0.64805650  1
  O  O158  1  0.56536050  0.93409950  0.93916700  1
  O  O159  1  0.06536050  0.06590050  0.56083300  1
  O  O160  1  0.27292150  0.90120100  0.85194350  1
  O  O161  1  0.14631150  0.10125350  0.98694600  1
  O  O162  1  0.86018350  0.22808750  0.60629600  1
  O  O163  1  0.43463950  0.06590050  0.93916700  1
  O  O164  1  0.88981650  0.97808750  0.85629600  1
  O  O165  1  0.11018350  0.02191250  0.85629600  1
  O  O166  1  0.02292150  0.34879900  0.60194350  1
  O  O167  1  0.72707850  0.09879900  0.85194350  1
  O  O168  1  0.52292150  0.65120100  0.89805650  1
  O  O169  1  0.22707850  0.90120100  0.64805650  1
  O  O170  1  0.63981650  0.22808750  0.89370400  1
  O  O171  1  0.36018350  0.77191250  0.89370400  1
  O  O172  1  0.31536050  0.18409950  0.81083300  1
  O  O173  1  0.38981650  0.02191250  0.64370400  1
  O  O174  1  0.60368850  0.14874650  0.76305400  1
  O  O175  1  0.47707850  0.34879900  0.89805650  1
  O  O176  1  0.18463950  0.18409950  0.68916700  1
  O  O177  1  0.18463950  0.31590050  0.81083300  1
  O  O178  1  0.97707850  0.65120100  0.60194350  1
  O  O179  1  0.39631150  0.85125350  0.76305400  1
  O  O180  1  0.35368850  0.10125350  0.51305400  1
  O  O181  1  0.10368850  0.85125350  0.73694600  1
  O  O182  1  0.31536050  0.31590050  0.68916700  1
  O  O183  1  0.13981650  0.77191250  0.60629600  1
  O  O184  1  0.61018350  0.47808750  0.14370400  1
  O  O185  1  0.93463950  0.43409950  0.06083300  1
  O  O186  1  0.64631150  0.39874650  0.01305400  1
  O  O187  1  0.89631150  0.64874650  0.23694600  1
  O  O188  1  0.85368850  0.39874650  0.48694600  1
  O  O189  1  0.77292150  0.59879900  0.14805650  1
  O  O190  1  0.56536050  0.43409950  0.43916700  1
  O  O191  1  0.06536050  0.56590050  0.06083300  1
  O  O192  1  0.27292150  0.40120100  0.35194350  1
  O  O193  1  0.14631150  0.60125350  0.48694600  1
  O  O194  1  0.86018350  0.72808750  0.10629600  1
  O  O195  1  0.43463950  0.56590050  0.43916700  1
  O  O196  1  0.88981650  0.47808750  0.35629600  1
  O  O197  1  0.11018350  0.52191250  0.35629600  1
  O  O198  1  0.02292150  0.84879900  0.10194350  1
  O  O199  1  0.72707850  0.59879900  0.35194350  1
  O  O200  1  0.52292150  0.15120100  0.39805650  1
  O  O201  1  0.22707850  0.40120100  0.14805650  1
  O  O202  1  0.63981650  0.72808750  0.39370400  1
  O  O203  1  0.36018350  0.27191250  0.39370400  1
  O  O204  1  0.31536050  0.68409950  0.31083300  1
  O  O205  1  0.38981650  0.52191250  0.14370400  1
  O  O206  1  0.60368850  0.64874650  0.26305400  1
  O  O207  1  0.47707850  0.84879900  0.39805650  1
  O  O208  1  0.18463950  0.68409950  0.18916700  1
  O  O209  1  0.18463950  0.81590050  0.31083300  1
  O  O210  1  0.97707850  0.15120100  0.10194350  1
  O  O211  1  0.39631150  0.35125350  0.26305400  1
  O  O212  1  0.35368850  0.60125350  0.01305400  1
  O  O213  1  0.10368850  0.35125350  0.23694600  1
  O  O214  1  0.31536050  0.81590050  0.18916700  1
  O  O215  1  0.13981650  0.27191250  0.10629600  1
