# generated using pymatgen
data_Li3Co3OF7
_symmetry_space_group_name_H-M   'P 1'
_cell_length_a   10.50861400
_cell_length_b   6.07805400
_cell_length_c   10.49894299
_cell_angle_alpha   90.00000000
_cell_angle_beta   109.54161820
_cell_angle_gamma   90.00000000
_symmetry_Int_Tables_number   1
_chemical_formula_structural   Li3Co3OF7
_chemical_formula_sum   'Li12 Co12 O4 F28'
_cell_volume   631.96100923
_cell_formula_units_Z   4
loop_
 _symmetry_equiv_pos_site_id
 _symmetry_equiv_pos_as_xyz
  1  'x, y, z'
loop_
 _atom_site_type_symbol
 _atom_site_label
 _atom_site_symmetry_multiplicity
 _atom_site_fract_x
 _atom_site_fract_y
 _atom_site_fract_z
 _atom_site_occupancy
  Li  Li0  1  0.25196600  0.25755100  0.99941900  1
  Li  Li1  1  0.93969200  0.99478200  0.31165000  1
  Li  Li2  1  0.93969200  0.00521800  0.81165000  1
  Li  Li3  1  0.62321950  0.23602550  0.12828500  1
  Li  Li4  1  0.62321950  0.76397450  0.62828500  1
  Li  Li5  1  0.75196600  0.24244900  0.49941900  1
  Li  Li6  1  0.75196600  0.75755100  0.99941900  1
  Li  Li7  1  0.43969200  0.49478200  0.31165000  1
  Li  Li8  1  0.43969200  0.50521800  0.81165000  1
  Li  Li9  1  0.12321950  0.73602550  0.12828500  1
  Li  Li10  1  0.12321950  0.26397450  0.62828500  1
  Li  Li11  1  0.25196600  0.74244900  0.49941900  1
  Co  Co12  1  0.68232850  0.75708950  0.30557900  1
  Co  Co13  1  0.44521250  0.75252150  0.06825900  1
  Co  Co14  1  0.44506250  0.99499750  0.30643500  1
  Co  Co15  1  0.18232850  0.74291050  0.80557900  1
  Co  Co16  1  0.94521250  0.74747850  0.56825900  1
  Co  Co17  1  0.94506250  0.50500250  0.80643500  1
  Co  Co18  1  0.18232850  0.25708950  0.30557900  1
  Co  Co19  1  0.94521250  0.25252150  0.06825900  1
  Co  Co20  1  0.94506250  0.49499750  0.30643500  1
  Co  Co21  1  0.68232850  0.24291050  0.80557900  1
  Co  Co22  1  0.44521250  0.24747850  0.56825900  1
  Co  Co23  1  0.44506250  0.00500250  0.80643500  1
  O  O24  1  0.55770750  0.97440250  0.19079400  1
  O  O25  1  0.05770750  0.52559750  0.69079400  1
  O  O26  1  0.05770750  0.47440250  0.19079400  1
  O  O27  1  0.55770750  0.02559750  0.69079400  1
  F  F28  1  0.82096200  0.97506800  0.43775500  1
  F  F29  1  0.55903550  0.73877950  0.42896300  1
  F  F30  1  0.32278900  0.73897500  0.19276700  1
  F  F31  1  0.05321450  0.25213150  0.93323200  1
  F  F32  1  0.81826800  0.74842800  0.19761000  1
  F  F33  1  0.05321450  0.74786850  0.43323200  1
  F  F34  1  0.81826800  0.25157200  0.69761000  1
  F  F35  1  0.81587900  0.51334400  0.42575300  1
  F  F36  1  0.81587900  0.48665600  0.92575300  1
  F  F37  1  0.32096200  0.52493200  0.93775500  1
  F  F38  1  0.55862550  0.49860050  0.69419600  1
  F  F39  1  0.55862550  0.50139950  0.19419600  1
  F  F40  1  0.05903550  0.76122050  0.92896300  1
  F  F41  1  0.82278900  0.76102500  0.69276700  1
  F  F42  1  0.32096200  0.47506800  0.43775500  1
  F  F43  1  0.05903550  0.23877950  0.42896300  1
  F  F44  1  0.82278900  0.23897500  0.19276700  1
  F  F45  1  0.55321450  0.75213150  0.93323200  1
  F  F46  1  0.31826800  0.24842800  0.19761000  1
  F  F47  1  0.55321450  0.24786850  0.43323200  1
  F  F48  1  0.31826800  0.75157200  0.69761000  1
  F  F49  1  0.31587900  0.01334400  0.42575300  1
  F  F50  1  0.31587900  0.98665600  0.92575300  1
  F  F51  1  0.82096200  0.02493200  0.93775500  1
  F  F52  1  0.05862550  0.99860050  0.69419600  1
  F  F53  1  0.05862550  0.00139950  0.19419600  1
  F  F54  1  0.55903550  0.26122050  0.92896300  1
  F  F55  1  0.32278900  0.26102500  0.69276700  1
