# generated using pymatgen
data_NaCu3O2
_symmetry_space_group_name_H-M   'P 1'
_cell_length_a   7.45815200
_cell_length_b   7.48683600
_cell_length_c   14.34357700
_cell_angle_alpha   90.00000000
_cell_angle_beta   90.00000000
_cell_angle_gamma   90.00000000
_symmetry_Int_Tables_number   1
_chemical_formula_structural   NaCu3O2
_chemical_formula_sum   'Na8 Cu24 O16'
_cell_volume   800.91609151
_cell_formula_units_Z   8
loop_
 _symmetry_equiv_pos_site_id
 _symmetry_equiv_pos_as_xyz
  1  'x, y, z'
loop_
 _atom_site_type_symbol
 _atom_site_label
 _atom_site_symmetry_multiplicity
 _atom_site_fract_x
 _atom_site_fract_y
 _atom_site_fract_z
 _atom_site_occupancy
  Na  Na0  1  0.81869600  0.88527600  0.92668300  1
  Na  Na1  1  0.31869600  0.61472400  0.92668300  1
  Na  Na2  1  0.81869600  0.38527600  0.57331700  1
  Na  Na3  1  0.31869600  0.11472400  0.57331700  1
  Na  Na4  1  0.68130400  0.88527600  0.42668300  1
  Na  Na5  1  0.18130400  0.61472400  0.42668300  1
  Na  Na6  1  0.68130400  0.38527600  0.07331700  1
  Na  Na7  1  0.18130400  0.11472400  0.07331700  1
  Cu  Cu8  1  0.86550100  0.49757300  0.87940300  1
  Cu  Cu9  1  0.36550100  0.00242700  0.87940300  1
  Cu  Cu10  1  0.09662800  0.20040300  0.87764900  1
  Cu  Cu11  1  0.59662800  0.29959700  0.87764900  1
  Cu  Cu12  1  0.10859400  0.93827400  0.76302300  1
  Cu  Cu13  1  0.60859400  0.56172600  0.76302300  1
  Cu  Cu14  1  0.60859400  0.06172600  0.73697700  1
  Cu  Cu15  1  0.10859400  0.43827400  0.73697700  1
  Cu  Cu16  1  0.09662800  0.70040300  0.62235100  1
  Cu  Cu17  1  0.59662800  0.79959700  0.62235100  1
  Cu  Cu18  1  0.86550100  0.99757300  0.62059700  1
  Cu  Cu19  1  0.36550100  0.50242700  0.62059700  1
  Cu  Cu20  1  0.63449900  0.49757300  0.37940300  1
  Cu  Cu21  1  0.13449900  0.00242700  0.37940300  1
  Cu  Cu22  1  0.90337200  0.29959700  0.37764900  1
  Cu  Cu23  1  0.40337200  0.20040300  0.37764900  1
  Cu  Cu24  1  0.39140600  0.93827400  0.26302300  1
  Cu  Cu25  1  0.89140600  0.56172600  0.26302300  1
  Cu  Cu26  1  0.39140600  0.43827400  0.23697700  1
  Cu  Cu27  1  0.89140600  0.06172600  0.23697700  1
  Cu  Cu28  1  0.90337200  0.79959700  0.12235100  1
  Cu  Cu29  1  0.40337200  0.70040300  0.12235100  1
  Cu  Cu30  1  0.63449900  0.99757300  0.12059700  1
  Cu  Cu31  1  0.13449900  0.50242700  0.12059700  1
  O  O32  1  0.10323600  0.44464000  0.86617100  1
  O  O33  1  0.60323600  0.05536000  0.86617100  1
  O  O34  1  0.12167600  0.95198000  0.89349000  1
  O  O35  1  0.62167600  0.54802000  0.89349000  1
  O  O36  1  0.62167600  0.04802000  0.60651000  1
  O  O37  1  0.12167600  0.45198000  0.60651000  1
  O  O38  1  0.10323600  0.94464000  0.63382900  1
  O  O39  1  0.60323600  0.55536000  0.63382900  1
  O  O40  1  0.39676400  0.44464000  0.36617100  1
  O  O41  1  0.89676400  0.05536000  0.36617100  1
  O  O42  1  0.37832400  0.95198000  0.39349000  1
  O  O43  1  0.87832400  0.54802000  0.39349000  1
  O  O44  1  0.37832400  0.45198000  0.10651000  1
  O  O45  1  0.87832400  0.04802000  0.10651000  1
  O  O46  1  0.39676400  0.94464000  0.13382900  1
  O  O47  1  0.89676400  0.55536000  0.13382900  1
