# generated using pymatgen
data_Ba2CaI6
_symmetry_space_group_name_H-M   'P 1'
_cell_length_a   10.73390500
_cell_length_b   9.64968600
_cell_length_c   18.33106300
_cell_angle_alpha   90.00000000
_cell_angle_beta   124.24791050
_cell_angle_gamma   90.00000000
_symmetry_Int_Tables_number   1
_chemical_formula_structural   Ba2CaI6
_chemical_formula_sum   'Ba8 Ca4 I24'
_cell_volume   1569.49297994
_cell_formula_units_Z   4
loop_
 _symmetry_equiv_pos_site_id
 _symmetry_equiv_pos_as_xyz
  1  'x, y, z'
loop_
 _atom_site_type_symbol
 _atom_site_label
 _atom_site_symmetry_multiplicity
 _atom_site_fract_x
 _atom_site_fract_y
 _atom_site_fract_z
 _atom_site_occupancy
  Ba  Ba0  1  0.29051700  0.28820600  0.90506100  1
  Ba  Ba1  1  0.64342000  0.10357400  0.29075000  1
  Ba  Ba2  1  0.35658000  0.60357400  0.20925000  1
  Ba  Ba3  1  0.70948300  0.78820600  0.59493900  1
  Ba  Ba4  1  0.29051700  0.21179400  0.40506100  1
  Ba  Ba5  1  0.64342000  0.39642600  0.79075000  1
  Ba  Ba6  1  0.35658000  0.89642600  0.70925000  1
  Ba  Ba7  1  0.70948300  0.71179400  0.09493900  1
  Ca  Ca8  1  0.92971700  0.35457100  0.56976700  1
  Ca  Ca9  1  0.07028300  0.85457100  0.93023300  1
  Ca  Ca10  1  0.92971700  0.14542900  0.06976700  1
  Ca  Ca11  1  0.07028300  0.64542900  0.43023300  1
  I  I12  1  0.02635600  0.66472200  0.58621400  1
  I  I13  1  0.73016100  0.73915200  0.29755200  1
  I  I14  1  0.56711400  0.39258400  0.13613400  1
  I  I15  1  0.83722700  0.05408700  0.52181000  1
  I  I16  1  0.41076900  0.93924800  0.07418100  1
  I  I17  1  0.10468200  0.94171400  0.78085500  1
  I  I18  1  0.89531800  0.44171400  0.71914500  1
  I  I19  1  0.16277300  0.55408700  0.97819000  1
  I  I20  1  0.58923100  0.43924800  0.42581900  1
  I  I21  1  0.43288600  0.89258400  0.36386600  1
  I  I22  1  0.26983900  0.23915200  0.20244800  1
  I  I23  1  0.97364400  0.16472200  0.91378600  1
  I  I24  1  0.02635600  0.83527800  0.08621400  1
  I  I25  1  0.73016100  0.76084800  0.79755200  1
  I  I26  1  0.56711400  0.10741600  0.63613400  1
  I  I27  1  0.41076900  0.56075200  0.57418100  1
  I  I28  1  0.83722700  0.44591300  0.02181000  1
  I  I29  1  0.10468200  0.55828600  0.28085500  1
  I  I30  1  0.89531800  0.05828600  0.21914500  1
  I  I31  1  0.58923100  0.06075200  0.92581900  1
  I  I32  1  0.16277300  0.94591300  0.47819000  1
  I  I33  1  0.43288600  0.60741600  0.86386600  1
  I  I34  1  0.26983900  0.26084800  0.70244800  1
  I  I35  1  0.97364400  0.33527800  0.41378600  1
