# generated using pymatgen
data_VO2F
_symmetry_space_group_name_H-M   'P 1'
_cell_length_a   5.18094500
_cell_length_b   5.31798743
_cell_length_c   11.58635433
_cell_angle_alpha   100.87698005
_cell_angle_beta   102.18778206
_cell_angle_gamma   90.94572721
_symmetry_Int_Tables_number   1
_chemical_formula_structural   VO2F
_chemical_formula_sum   'V6 O12 F6'
_cell_volume   305.90027126
_cell_formula_units_Z   6
loop_
 _symmetry_equiv_pos_site_id
 _symmetry_equiv_pos_as_xyz
  1  'x, y, z'
loop_
 _atom_site_type_symbol
 _atom_site_label
 _atom_site_symmetry_multiplicity
 _atom_site_fract_x
 _atom_site_fract_y
 _atom_site_fract_z
 _atom_site_occupancy
  V  V0  1  0.87735200  0.81552100  0.67883700  1
  V  V1  1  0.63098300  0.65304400  0.34512400  1
  V  V2  1  0.53899700  0.53737300  0.01174800  1
  V  V3  1  0.36016000  0.36344700  0.68515400  1
  V  V4  1  0.02959600  0.03239800  0.01890900  1
  V  V5  1  0.16113000  0.14805300  0.35225700  1
  O  O6  1  0.99826700  0.08964300  0.16180300  1
  O  O7  1  0.96923800  0.89331500  0.35516200  1
  O  O8  1  0.66547000  0.58401000  0.15906000  1
  O  O9  1  0.66025300  0.74368000  0.49327600  1
  O  O10  1  0.63131300  0.55951400  0.69250900  1
  O  O11  1  0.29690700  0.21695600  0.02172700  1
  O  O12  1  0.69366800  0.77086900  0.96745800  1
  O  O13  1  0.36394500  0.44525000  0.30301900  1
  O  O14  1  0.31885300  0.24578800  0.49541800  1
  O  O15  1  0.33307000  0.40698300  0.82897600  1
  O  O16  1  0.10565600  0.60151800  0.63803000  1
  O  O17  1  0.99229400  0.91029400  0.82568000  1
  F  F18  1  0.88572300  0.39057700  0.35886600  1
  F  F19  1  0.77325600  0.27172100  0.96350800  1
  F  F20  1  0.44569900  0.94913300  0.29884900  1
  F  F21  1  0.21530600  0.71455000  0.02661000  1
  F  F22  1  0.53985900  0.04951700  0.68546900  1
  F  F23  1  0.01300500  0.10684600  0.63255100  1
