# generated using pymatgen
data_TlCrO4
_symmetry_space_group_name_H-M   'P 1'
_cell_length_a   5.85224700
_cell_length_b   8.77324000
_cell_length_c   14.90789000
_cell_angle_alpha   90.00000000
_cell_angle_beta   90.00000000
_cell_angle_gamma   90.00000000
_symmetry_Int_Tables_number   1
_chemical_formula_structural   TlCrO4
_chemical_formula_sum   'Tl8 Cr8 O32'
_cell_volume   765.41829290
_cell_formula_units_Z   8
loop_
 _symmetry_equiv_pos_site_id
 _symmetry_equiv_pos_as_xyz
  1  'x, y, z'
loop_
 _atom_site_type_symbol
 _atom_site_label
 _atom_site_symmetry_multiplicity
 _atom_site_fract_x
 _atom_site_fract_y
 _atom_site_fract_z
 _atom_site_occupancy
  Tl  Tl0  1  0.25000000  0.31995700  0.60357600  1
  Tl  Tl1  1  0.75000000  0.81995700  0.89642400  1
  Tl  Tl2  1  0.25000000  0.03671400  0.37053700  1
  Tl  Tl3  1  0.75000000  0.53671400  0.12946300  1
  Tl  Tl4  1  0.75000000  0.68004300  0.39642400  1
  Tl  Tl5  1  0.25000000  0.18004300  0.10357600  1
  Tl  Tl6  1  0.75000000  0.96328600  0.62946300  1
  Tl  Tl7  1  0.25000000  0.46328600  0.87053700  1
  Cr  Cr8  1  0.75000000  0.28077500  0.46690900  1
  Cr  Cr9  1  0.75000000  0.21922500  0.96690900  1
  Cr  Cr10  1  0.25000000  0.01916600  0.78535500  1
  Cr  Cr11  1  0.75000000  0.98083400  0.21464500  1
  Cr  Cr12  1  0.75000000  0.51916600  0.71464500  1
  Cr  Cr13  1  0.25000000  0.78077500  0.03309100  1
  Cr  Cr14  1  0.25000000  0.71922500  0.53309100  1
  Cr  Cr15  1  0.25000000  0.48083400  0.28535500  1
  O  O16  1  0.25000000  0.74321700  0.13858000  1
  O  O17  1  0.48868600  0.91203800  0.79829100  1
  O  O18  1  0.75000000  0.46833600  0.48403700  1
  O  O19  1  0.75000000  0.84509000  0.14207200  1
  O  O20  1  0.01480900  0.69978200  0.98434000  1
  O  O21  1  0.48519100  0.69978200  0.98434000  1
  O  O22  1  0.25000000  0.40549100  0.18114600  1
  O  O23  1  0.01131400  0.91203800  0.79829100  1
  O  O24  1  0.25000000  0.75678300  0.63858000  1
  O  O25  1  0.25000000  0.53166400  0.51596300  1
  O  O26  1  0.25000000  0.09450900  0.68114600  1
  O  O27  1  0.98868600  0.08796200  0.20170900  1
  O  O28  1  0.75000000  0.03166400  0.98403700  1
  O  O29  1  0.75000000  0.59450900  0.81885400  1
  O  O30  1  0.98868600  0.41203800  0.70170900  1
  O  O31  1  0.75000000  0.90549100  0.31885400  1
  O  O32  1  0.51131400  0.41203800  0.70170900  1
  O  O33  1  0.98519100  0.30021800  0.01566000  1
  O  O34  1  0.25000000  0.34509000  0.35792800  1
  O  O35  1  0.25000000  0.96833600  0.01596300  1
  O  O36  1  0.01131400  0.58796200  0.29829100  1
  O  O37  1  0.51480900  0.30021800  0.01566000  1
  O  O38  1  0.75000000  0.25678300  0.86142000  1
  O  O39  1  0.98519100  0.19978200  0.51566000  1
  O  O40  1  0.01480900  0.80021800  0.48434000  1
  O  O41  1  0.75000000  0.65491000  0.64207200  1
  O  O42  1  0.48868600  0.58796200  0.29829100  1
  O  O43  1  0.75000000  0.24321700  0.36142000  1
  O  O44  1  0.51131400  0.08796200  0.20170900  1
  O  O45  1  0.51480900  0.19978200  0.51566000  1
  O  O46  1  0.25000000  0.15491000  0.85792800  1
  O  O47  1  0.48519100  0.80021800  0.48434000  1
