# generated using pymatgen
data_Li2Fe3F8
_symmetry_space_group_name_H-M   'P 1'
_cell_length_a   10.96701400
_cell_length_b   10.96701400
_cell_length_c   10.08134800
_cell_angle_alpha   90.00000000
_cell_angle_beta   90.00000000
_cell_angle_gamma   90.00000000
_symmetry_Int_Tables_number   1
_chemical_formula_structural   Li2Fe3F8
_chemical_formula_sum   'Li16 Fe24 F64'
_cell_volume   1212.53812368
_cell_formula_units_Z   8
loop_
 _symmetry_equiv_pos_site_id
 _symmetry_equiv_pos_as_xyz
  1  'x, y, z'
loop_
 _atom_site_type_symbol
 _atom_site_label
 _atom_site_symmetry_multiplicity
 _atom_site_fract_x
 _atom_site_fract_y
 _atom_site_fract_z
 _atom_site_occupancy
  Li  Li0  1  0.59181400  0.19386100  0.49492200  1
  Li  Li1  1  0.59181400  0.69386100  0.25507800  1
  Li  Li2  1  0.69386100  0.90818600  0.00507800  1
  Li  Li3  1  0.69386100  0.40818600  0.74492200  1
  Li  Li4  1  0.80613900  0.09181400  0.24492200  1
  Li  Li5  1  0.80613900  0.59181400  0.50507800  1
  Li  Li6  1  0.90818600  0.80613900  0.75507800  1
  Li  Li7  1  0.90818600  0.30613900  0.99492200  1
  Li  Li8  1  0.09181400  0.69386100  0.99492200  1
  Li  Li9  1  0.09181400  0.19386100  0.75507800  1
  Li  Li10  1  0.19386100  0.40818600  0.50507800  1
  Li  Li11  1  0.19386100  0.90818600  0.24492200  1
  Li  Li12  1  0.30613900  0.59181400  0.74492200  1
  Li  Li13  1  0.30613900  0.09181400  0.00507800  1
  Li  Li14  1  0.40818600  0.30613900  0.25507800  1
  Li  Li15  1  0.40818600  0.80613900  0.49492200  1
  Fe  Fe16  1  0.80561800  0.13476300  0.72862000  1
  Fe  Fe17  1  0.00000000  0.00000000  0.50000000  1
  Fe  Fe18  1  0.50000000  0.50000000  0.50000000  1
  Fe  Fe19  1  0.13476300  0.19438200  0.27138000  1
  Fe  Fe20  1  0.63476300  0.19438200  0.97862000  1
  Fe  Fe21  1  0.69438200  0.36523700  0.22862000  1
  Fe  Fe22  1  0.80561800  0.63476300  0.02138000  1
  Fe  Fe23  1  0.36523700  0.30561800  0.77138000  1
  Fe  Fe24  1  0.86523700  0.30561800  0.47862000  1
  Fe  Fe25  1  0.50000000  0.00000000  0.75000000  1
  Fe  Fe26  1  0.50000000  0.00000000  0.25000000  1
  Fe  Fe27  1  0.69438200  0.86523700  0.52138000  1
  Fe  Fe28  1  0.30561800  0.63476300  0.22862000  1
  Fe  Fe29  1  0.50000000  0.50000000  0.00000000  1
  Fe  Fe30  1  0.00000000  0.00000000  0.00000000  1
  Fe  Fe31  1  0.63476300  0.69438200  0.77138000  1
  Fe  Fe32  1  0.13476300  0.69438200  0.47862000  1
  Fe  Fe33  1  0.19438200  0.86523700  0.72862000  1
  Fe  Fe34  1  0.30561800  0.13476300  0.52138000  1
  Fe  Fe35  1  0.86523700  0.80561800  0.27138000  1
  Fe  Fe36  1  0.36523700  0.80561800  0.97862000  1
  Fe  Fe37  1  0.00000000  0.50000000  0.25000000  1
  Fe  Fe38  1  0.00000000  0.50000000  0.75000000  1
  Fe  Fe39  1  0.19438200  0.36523700  0.02138000  1
  F  F40  1  0.69935150  0.04589250  0.86512750  1
  F  F41  1  0.36919750  0.45883550  0.62627750  1
  F  F42  1  0.86919750  0.45883550  0.62372250  1
  F  F43  1  0.86754950  0.96890150  0.64731550  1
  F  F44  1  0.95410750  0.19935150  0.61512750  1
  F  F45  1  0.45883550  0.63080250  0.37372250  1
  F  F46  1  0.54116450  0.36919750  0.37372250  1
  F  F47  1  0.03109850  0.36754950  0.39731550  1
  F  F48  1  0.53109850  0.36754950  0.85268450  1
  F  F49  1  0.04589250  0.80064850  0.61512750  1
  F  F50  1  0.63245050  0.53109850  0.14731550  1
  F  F51  1  0.71322050  0.27048050  0.60949050  1
  F  F52  1  0.71322050  0.77048050  0.14050950  1
  F  F53  1  0.19935150  0.04589250  0.38487250  1
  F  F54  1  0.72951950  0.21322050  0.35949050  1
  F  F55  1  0.72951950  0.71322050  0.39050950  1
  F  F56  1  0.77048050  0.28677950  0.85949050  1
  F  F57  1  0.77048050  0.78677950  0.89050950  1
  F  F58  1  0.80064850  0.45410750  0.36512750  1
  F  F59  1  0.78677950  0.22951950  0.10949050  1
  F  F60  1  0.78677950  0.72951950  0.64050950  1
  F  F61  1  0.86754950  0.46890150  0.10268450  1
  F  F62  1  0.45410750  0.19935150  0.63487250  1
  F  F63  1  0.96890150  0.13245050  0.35268450  1
  F  F64  1  0.46890150  0.13245050  0.89731550  1
  F  F65  1  0.45883550  0.13080250  0.37627750  1
  F  F66  1  0.54116450  0.86919750  0.37627750  1
  F  F67  1  0.04589250  0.30064850  0.13487250  1
  F  F68  1  0.63245050  0.03109850  0.60268450  1
  F  F69  1  0.63080250  0.54116450  0.62627750  1
  F  F70  1  0.13080250  0.54116450  0.62372250  1
  F  F71  1  0.80064850  0.95410750  0.38487250  1
  F  F72  1  0.19935150  0.54589250  0.36512750  1
  F  F73  1  0.86919750  0.95883550  0.12627750  1
  F  F74  1  0.36919750  0.95883550  0.12372250  1
  F  F75  1  0.36754950  0.46890150  0.14731550  1
  F  F76  1  0.45410750  0.69935150  0.11512750  1
  F  F77  1  0.95883550  0.13080250  0.87372250  1
  F  F78  1  0.04116450  0.86919750  0.87372250  1
  F  F79  1  0.53109850  0.86754950  0.89731550  1
  F  F80  1  0.03109850  0.86754950  0.35268450  1
  F  F81  1  0.54589250  0.30064850  0.11512750  1
  F  F82  1  0.13245050  0.03109850  0.64731550  1
  F  F83  1  0.21322050  0.77048050  0.10949050  1
  F  F84  1  0.21322050  0.27048050  0.64050950  1
  F  F85  1  0.69935150  0.54589250  0.88487250  1
  F  F86  1  0.22951950  0.71322050  0.85949050  1
  F  F87  1  0.22951950  0.21322050  0.89050950  1
  F  F88  1  0.27048050  0.78677950  0.35949050  1
  F  F89  1  0.27048050  0.28677950  0.39050950  1
  F  F90  1  0.30064850  0.95410750  0.86512750  1
  F  F91  1  0.28677950  0.72951950  0.60949050  1
  F  F92  1  0.28677950  0.22951950  0.14050950  1
  F  F93  1  0.36754950  0.96890150  0.60268450  1
  F  F94  1  0.95410750  0.69935150  0.13487250  1
  F  F95  1  0.46890150  0.63245050  0.85268450  1
  F  F96  1  0.96890150  0.63245050  0.39731550  1
  F  F97  1  0.95883550  0.63080250  0.87627750  1
  F  F98  1  0.04116450  0.36919750  0.87627750  1
  F  F99  1  0.54589250  0.80064850  0.63487250  1
  F  F100  1  0.13245050  0.53109850  0.10268450  1
  F  F101  1  0.13080250  0.04116450  0.12627750  1
  F  F102  1  0.63080250  0.04116450  0.12372250  1
  F  F103  1  0.30064850  0.45410750  0.88487250  1
