# generated using pymatgen
data_Li4MnFe5O12
_symmetry_space_group_name_H-M   'P 1'
_cell_length_a   5.13143200
_cell_length_b   8.85877000
_cell_length_c   10.22289915
_cell_angle_alpha   90.00000000
_cell_angle_beta   90.68338567
_cell_angle_gamma   90.00000000
_symmetry_Int_Tables_number   1
_chemical_formula_structural   Li4MnFe5O12
_chemical_formula_sum   'Li8 Mn2 Fe10 O24'
_cell_volume   464.68129243
_cell_formula_units_Z   2
loop_
 _symmetry_equiv_pos_site_id
 _symmetry_equiv_pos_as_xyz
  1  'x, y, z'
loop_
 _atom_site_type_symbol
 _atom_site_label
 _atom_site_symmetry_multiplicity
 _atom_site_fract_x
 _atom_site_fract_y
 _atom_site_fract_z
 _atom_site_occupancy
  Li  Li0  1  0.60579700  0.75769100  0.25085100  1
  Li  Li1  1  0.39420300  0.75769100  0.74914900  1
  Li  Li2  1  0.60183000  0.25064000  0.24859800  1
  Li  Li3  1  0.39817000  0.25064000  0.75140200  1
  Li  Li4  1  0.10579700  0.25769100  0.25085100  1
  Li  Li5  1  0.89420300  0.25769100  0.74914900  1
  Li  Li6  1  0.10183000  0.75064000  0.24859800  1
  Li  Li7  1  0.89817000  0.75064000  0.75140200  1
  Mn  Mn8  1  0.50000000  0.50056500  0.50000000  1
  Mn  Mn9  1  0.00000000  0.00056500  0.50000000  1
  Fe  Fe10  1  0.50000000  0.66177900  0.00000000  1
  Fe  Fe11  1  0.50000000  0.16238700  0.50000000  1
  Fe  Fe12  1  0.50000000  0.83715300  0.50000000  1
  Fe  Fe13  1  0.50000000  0.33465900  0.00000000  1
  Fe  Fe14  1  0.50000000  0.99837300  0.00000000  1
  Fe  Fe15  1  0.00000000  0.16177900  0.00000000  1
  Fe  Fe16  1  0.00000000  0.66238700  0.50000000  1
  Fe  Fe17  1  0.00000000  0.33715300  0.50000000  1
  Fe  Fe18  1  0.00000000  0.83465900  0.00000000  1
  Fe  Fe19  1  0.00000000  0.49837300  0.00000000  1
  O  O20  1  0.65580650  0.66538050  0.60754000  1
  O  O21  1  0.34419350  0.66538050  0.39246000  1
  O  O22  1  0.67217600  0.82692000  0.89498300  1
  O  O23  1  0.65123700  0.17914700  0.89512400  1
  O  O24  1  0.32782400  0.82692000  0.10501700  1
  O  O25  1  0.83735950  0.98911150  0.09807500  1
  O  O26  1  0.34876300  0.17914700  0.10487600  1
  O  O27  1  0.65628600  0.33492900  0.60658700  1
  O  O28  1  0.68551700  0.00034800  0.59924300  1
  O  O29  1  0.34371400  0.33492900  0.39341300  1
  O  O30  1  0.31448300  0.00034800  0.40075700  1
  O  O31  1  0.16264050  0.98911150  0.90192500  1
  O  O32  1  0.15580650  0.16538050  0.60754000  1
  O  O33  1  0.84419350  0.16538050  0.39246000  1
  O  O34  1  0.17217600  0.32692000  0.89498300  1
  O  O35  1  0.15123700  0.67914700  0.89512400  1
  O  O36  1  0.82782400  0.32692000  0.10501700  1
  O  O37  1  0.33735950  0.48911150  0.09807500  1
  O  O38  1  0.84876300  0.67914700  0.10487600  1
  O  O39  1  0.15628600  0.83492900  0.60658700  1
  O  O40  1  0.18551700  0.50034800  0.59924300  1
  O  O41  1  0.84371400  0.83492900  0.39341300  1
  O  O42  1  0.81448300  0.50034800  0.40075700  1
  O  O43  1  0.66264050  0.48911150  0.90192500  1
