# generated using pymatgen
data_Na(SnO2)2
_symmetry_space_group_name_H-M   'P 1'
_cell_length_a   9.44646000
_cell_length_b   9.44646000
_cell_length_c   9.44646000
_cell_angle_alpha   90.00000000
_cell_angle_beta   90.00000000
_cell_angle_gamma   90.00000000
_symmetry_Int_Tables_number   1
_chemical_formula_structural   Na(SnO2)2
_chemical_formula_sum   'Na8 Sn16 O32'
_cell_volume   842.96058768
_cell_formula_units_Z   8
loop_
 _symmetry_equiv_pos_site_id
 _symmetry_equiv_pos_as_xyz
  1  'x, y, z'
loop_
 _atom_site_type_symbol
 _atom_site_label
 _atom_site_symmetry_multiplicity
 _atom_site_fract_x
 _atom_site_fract_y
 _atom_site_fract_z
 _atom_site_occupancy
  Na  Na0  1  0.25000000  0.25000000  0.25000000  1
  Na  Na1  1  0.50000000  0.00000000  0.50000000  1
  Na  Na2  1  0.25000000  0.75000000  0.75000000  1
  Na  Na3  1  0.50000000  0.50000000  0.00000000  1
  Na  Na4  1  0.75000000  0.25000000  0.75000000  1
  Na  Na5  1  0.00000000  0.00000000  0.00000000  1
  Na  Na6  1  0.75000000  0.75000000  0.25000000  1
  Na  Na7  1  0.00000000  0.50000000  0.50000000  1
  Sn  Sn8  1  0.37500000  0.62500000  0.37500000  1
  Sn  Sn9  1  0.12500000  0.87500000  0.37500000  1
  Sn  Sn10  1  0.12500000  0.62500000  0.12500000  1
  Sn  Sn11  1  0.37500000  0.87500000  0.12500000  1
  Sn  Sn12  1  0.37500000  0.12500000  0.87500000  1
  Sn  Sn13  1  0.12500000  0.37500000  0.87500000  1
  Sn  Sn14  1  0.12500000  0.12500000  0.62500000  1
  Sn  Sn15  1  0.37500000  0.37500000  0.62500000  1
  Sn  Sn16  1  0.87500000  0.62500000  0.87500000  1
  Sn  Sn17  1  0.62500000  0.87500000  0.87500000  1
  Sn  Sn18  1  0.62500000  0.62500000  0.62500000  1
  Sn  Sn19  1  0.87500000  0.87500000  0.62500000  1
  Sn  Sn20  1  0.87500000  0.12500000  0.37500000  1
  Sn  Sn21  1  0.62500000  0.37500000  0.37500000  1
  Sn  Sn22  1  0.62500000  0.12500000  0.12500000  1
  Sn  Sn23  1  0.87500000  0.37500000  0.12500000  1
  O  O24  1  0.39349500  0.39349500  0.39349500  1
  O  O25  1  0.64349500  0.14349500  0.35650500  1
  O  O26  1  0.39349500  0.10650500  0.10650500  1
  O  O27  1  0.10650500  0.39349500  0.10650500  1
  O  O28  1  0.35650500  0.85650500  0.35650500  1
  O  O29  1  0.10650500  0.10650500  0.39349500  1
  O  O30  1  0.14349500  0.85650500  0.14349500  1
  O  O31  1  0.85650500  0.14349500  0.14349500  1
  O  O32  1  0.39349500  0.89349500  0.89349500  1
  O  O33  1  0.64349500  0.64349500  0.85650500  1
  O  O34  1  0.39349500  0.60650500  0.60650500  1
  O  O35  1  0.10650500  0.89349500  0.60650500  1
  O  O36  1  0.35650500  0.35650500  0.85650500  1
  O  O37  1  0.10650500  0.60650500  0.89349500  1
  O  O38  1  0.14349500  0.35650500  0.64349500  1
  O  O39  1  0.85650500  0.64349500  0.64349500  1
  O  O40  1  0.89349500  0.39349500  0.89349500  1
  O  O41  1  0.14349500  0.14349500  0.85650500  1
  O  O42  1  0.89349500  0.10650500  0.60650500  1
  O  O43  1  0.60650500  0.39349500  0.60650500  1
  O  O44  1  0.85650500  0.85650500  0.85650500  1
  O  O45  1  0.60650500  0.10650500  0.89349500  1
  O  O46  1  0.64349500  0.85650500  0.64349500  1
  O  O47  1  0.35650500  0.14349500  0.64349500  1
  O  O48  1  0.89349500  0.89349500  0.39349500  1
  O  O49  1  0.14349500  0.64349500  0.35650500  1
  O  O50  1  0.89349500  0.60650500  0.10650500  1
  O  O51  1  0.60650500  0.89349500  0.10650500  1
  O  O52  1  0.85650500  0.35650500  0.35650500  1
  O  O53  1  0.60650500  0.60650500  0.39349500  1
  O  O54  1  0.64349500  0.35650500  0.14349500  1
  O  O55  1  0.35650500  0.64349500  0.14349500  1
