# generated using pymatgen
data_LiSn(PO3)4
_symmetry_space_group_name_H-M   'P 1'
_cell_length_a   12.11007888
_cell_length_b   8.63463961
_cell_length_c   10.26308658
_cell_angle_alpha   90.00000000
_cell_angle_beta   118.75850734
_cell_angle_gamma   90.00000000
_symmetry_Int_Tables_number   1
_chemical_formula_structural   LiSn(PO3)4
_chemical_formula_sum   'Li4 Sn4 P16 O48'
_cell_volume   940.80162196
_cell_formula_units_Z   4
loop_
 _symmetry_equiv_pos_site_id
 _symmetry_equiv_pos_as_xyz
  1  'x, y, z'
loop_
 _atom_site_type_symbol
 _atom_site_label
 _atom_site_symmetry_multiplicity
 _atom_site_fract_x
 _atom_site_fract_y
 _atom_site_fract_z
 _atom_site_occupancy
  Li  Li0  1  0.74938350  0.25323650  0.99793900  1
  Li  Li1  1  0.74938350  0.74676350  0.49793900  1
  Li  Li2  1  0.24938350  0.75323650  0.99793900  1
  Li  Li3  1  0.24938350  0.24676350  0.49793900  1
  Sn  Sn4  1  0.99943600  0.05061800  0.25008300  1
  Sn  Sn5  1  0.49943600  0.44938200  0.75008300  1
  Sn  Sn6  1  0.49943600  0.55061800  0.25008300  1
  Sn  Sn7  1  0.99943600  0.94938200  0.75008300  1
  P  P8  1  0.69487800  0.00618900  0.69915400  1
  P  P9  1  0.99151800  0.27397900  0.52192600  1
  P  P10  1  0.00766000  0.27296200  0.97789400  1
  P  P11  1  0.69487800  0.99381100  0.19915400  1
  P  P12  1  0.80515050  0.50747850  0.80140400  1
  P  P13  1  0.49151800  0.22602100  0.02192600  1
  P  P14  1  0.50766000  0.22703800  0.47789400  1
  P  P15  1  0.80515050  0.49252150  0.30140400  1
  P  P16  1  0.19487800  0.50618900  0.69915400  1
  P  P17  1  0.49151800  0.77397900  0.52192600  1
  P  P18  1  0.50766000  0.77296200  0.97789400  1
  P  P19  1  0.19487800  0.49381100  0.19915400  1
  P  P20  1  0.30515050  0.00747850  0.80140400  1
  P  P21  1  0.99151800  0.72602100  0.02192600  1
  P  P22  1  0.00766000  0.72703800  0.47789400  1
  P  P23  1  0.30515050  0.99252150  0.30140400  1
  O  O24  1  0.23008300  0.57717500  0.84433200  1
  O  O25  1  0.05241900  0.24976000  0.42404900  1
  O  O26  1  0.07605400  0.38968600  0.65572500  1
  O  O27  1  0.95995850  0.13338750  0.58374500  1
  O  O28  1  0.79212100  0.08186800  0.17395300  1
  O  O29  1  0.86220200  0.36618200  0.43463700  1
  O  O30  1  0.05241900  0.75024000  0.92404900  1
  O  O31  1  0.03657300  0.13086000  0.91603000  1
  O  O32  1  0.63824700  0.86487500  0.06393000  1
  O  O33  1  0.73008300  0.92282500  0.34433200  1
  O  O34  1  0.92231950  0.38874950  0.84480500  1
  O  O35  1  0.70806600  0.57904000  0.32807300  1
  O  O36  1  0.79212100  0.91813200  0.67395300  1
  O  O37  1  0.57605400  0.11031400  0.15572500  1
  O  O38  1  0.76888250  0.57925450  0.65654800  1
  O  O39  1  0.86220200  0.63381800  0.93463700  1
  O  O40  1  0.45995850  0.36661250  0.08374500  1
  O  O41  1  0.44756850  0.74844850  0.07672700  1
  O  O42  1  0.63824700  0.13512500  0.56393000  1
  O  O43  1  0.70806600  0.42096000  0.82807300  1
  O  O44  1  0.53657300  0.36914000  0.41603000  1
  O  O45  1  0.42231950  0.11125050  0.34480500  1
  O  O46  1  0.44756850  0.25155150  0.57672700  1
  O  O47  1  0.26888250  0.92074550  0.15654800  1
  O  O48  1  0.73008300  0.07717500  0.84433200  1
  O  O49  1  0.55241900  0.74976000  0.42404900  1
  O  O50  1  0.57605400  0.88968600  0.65572500  1
  O  O51  1  0.45995850  0.63338750  0.58374500  1
  O  O52  1  0.29212100  0.58186800  0.17395300  1
  O  O53  1  0.36220200  0.86618200  0.43463700  1
  O  O54  1  0.55241900  0.25024000  0.92404900  1
  O  O55  1  0.53657300  0.63086000  0.91603000  1
  O  O56  1  0.13824700  0.36487500  0.06393000  1
  O  O57  1  0.23008300  0.42282500  0.34433200  1
  O  O58  1  0.42231950  0.88874950  0.84480500  1
  O  O59  1  0.20806600  0.07904000  0.32807300  1
  O  O60  1  0.29212100  0.41813200  0.67395300  1
  O  O61  1  0.07605400  0.61031400  0.15572500  1
  O  O62  1  0.26888250  0.07925450  0.65654800  1
  O  O63  1  0.36220200  0.13381800  0.93463700  1
  O  O64  1  0.95995850  0.86661250  0.08374500  1
  O  O65  1  0.94756850  0.24844850  0.07672700  1
  O  O66  1  0.13824700  0.63512500  0.56393000  1
  O  O67  1  0.20806600  0.92096000  0.82807300  1
  O  O68  1  0.03657300  0.86914000  0.41603000  1
  O  O69  1  0.92231950  0.61125050  0.34480500  1
  O  O70  1  0.94756850  0.75155150  0.57672700  1
  O  O71  1  0.76888250  0.42074550  0.15654800  1
