# generated using pymatgen
data_Li4Nb3V2Co3O16
_symmetry_space_group_name_H-M   'P 1'
_cell_length_a   10.40163800
_cell_length_b   6.08842800
_cell_length_c   9.81129981
_cell_angle_alpha   90.00000000
_cell_angle_beta   90.12623267
_cell_angle_gamma   90.00000000
_symmetry_Int_Tables_number   1
_chemical_formula_structural   Li4Nb3V2Co3O16
_chemical_formula_sum   'Li8 Nb6 V4 Co6 O32'
_cell_volume   621.34442048
_cell_formula_units_Z   2
loop_
 _symmetry_equiv_pos_site_id
 _symmetry_equiv_pos_as_xyz
  1  'x, y, z'
loop_
 _atom_site_type_symbol
 _atom_site_label
 _atom_site_symmetry_multiplicity
 _atom_site_fract_x
 _atom_site_fract_y
 _atom_site_fract_z
 _atom_site_occupancy
  Li  Li0  1  0.66651500  0.00000000  0.10015800  1
  Li  Li1  1  0.99603400  0.00000000  0.00214200  1
  Li  Li2  1  0.02484600  0.00000000  0.51644000  1
  Li  Li3  1  0.33545400  0.00000000  0.60931400  1
  Li  Li4  1  0.16651500  0.50000000  0.10015800  1
  Li  Li5  1  0.49603400  0.50000000  0.00214200  1
  Li  Li6  1  0.52484600  0.50000000  0.51644000  1
  Li  Li7  1  0.83545400  0.50000000  0.60931400  1
  Nb  Nb8  1  0.81347500  0.00000000  0.76785200  1
  Nb  Nb9  1  0.40537050  0.75638450  0.28735000  1
  Nb  Nb10  1  0.40537050  0.24361550  0.28735000  1
  Nb  Nb11  1  0.31347500  0.50000000  0.76785200  1
  Nb  Nb12  1  0.90537050  0.25638450  0.28735000  1
  Nb  Nb13  1  0.90537050  0.74361550  0.28735000  1
  V  V14  1  0.64608700  0.00000000  0.51453200  1
  V  V15  1  0.31934700  0.00000000  0.99543500  1
  V  V16  1  0.14608700  0.50000000  0.51453200  1
  V  V17  1  0.81934700  0.50000000  0.99543500  1
  Co  Co18  1  0.57484800  0.77063800  0.79062800  1
  Co  Co19  1  0.57484800  0.22936200  0.79062800  1
  Co  Co20  1  0.18542700  0.00000000  0.28295800  1
  Co  Co21  1  0.07484800  0.27063800  0.79062800  1
  Co  Co22  1  0.07484800  0.72936200  0.79062800  1
  Co  Co23  1  0.68542700  0.50000000  0.28295800  1
  O  O24  1  0.56955250  0.75774850  0.39974700  1
  O  O25  1  0.51420000  0.00000000  0.65663400  1
  O  O26  1  0.67276300  0.00000000  0.90189600  1
  O  O27  1  0.99311000  0.00000000  0.70636600  1
  O  O28  1  0.99237200  0.00000000  0.18804400  1
  O  O29  1  0.56955250  0.24225150  0.39974700  1
  O  O30  1  0.74326950  0.77718650  0.65350600  1
  O  O31  1  0.74326950  0.22281350  0.65350600  1
  O  O32  1  0.17040500  0.00000000  0.91305900  1
  O  O33  1  0.82203900  0.00000000  0.39328200  1
  O  O34  1  0.26817050  0.78359350  0.14317200  1
  O  O35  1  0.26817050  0.21640650  0.14317200  1
  O  O36  1  0.34366900  0.00000000  0.40961400  1
  O  O37  1  0.40249450  0.77076850  0.91187500  1
  O  O38  1  0.48042500  0.00000000  0.16633300  1
  O  O39  1  0.40249450  0.22923150  0.91187500  1
  O  O40  1  0.06955250  0.25774850  0.39974700  1
  O  O41  1  0.01420000  0.50000000  0.65663400  1
  O  O42  1  0.17276300  0.50000000  0.90189600  1
  O  O43  1  0.49311000  0.50000000  0.70636600  1
  O  O44  1  0.49237200  0.50000000  0.18804400  1
  O  O45  1  0.06955250  0.74225150  0.39974700  1
  O  O46  1  0.24326950  0.27718650  0.65350600  1
  O  O47  1  0.24326950  0.72281350  0.65350600  1
  O  O48  1  0.67040500  0.50000000  0.91305900  1
  O  O49  1  0.32203900  0.50000000  0.39328200  1
  O  O50  1  0.76817050  0.28359350  0.14317200  1
  O  O51  1  0.76817050  0.71640650  0.14317200  1
  O  O52  1  0.84366900  0.50000000  0.40961400  1
  O  O53  1  0.90249450  0.27076850  0.91187500  1
  O  O54  1  0.98042500  0.50000000  0.16633300  1
  O  O55  1  0.90249450  0.72923150  0.91187500  1
