# generated using pymatgen
data_FeBP2H5NO9
_symmetry_space_group_name_H-M   'P 1'
_cell_length_a   9.47341100
_cell_length_b   8.39051600
_cell_length_c   9.80092077
_cell_angle_alpha   90.00000000
_cell_angle_beta   102.25514140
_cell_angle_gamma   90.00000000
_symmetry_Int_Tables_number   1
_chemical_formula_structural   FeBP2H5NO9
_chemical_formula_sum   'Fe4 B4 P8 H20 N4 O36'
_cell_volume   761.29108990
_cell_formula_units_Z   4
loop_
 _symmetry_equiv_pos_site_id
 _symmetry_equiv_pos_as_xyz
  1  'x, y, z'
loop_
 _atom_site_type_symbol
 _atom_site_label
 _atom_site_symmetry_multiplicity
 _atom_site_fract_x
 _atom_site_fract_y
 _atom_site_fract_z
 _atom_site_occupancy
  Fe  Fe0  1  0.21186300  0.65350600  0.93061900  1
  Fe  Fe1  1  0.21186300  0.84649400  0.43061900  1
  Fe  Fe2  1  0.78813700  0.15350600  0.56938100  1
  Fe  Fe3  1  0.78813700  0.34649400  0.06938100  1
  B  B4  1  0.33238900  0.06245000  0.69156400  1
  B  B5  1  0.33238900  0.43755000  0.19156400  1
  B  B6  1  0.66761100  0.56245000  0.80843600  1
  B  B7  1  0.66761100  0.93755000  0.30843600  1
  P  P8  1  0.07550900  0.93758900  0.70511800  1
  P  P9  1  0.07550900  0.56241100  0.20511800  1
  P  P10  1  0.42185800  0.74287700  0.71634100  1
  P  P11  1  0.42185800  0.75712300  0.21634100  1
  P  P12  1  0.57814200  0.24287700  0.78365900  1
  P  P13  1  0.57814200  0.25712300  0.28365900  1
  P  P14  1  0.92449100  0.43758900  0.79488200  1
  P  P15  1  0.92449100  0.06241100  0.29488200  1
  H  H16  1  0.11215500  0.31363400  0.52154500  1
  H  H17  1  0.15480900  0.44580700  0.65392100  1
  H  H18  1  0.17045900  0.49869000  0.48912900  1
  H  H19  1  0.11215500  0.18636600  0.02154500  1
  H  H20  1  0.15480900  0.05419300  0.15392100  1
  H  H21  1  0.28518400  0.36495000  0.58438900  1
  H  H22  1  0.17045900  0.00131000  0.98912900  1
  H  H23  1  0.28518400  0.13505000  0.08438900  1
  H  H24  1  0.39979100  0.08253800  0.50346400  1
  H  H25  1  0.39979100  0.41746200  0.00346400  1
  H  H26  1  0.60020900  0.58253800  0.99653600  1
  H  H27  1  0.60020900  0.91746200  0.49653600  1
  H  H28  1  0.71481600  0.86495000  0.91561100  1
  H  H29  1  0.82954100  0.99869000  0.01087100  1
  H  H30  1  0.71481600  0.63505000  0.41561100  1
  H  H31  1  0.84519100  0.94580700  0.84607900  1
  H  H32  1  0.88784500  0.81363400  0.97845500  1
  H  H33  1  0.82954100  0.50131000  0.51087100  1
  H  H34  1  0.84519100  0.55419300  0.34607900  1
  H  H35  1  0.88784500  0.68636600  0.47845500  1
  N  N36  1  0.18079000  0.40610100  0.56122800  1
  N  N37  1  0.18079000  0.09389900  0.06122800  1
  N  N38  1  0.81921000  0.90610100  0.93877200  1
  N  N39  1  0.81921000  0.59389900  0.43877200  1
  O  O40  1  0.07681200  0.50582600  0.80572900  1
  O  O41  1  0.11249400  0.84687200  0.84596400  1
  O  O42  1  0.08856600  0.83424300  0.57843800  1
  O  O43  1  0.07681200  0.99417400  0.30572900  1
  O  O44  1  0.18606400  0.08116600  0.71878600  1
  O  O45  1  0.11249400  0.65312800  0.34596400  1
  O  O46  1  0.08856600  0.66575700  0.07843800  1
  O  O47  1  0.18606400  0.41883400  0.21878600  1
  O  O48  1  0.34480900  0.62950400  0.79907400  1
  O  O49  1  0.31319000  0.05254300  0.53641500  1
  O  O50  1  0.40839500  0.92049000  0.76220400  1
  O  O51  1  0.41075600  0.20976000  0.74247700  1
  O  O52  1  0.37082200  0.72360400  0.55825700  1
  O  O53  1  0.34480900  0.87049600  0.29907400  1
  O  O54  1  0.31319000  0.44745700  0.03641500  1
  O  O55  1  0.40839500  0.57951000  0.26220400  1
  O  O56  1  0.41075600  0.29024000  0.24247700  1
  O  O57  1  0.37082200  0.77639600  0.05825700  1
  O  O58  1  0.62917800  0.22360400  0.94174300  1
  O  O59  1  0.58924400  0.70976000  0.75752300  1
  O  O60  1  0.59160500  0.42049000  0.73779600  1
  O  O61  1  0.68681000  0.55254300  0.96358500  1
  O  O62  1  0.65519100  0.12950400  0.70092600  1
  O  O63  1  0.62917800  0.27639600  0.44174300  1
  O  O64  1  0.58924400  0.79024000  0.25752300  1
  O  O65  1  0.59160500  0.07951000  0.23779600  1
  O  O66  1  0.68681000  0.94745700  0.46358500  1
  O  O67  1  0.65519100  0.37049600  0.20092600  1
  O  O68  1  0.81393600  0.58116600  0.78121400  1
  O  O69  1  0.91143400  0.33424300  0.92156200  1
  O  O70  1  0.88750600  0.34687200  0.65403600  1
  O  O71  1  0.81393600  0.91883400  0.28121400  1
  O  O72  1  0.92318800  0.00582600  0.69427100  1
  O  O73  1  0.91143400  0.16575700  0.42156200  1
  O  O74  1  0.88750600  0.15312800  0.15403600  1
  O  O75  1  0.92318800  0.49417400  0.19427100  1
