# generated using pymatgen
data_Li3CrSiCO7
_symmetry_space_group_name_H-M   'P 1'
_cell_length_a   5.04580642
_cell_length_b   6.46851500
_cell_length_c   8.30816879
_cell_angle_alpha   90.00000000
_cell_angle_beta   94.83923763
_cell_angle_gamma   90.00000000
_symmetry_Int_Tables_number   1
_chemical_formula_structural   Li3CrSiCO7
_chemical_formula_sum   'Li6 Cr2 Si2 C2 O14'
_cell_volume   270.20264709
_cell_formula_units_Z   2
loop_
 _symmetry_equiv_pos_site_id
 _symmetry_equiv_pos_as_xyz
  1  'x, y, z'
loop_
 _atom_site_type_symbol
 _atom_site_label
 _atom_site_symmetry_multiplicity
 _atom_site_fract_x
 _atom_site_fract_y
 _atom_site_fract_z
 _atom_site_occupancy
  Li  Li0  1  0.72544100  0.75000000  0.10788800  1
  Li  Li1  1  0.27455900  0.25000000  0.89211200  1
  Li  Li2  1  0.26137800  0.96614800  0.29273300  1
  Li  Li3  1  0.26137800  0.53385200  0.29273300  1
  Li  Li4  1  0.73862200  0.46614800  0.70726700  1
  Li  Li5  1  0.73862200  0.03385200  0.70726700  1
  Cr  Cr6  1  0.30129500  0.75000000  0.67873500  1
  Cr  Cr7  1  0.69870500  0.25000000  0.32126500  1
  Si  Si8  1  0.78240200  0.75000000  0.42149400  1
  Si  Si9  1  0.21759800  0.25000000  0.57850600  1
  C  C10  1  0.80173600  0.25000000  0.03196400  1
  C  C11  1  0.19826400  0.75000000  0.96803600  1
  O  O12  1  0.13709000  0.75000000  0.11511300  1
  O  O13  1  0.86291000  0.25000000  0.88488700  1
  O  O14  1  0.55657400  0.25000000  0.07130200  1
  O  O15  1  0.44342600  0.75000000  0.92869800  1
  O  O16  1  0.98444800  0.25000000  0.15281600  1
  O  O17  1  0.01555200  0.75000000  0.84718400  1
  O  O18  1  0.11130600  0.75000000  0.45502800  1
  O  O19  1  0.88869400  0.25000000  0.54497200  1
  O  O20  1  0.34110900  0.25000000  0.40334500  1
  O  O21  1  0.65889100  0.75000000  0.59665500  1
  O  O22  1  0.67862100  0.94368800  0.30383600  1
  O  O23  1  0.67862100  0.55631200  0.30383600  1
  O  O24  1  0.32137900  0.44368800  0.69616400  1
  O  O25  1  0.32137900  0.05631200  0.69616400  1
