# generated using pymatgen
data_Dy2Ge2O7
_symmetry_space_group_name_H-M   'P 1'
_cell_length_a   7.04090200
_cell_length_b   9.22435800
_cell_length_c   5.01305192
_cell_angle_alpha   90.00000000
_cell_angle_beta   102.29952756
_cell_angle_gamma   90.00000000
_symmetry_Int_Tables_number   1
_chemical_formula_structural   Dy2Ge2O7
_chemical_formula_sum   'Dy4 Ge4 O14'
_cell_volume   318.11361336
_cell_formula_units_Z   2
loop_
 _symmetry_equiv_pos_site_id
 _symmetry_equiv_pos_as_xyz
  1  'x, y, z'
loop_
 _atom_site_type_symbol
 _atom_site_label
 _atom_site_symmetry_multiplicity
 _atom_site_fract_x
 _atom_site_fract_y
 _atom_site_fract_z
 _atom_site_occupancy
  Dy  Dy0  1  0.50000000  0.19758100  0.00000000  1
  Dy  Dy1  1  0.50000000  0.81017900  0.00000000  1
  Dy  Dy2  1  0.00000000  0.69758100  0.00000000  1
  Dy  Dy3  1  0.00000000  0.31017900  0.00000000  1
  Ge  Ge4  1  0.22925600  0.00527400  0.40881600  1
  Ge  Ge5  1  0.77074400  0.00527400  0.59118400  1
  Ge  Ge6  1  0.72925600  0.50527400  0.40881600  1
  Ge  Ge7  1  0.27074400  0.50527400  0.59118400  1
  O  O8  1  0.23814300  0.84684200  0.21232300  1
  O  O9  1  0.24204450  0.16342050  0.21236200  1
  O  O10  1  0.39887300  0.00334400  0.72394700  1
  O  O11  1  0.50000000  0.51529600  0.50000000  1
  O  O12  1  0.60112700  0.00334400  0.27605300  1
  O  O13  1  0.75795550  0.16342050  0.78763800  1
  O  O14  1  0.76185700  0.84684200  0.78767700  1
  O  O15  1  0.73814300  0.34684200  0.21232300  1
  O  O16  1  0.74204450  0.66342050  0.21236200  1
  O  O17  1  0.89887300  0.50334400  0.72394700  1
  O  O18  1  0.00000000  0.01529600  0.50000000  1
  O  O19  1  0.10112700  0.50334400  0.27605300  1
  O  O20  1  0.25795550  0.66342050  0.78763800  1
  O  O21  1  0.26185700  0.34684200  0.78767700  1
