# generated using pymatgen
data_SmAsO4
_symmetry_space_group_name_H-M   'P 1'
_cell_length_a   6.71668100
_cell_length_b   7.11763700
_cell_length_c   8.29091827
_cell_angle_alpha   90.00000000
_cell_angle_beta   126.13830206
_cell_angle_gamma   90.00000000
_symmetry_Int_Tables_number   1
_chemical_formula_structural   SmAsO4
_chemical_formula_sum   'Sm4 As4 O16'
_cell_volume   320.10116748
_cell_formula_units_Z   4
loop_
 _symmetry_equiv_pos_site_id
 _symmetry_equiv_pos_as_xyz
  1  'x, y, z'
loop_
 _atom_site_type_symbol
 _atom_site_label
 _atom_site_symmetry_multiplicity
 _atom_site_fract_x
 _atom_site_fract_y
 _atom_site_fract_z
 _atom_site_occupancy
  Sm  Sm0  1  0.81095100  0.14983400  0.21708000  1
  Sm  Sm1  1  0.18904900  0.64983400  0.28292000  1
  Sm  Sm2  1  0.81095100  0.35016600  0.71708000  1
  Sm  Sm3  1  0.18904900  0.85016600  0.78292000  1
  As  As4  1  0.31018100  0.16222600  0.19768100  1
  As  As5  1  0.68981900  0.66222600  0.30231900  1
  As  As6  1  0.31018100  0.33777400  0.69768100  1
  As  As7  1  0.68981900  0.83777400  0.80231900  1
  O  O8  1  0.35193800  0.10632800  0.01732600  1
  O  O9  1  0.38799800  0.71413400  0.11541400  1
  O  O10  1  0.10397100  0.34562200  0.10540700  1
  O  O11  1  0.83097600  0.49467800  0.25244400  1
  O  O12  1  0.61200200  0.21413400  0.38458600  1
  O  O13  1  0.16902400  0.99467800  0.24755600  1
  O  O14  1  0.89602900  0.84562200  0.39459300  1
  O  O15  1  0.64806200  0.60632800  0.48267400  1
  O  O16  1  0.35193800  0.39367200  0.51732600  1
  O  O17  1  0.10397100  0.15437800  0.60540700  1
  O  O18  1  0.83097600  0.00532200  0.75244400  1
  O  O19  1  0.38799800  0.78586600  0.61541400  1
  O  O20  1  0.16902400  0.50532200  0.74755600  1
  O  O21  1  0.89602900  0.65437800  0.89459300  1
  O  O22  1  0.61200200  0.28586600  0.88458600  1
  O  O23  1  0.64806200  0.89367200  0.98267400  1
