# generated using pymatgen
data_CaMgB6(HO)22
_symmetry_space_group_name_H-M   'P 1'
_cell_length_a   12.10868600
_cell_length_b   7.45909600
_cell_length_c   19.46448758
_cell_angle_alpha   90.00000000
_cell_angle_beta   90.37350502
_cell_angle_gamma   90.00000000
_symmetry_Int_Tables_number   1
_chemical_formula_structural   CaMgB6(HO)22
_chemical_formula_sum   'Ca4 Mg4 B24 H88 O88'
_cell_volume   1757.99226953
_cell_formula_units_Z   4
loop_
 _symmetry_equiv_pos_site_id
 _symmetry_equiv_pos_as_xyz
  1  'x, y, z'
loop_
 _atom_site_type_symbol
 _atom_site_label
 _atom_site_symmetry_multiplicity
 _atom_site_fract_x
 _atom_site_fract_y
 _atom_site_fract_z
 _atom_site_occupancy
  Ca  Ca0  1  0.50000000  0.28592600  0.75000000  1
  Ca  Ca1  1  0.50000000  0.71407400  0.25000000  1
  Ca  Ca2  1  0.00000000  0.78592600  0.75000000  1
  Ca  Ca3  1  0.00000000  0.21407400  0.25000000  1
  Mg  Mg4  1  0.00000000  0.00000000  0.00000000  1
  Mg  Mg5  1  0.00000000  0.00000000  0.50000000  1
  Mg  Mg6  1  0.50000000  0.50000000  0.00000000  1
  Mg  Mg7  1  0.50000000  0.50000000  0.50000000  1
  B  B8  1  0.90129900  0.04167600  0.84992700  1
  B  B9  1  0.09870100  0.04167600  0.65007300  1
  B  B10  1  0.09870100  0.95832400  0.15007300  1
  B  B11  1  0.90129900  0.95832400  0.34992700  1
  B  B12  1  0.59660200  0.64970200  0.85783700  1
  B  B13  1  0.40339800  0.64970200  0.64216300  1
  B  B14  1  0.40339800  0.35029800  0.14216300  1
  B  B15  1  0.59660200  0.35029800  0.35783700  1
  B  B16  1  0.44443700  0.86515600  0.83461100  1
  B  B17  1  0.55556300  0.86515600  0.66538900  1
  B  B18  1  0.55556300  0.13484400  0.16538900  1
  B  B19  1  0.44443700  0.13484400  0.33461100  1
  B  B20  1  0.40129900  0.54167600  0.84992700  1
  B  B21  1  0.59870100  0.54167600  0.65007300  1
  B  B22  1  0.59870100  0.45832400  0.15007300  1
  B  B23  1  0.40129900  0.45832400  0.34992700  1
  B  B24  1  0.09660200  0.14970200  0.85783700  1
  B  B25  1  0.90339800  0.14970200  0.64216300  1
  B  B26  1  0.90339800  0.85029800  0.14216300  1
  B  B27  1  0.09660200  0.85029800  0.35783700  1
  B  B28  1  0.94443700  0.36515600  0.83461100  1
  B  B29  1  0.05556300  0.36515600  0.66538900  1
  B  B30  1  0.05556300  0.63484400  0.16538900  1
  B  B31  1  0.94443700  0.63484400  0.33461100  1
  H  H32  1  0.80392950  0.02008850  0.93678200  1
  H  H33  1  0.19607050  0.02008850  0.56321800  1
  H  H34  1  0.19607050  0.97991150  0.06321800  1
  H  H35  1  0.80392950  0.97991150  0.43678200  1
  H  H36  1  0.78669250  0.84183250  0.81620800  1
  H  H37  1  0.21330750  0.84183250  0.68379200  1
  H  H38  1  0.21330750  0.15816750  0.18379200  1
  H  H39  1  0.78669250  0.15816750  0.31620800  1
  H  H40  1  0.33037150  0.05946250  0.82504000  1
  H  H41  1  0.66962850  0.05946250  0.67496000  1
  H  H42  1  0.66962850  0.94053750  0.17496000  1
  H  H43  1  0.33037150  0.94053750  0.32504000  1
  H  H44  1  0.18831700  0.07247200  0.77706700  1
  H  H45  1  0.81168300  0.07247200  0.72293300  1
  H  H46  1  0.81168300  0.92752800  0.22293300  1
  H  H47  1  0.18831700  0.92752800  0.27706700  1
  H  H48  1  0.63511600  0.74913900  0.95573700  1
  H  H49  1  0.36488400  0.74913900  0.54426300  1
  H  H50  1  0.36488400  0.25086100  0.04426300  1
  H  H51  1  0.63511600  0.25086100  0.45573700  1
  H  H52  1  0.58557200  0.24127900  0.91265000  1
  H  H53  1  0.41442800  0.24127900  0.58735000  1
  H  H54  1  0.41442800  0.75872100  0.08735000  1
  H  H55  1  0.58557200  0.75872100  0.41265000  1
  H  H56  1  0.59489700  0.15417600  0.98692000  1
  H  H57  1  0.40510300  0.15417600  0.51308000  1
  H  H58  1  0.40510300  0.84582400  0.01308000  1
  H  H59  1  0.59489700  0.84582400  0.48692000  1
  H  H60  1  0.71982700  0.19968700  0.82851700  1
  H  H61  1  0.28017300  0.19968700  0.67148300  1
  H  H62  1  0.28017300  0.80031300  0.17148300  1
  H  H63  1  0.71982700  0.80031300  0.32851700  1
  H  H64  1  0.62824300  0.04022700  0.83418000  1
  H  H65  1  0.37175700  0.04022700  0.66582000  1
  H  H66  1  0.37175700  0.95977300  0.16582000  1
  H  H67  1  0.62824300  0.95977300  0.33418000  1
  H  H68  1  0.38594250  0.10293150  0.94591500  1
  H  H69  1  0.61405750  0.10293150  0.55408500  1
  H  H70  1  0.61405750  0.89706850  0.05408500  1
  H  H71  1  0.38594250  0.89706850  0.44591500  1
  H  H72  1  0.26468500  0.03632000  0.95544300  1
  H  H73  1  0.73531500  0.03632000  0.54455700  1
  H  H74  1  0.73531500  0.96368000  0.04455700  1
  H  H75  1  0.26468500  0.96368000  0.45544300  1
  H  H76  1  0.30392950  0.52008850  0.93678200  1
  H  H77  1  0.69607050  0.52008850  0.56321800  1
  H  H78  1  0.69607050  0.47991150  0.06321800  1
  H  H79  1  0.30392950  0.47991150  0.43678200  1
  H  H80  1  0.28669250  0.34183250  0.81620800  1
  H  H81  1  0.71330750  0.34183250  0.68379200  1
  H  H82  1  0.71330750  0.65816750  0.18379200  1
  H  H83  1  0.28669250  0.65816750  0.31620800  1
  H  H84  1  0.83037150  0.55946250  0.82504000  1
  H  H85  1  0.16962850  0.55946250  0.67496000  1
  H  H86  1  0.16962850  0.44053750  0.17496000  1
  H  H87  1  0.83037150  0.44053750  0.32504000  1
  H  H88  1  0.68831700  0.57247200  0.77706700  1
  H  H89  1  0.31168300  0.57247200  0.72293300  1
  H  H90  1  0.31168300  0.42752800  0.22293300  1
  H  H91  1  0.68831700  0.42752800  0.27706700  1
  H  H92  1  0.13511600  0.24913900  0.95573700  1
  H  H93  1  0.86488400  0.24913900  0.54426300  1
  H  H94  1  0.86488400  0.75086100  0.04426300  1
  H  H95  1  0.13511600  0.75086100  0.45573700  1
  H  H96  1  0.08557200  0.74127900  0.91265000  1
  H  H97  1  0.91442800  0.74127900  0.58735000  1
  H  H98  1  0.91442800  0.25872100  0.08735000  1
  H  H99  1  0.08557200  0.25872100  0.41265000  1
  H  H100  1  0.09489700  0.65417600  0.98692000  1
  H  H101  1  0.90510300  0.65417600  0.51308000  1
  H  H102  1  0.90510300  0.34582400  0.01308000  1
  H  H103  1  0.09489700  0.34582400  0.48692000  1
  H  H104  1  0.21982700  0.69968700  0.82851700  1
  H  H105  1  0.78017300  0.69968700  0.67148300  1
  H  H106  1  0.78017300  0.30031300  0.17148300  1
  H  H107  1  0.21982700  0.30031300  0.32851700  1
  H  H108  1  0.12824300  0.54022700  0.83418000  1
  H  H109  1  0.87175700  0.54022700  0.66582000  1
  H  H110  1  0.87175700  0.45977300  0.16582000  1
  H  H111  1  0.12824300  0.45977300  0.33418000  1
  H  H112  1  0.88594250  0.60293150  0.94591500  1
  H  H113  1  0.11405750  0.60293150  0.55408500  1
  H  H114  1  0.11405750  0.39706850  0.05408500  1
  H  H115  1  0.88594250  0.39706850  0.44591500  1
  H  H116  1  0.76468500  0.53632000  0.95544300  1
  H  H117  1  0.23531500  0.53632000  0.54455700  1
  H  H118  1  0.23531500  0.46368000  0.04455700  1
  H  H119  1  0.76468500  0.46368000  0.45544300  1
  O  O120  1  0.01756500  0.01474000  0.83667100  1
  O  O121  1  0.98243500  0.01474000  0.66332900  1
  O  O122  1  0.98243500  0.98526000  0.16332900  1
  O  O123  1  0.01756500  0.98526000  0.33667100  1
  O  O124  1  0.87788750  0.98653850  0.92249400  1
  O  O125  1  0.12211250  0.98653850  0.57750600  1
  O  O126  1  0.12211250  0.01346150  0.07750600  1
  O  O127  1  0.87788750  0.01346150  0.42249400  1
  O  O128  1  0.83929100  0.93183500  0.79906400  1
  O  O129  1  0.16070900  0.93183500  0.70093600  1
  O  O130  1  0.16070900  0.06816500  0.20093600  1
  O  O131  1  0.83929100  0.06816500  0.29906400  1
  O  O132  1  0.36678500  0.73174300  0.83917400  1
  O  O133  1  0.63321500  0.73174300  0.66082600  1
  O  O134  1  0.63321500  0.26825700  0.16082600  1
  O  O135  1  0.36678500  0.26825700  0.33917400  1
  O  O136  1  0.55574100  0.83508900  0.84219700  1
  O  O137  1  0.44425900  0.83508900  0.65780300  1
  O  O138  1  0.44425900  0.16491100  0.15780300  1
  O  O139  1  0.55574100  0.16491100  0.34219700  1
  O  O140  1  0.41245300  0.04190700  0.82300200  1
  O  O141  1  0.58754700  0.04190700  0.67699800  1
  O  O142  1  0.58754700  0.95809300  0.17699800  1
  O  O143  1  0.41245300  0.95809300  0.32300200  1
  O  O144  1  0.20306350  0.12500850  0.82276500  1
  O  O145  1  0.79693650  0.12500850  0.67723500  1
  O  O146  1  0.79693650  0.87499150  0.17723500  1
  O  O147  1  0.20306350  0.87499150  0.32276500  1
  O  O148  1  0.61440600  0.63406400  0.93497000  1
  O  O149  1  0.38559400  0.63406400  0.56503000  1
  O  O150  1  0.38559400  0.36593600  0.06503000  1
  O  O151  1  0.61440600  0.36593600  0.43497000  1
  O  O152  1  0.55946400  0.25317100  0.96103300  1
  O  O153  1  0.44053600  0.25317100  0.53896700  1
  O  O154  1  0.44053600  0.74682900  0.03896700  1
  O  O155  1  0.55946400  0.74682900  0.46103300  1
  O  O156  1  0.63972300  0.17258700  0.83238300  1
  O  O157  1  0.36027700  0.17258700  0.66761700  1
  O  O158  1  0.36027700  0.82741300  0.16761700  1
  O  O159  1  0.63972300  0.82741300  0.33238300  1
  O  O160  1  0.33814500  0.03678600  0.97769500  1
  O  O161  1  0.66185500  0.03678600  0.52230500  1
  O  O162  1  0.66185500  0.96321400  0.02230500  1
  O  O163  1  0.33814500  0.96321400  0.47769500  1
  O  O164  1  0.51756500  0.51474000  0.83667100  1
  O  O165  1  0.48243500  0.51474000  0.66332900  1
  O  O166  1  0.48243500  0.48526000  0.16332900  1
  O  O167  1  0.51756500  0.48526000  0.33667100  1
  O  O168  1  0.37788750  0.48653850  0.92249400  1
  O  O169  1  0.62211250  0.48653850  0.57750600  1
  O  O170  1  0.62211250  0.51346150  0.07750600  1
  O  O171  1  0.37788750  0.51346150  0.42249400  1
  O  O172  1  0.33929100  0.43183500  0.79906400  1
  O  O173  1  0.66070900  0.43183500  0.70093600  1
  O  O174  1  0.66070900  0.56816500  0.20093600  1
  O  O175  1  0.33929100  0.56816500  0.29906400  1
  O  O176  1  0.86678500  0.23174300  0.83917400  1
  O  O177  1  0.13321500  0.23174300  0.66082600  1
  O  O178  1  0.13321500  0.76825700  0.16082600  1
  O  O179  1  0.86678500  0.76825700  0.33917400  1
  O  O180  1  0.05574100  0.33508900  0.84219700  1
  O  O181  1  0.94425900  0.33508900  0.65780300  1
  O  O182  1  0.94425900  0.66491100  0.15780300  1
  O  O183  1  0.05574100  0.66491100  0.34219700  1
  O  O184  1  0.91245300  0.54190700  0.82300200  1
  O  O185  1  0.08754700  0.54190700  0.67699800  1
  O  O186  1  0.08754700  0.45809300  0.17699800  1
  O  O187  1  0.91245300  0.45809300  0.32300200  1
  O  O188  1  0.70306350  0.62500850  0.82276500  1
  O  O189  1  0.29693650  0.62500850  0.67723500  1
  O  O190  1  0.29693650  0.37499150  0.17723500  1
  O  O191  1  0.70306350  0.37499150  0.32276500  1
  O  O192  1  0.11440600  0.13406400  0.93497000  1
  O  O193  1  0.88559400  0.13406400  0.56503000  1
  O  O194  1  0.88559400  0.86593600  0.06503000  1
  O  O195  1  0.11440600  0.86593600  0.43497000  1
  O  O196  1  0.05946400  0.75317100  0.96103300  1
  O  O197  1  0.94053600  0.75317100  0.53896700  1
  O  O198  1  0.94053600  0.24682900  0.03896700  1
  O  O199  1  0.05946400  0.24682900  0.46103300  1
  O  O200  1  0.13972300  0.67258700  0.83238300  1
  O  O201  1  0.86027700  0.67258700  0.66761700  1
  O  O202  1  0.86027700  0.32741300  0.16761700  1
  O  O203  1  0.13972300  0.32741300  0.33238300  1
  O  O204  1  0.83814500  0.53678600  0.97769500  1
  O  O205  1  0.16185500  0.53678600  0.52230500  1
  O  O206  1  0.16185500  0.46321400  0.02230500  1
  O  O207  1  0.83814500  0.46321400  0.47769500  1
