# generated using pymatgen
data_Li3Sb2(PO4)3
_symmetry_space_group_name_H-M   'P 1'
_cell_length_a   14.19151200
_cell_length_b   9.38602800
_cell_length_c   8.54176247
_cell_angle_alpha   90.00000000
_cell_angle_beta   117.67184872
_cell_angle_gamma   90.00000000
_symmetry_Int_Tables_number   1
_chemical_formula_structural   Li3Sb2(PO4)3
_chemical_formula_sum   'Li12 Sb8 P12 O48'
_cell_volume   1007.64222280
_cell_formula_units_Z   4
loop_
 _symmetry_equiv_pos_site_id
 _symmetry_equiv_pos_as_xyz
  1  'x, y, z'
loop_
 _atom_site_type_symbol
 _atom_site_label
 _atom_site_symmetry_multiplicity
 _atom_site_fract_x
 _atom_site_fract_y
 _atom_site_fract_z
 _atom_site_occupancy
  Li  Li0  1  0.25499200  0.74674400  0.76451800  1
  Li  Li1  1  0.50000000  0.14117300  0.50000000  1
  Li  Li2  1  0.74500800  0.74674400  0.23548200  1
  Li  Li3  1  0.50000000  0.86700400  0.00000000  1
  Li  Li4  1  0.19375950  0.94079750  0.38970700  1
  Li  Li5  1  0.80624050  0.94079750  0.61029300  1
  Li  Li6  1  0.75499200  0.24674400  0.76451800  1
  Li  Li7  1  0.00000000  0.64117300  0.50000000  1
  Li  Li8  1  0.24500800  0.24674400  0.23548200  1
  Li  Li9  1  0.00000000  0.36700400  0.00000000  1
  Li  Li10  1  0.69375950  0.44079750  0.38970700  1
  Li  Li11  1  0.30624050  0.44079750  0.61029300  1
  Sb  Sb12  1  0.59776650  0.25662750  0.90484300  1
  Sb  Sb13  1  0.40223350  0.25662750  0.09515700  1
  Sb  Sb14  1  0.59045900  0.75095200  0.40539000  1
  Sb  Sb15  1  0.40954100  0.75095200  0.59461000  1
  Sb  Sb16  1  0.09776650  0.75662750  0.90484300  1
  Sb  Sb17  1  0.90223350  0.75662750  0.09515700  1
  Sb  Sb18  1  0.09045900  0.25095200  0.40539000  1
  Sb  Sb19  1  0.90954100  0.25095200  0.59461000  1
  P  P20  1  0.67150150  0.92077250  0.84165300  1
  P  P21  1  0.32849850  0.92077250  0.15834700  1
  P  P22  1  0.50000000  0.41742100  0.50000000  1
  P  P23  1  0.50000000  0.58376800  0.00000000  1
  P  P24  1  0.66196450  0.08511750  0.34370200  1
  P  P25  1  0.33803550  0.08511750  0.65629800  1
  P  P26  1  0.17150150  0.42077250  0.84165300  1
  P  P27  1  0.82849850  0.42077250  0.15834700  1
  P  P28  1  0.00000000  0.91742100  0.50000000  1
  P  P29  1  0.00000000  0.08376800  0.00000000  1
  P  P30  1  0.16196450  0.58511750  0.34370200  1
  P  P31  1  0.83803550  0.58511750  0.65629800  1
  O  O32  1  0.33786800  0.13671700  0.82384700  1
  O  O33  1  0.93084300  0.99809000  0.05762600  1
  O  O34  1  0.68207950  0.08781750  0.84907100  1
  O  O35  1  0.56081900  0.12072400  0.35459000  1
  O  O36  1  0.75444950  0.84902750  0.02058600  1
  O  O37  1  0.56210100  0.87705500  0.82360700  1
  O  O38  1  0.24555050  0.84902750  0.97941400  1
  O  O39  1  0.31792050  0.08781750  0.15092900  1
  O  O40  1  0.41681800  0.31708000  0.35198600  1
  O  O41  1  0.06915700  0.99809000  0.94237400  1
  O  O42  1  0.42132050  0.68971450  0.84707300  1
  O  O43  1  0.66213200  0.13671700  0.17615300  1
  O  O44  1  0.30563250  0.87387050  0.31038500  1
  O  O45  1  0.58318200  0.31708000  0.64801400  1
  O  O46  1  0.93550450  0.00354950  0.57032300  1
  O  O47  1  0.57867950  0.68971450  0.15292700  1
  O  O48  1  0.68213500  0.91680900  0.35897300  1
  O  O49  1  0.75795150  0.14835150  0.51956600  1
  O  O50  1  0.43918100  0.12072400  0.64541000  1
  O  O51  1  0.24204850  0.14835150  0.48043400  1
  O  O52  1  0.43789900  0.87705500  0.17639300  1
  O  O53  1  0.31786500  0.91680900  0.64102700  1
  O  O54  1  0.06449550  0.00354950  0.42967700  1
  O  O55  1  0.69436750  0.87387050  0.68961500  1
  O  O56  1  0.83786800  0.63671700  0.82384700  1
  O  O57  1  0.43084300  0.49809000  0.05762600  1
  O  O58  1  0.18207950  0.58781750  0.84907100  1
  O  O59  1  0.06081900  0.62072400  0.35459000  1
  O  O60  1  0.25444950  0.34902750  0.02058600  1
  O  O61  1  0.06210100  0.37705500  0.82360700  1
  O  O62  1  0.74555050  0.34902750  0.97941400  1
  O  O63  1  0.81792050  0.58781750  0.15092900  1
  O  O64  1  0.91681800  0.81708000  0.35198600  1
  O  O65  1  0.56915700  0.49809000  0.94237400  1
  O  O66  1  0.92132050  0.18971450  0.84707300  1
  O  O67  1  0.16213200  0.63671700  0.17615300  1
  O  O68  1  0.80563250  0.37387050  0.31038500  1
  O  O69  1  0.08318200  0.81708000  0.64801400  1
  O  O70  1  0.43550450  0.50354950  0.57032300  1
  O  O71  1  0.07867950  0.18971450  0.15292700  1
  O  O72  1  0.18213500  0.41680900  0.35897300  1
  O  O73  1  0.25795150  0.64835150  0.51956600  1
  O  O74  1  0.93918100  0.62072400  0.64541000  1
  O  O75  1  0.74204850  0.64835150  0.48043400  1
  O  O76  1  0.93789900  0.37705500  0.17639300  1
  O  O77  1  0.81786500  0.41680900  0.64102700  1
  O  O78  1  0.56449550  0.50354950  0.42967700  1
  O  O79  1  0.19436750  0.37387050  0.68961500  1
