# generated using pymatgen
data_NaLuO2
_symmetry_space_group_name_H-M   'P 1'
_cell_length_a   6.57446200
_cell_length_b   13.00486200
_cell_length_c   5.82255092
_cell_angle_alpha   90.00000000
_cell_angle_beta   122.69610873
_cell_angle_gamma   90.00000000
_symmetry_Int_Tables_number   1
_chemical_formula_structural   NaLuO2
_chemical_formula_sum   'Na8 Lu8 O16'
_cell_volume   418.94583957
_cell_formula_units_Z   8
loop_
 _symmetry_equiv_pos_site_id
 _symmetry_equiv_pos_as_xyz
  1  'x, y, z'
loop_
 _atom_site_type_symbol
 _atom_site_label
 _atom_site_symmetry_multiplicity
 _atom_site_fract_x
 _atom_site_fract_y
 _atom_site_fract_z
 _atom_site_occupancy
  Na  Na0  1  0.00000000  0.44417300  0.25000000  1
  Na  Na1  1  0.00000000  0.31944100  0.75000000  1
  Na  Na2  1  0.50000000  0.18055900  0.25000000  1
  Na  Na3  1  0.50000000  0.05582700  0.75000000  1
  Na  Na4  1  0.50000000  0.94417300  0.25000000  1
  Na  Na5  1  0.50000000  0.81944100  0.75000000  1
  Na  Na6  1  0.00000000  0.68055900  0.25000000  1
  Na  Na7  1  0.00000000  0.55582700  0.75000000  1
  Lu  Lu8  1  0.50000000  0.30688200  0.75000000  1
  Lu  Lu9  1  0.00000000  0.06675300  0.75000000  1
  Lu  Lu10  1  0.50000000  0.43324700  0.25000000  1
  Lu  Lu11  1  0.00000000  0.19311800  0.25000000  1
  Lu  Lu12  1  0.00000000  0.80688200  0.75000000  1
  Lu  Lu13  1  0.50000000  0.56675300  0.75000000  1
  Lu  Lu14  1  0.00000000  0.93324700  0.25000000  1
  Lu  Lu15  1  0.50000000  0.69311800  0.25000000  1
  O  O16  1  0.20165550  0.06355750  0.20546700  1
  O  O17  1  0.27131750  0.31198350  0.29228200  1
  O  O18  1  0.70165550  0.43644250  0.70546700  1
  O  O19  1  0.72868250  0.31198350  0.20771800  1
  O  O20  1  0.77131750  0.18801650  0.79228200  1
  O  O21  1  0.79834450  0.06355750  0.29453300  1
  O  O22  1  0.22868250  0.18801650  0.70771800  1
  O  O23  1  0.29834450  0.43644250  0.79453300  1
  O  O24  1  0.70165550  0.56355750  0.20546700  1
  O  O25  1  0.77131750  0.81198350  0.29228200  1
  O  O26  1  0.20165550  0.93644250  0.70546700  1
  O  O27  1  0.22868250  0.81198350  0.20771800  1
  O  O28  1  0.27131750  0.68801650  0.79228200  1
  O  O29  1  0.29834450  0.56355750  0.29453300  1
  O  O30  1  0.72868250  0.68801650  0.70771800  1
  O  O31  1  0.79834450  0.93644250  0.79453300  1
