# generated using pymatgen
data_LiMn2(CoO4)2
_symmetry_space_group_name_H-M   'P 1'
_cell_length_a   9.76109000
_cell_length_b   5.82554600
_cell_length_c   5.63893633
_cell_angle_alpha   90.00000000
_cell_angle_beta   124.03389261
_cell_angle_gamma   90.00000000
_symmetry_Int_Tables_number   1
_chemical_formula_structural   LiMn2(CoO4)2
_chemical_formula_sum   'Li2 Mn4 Co4 O16'
_cell_volume   265.72533578
_cell_formula_units_Z   2
loop_
 _symmetry_equiv_pos_site_id
 _symmetry_equiv_pos_as_xyz
  1  'x, y, z'
loop_
 _atom_site_type_symbol
 _atom_site_label
 _atom_site_symmetry_multiplicity
 _atom_site_fract_x
 _atom_site_fract_y
 _atom_site_fract_z
 _atom_site_occupancy
  Li  Li0  1  0.50000000  0.00000000  0.50000000  1
  Li  Li1  1  0.00000000  0.50000000  0.50000000  1
  Mn  Mn2  1  0.25000000  0.25000000  0.00000000  1
  Mn  Mn3  1  0.25000000  0.75000000  0.00000000  1
  Mn  Mn4  1  0.75000000  0.75000000  0.00000000  1
  Mn  Mn5  1  0.75000000  0.25000000  0.00000000  1
  Co  Co6  1  0.00000000  0.00000000  0.50000000  1
  Co  Co7  1  0.00000000  0.00000000  0.00000000  1
  Co  Co8  1  0.50000000  0.50000000  0.50000000  1
  Co  Co9  1  0.50000000  0.50000000  0.00000000  1
  O  O10  1  0.48662600  0.72248600  0.24208000  1
  O  O11  1  0.23384000  0.00000000  0.75596800  1
  O  O12  1  0.48662600  0.27751400  0.24208000  1
  O  O13  1  0.24005200  0.00000000  0.21278500  1
  O  O14  1  0.75994800  0.00000000  0.78721500  1
  O  O15  1  0.51337400  0.72248600  0.75792000  1
  O  O16  1  0.76616000  0.00000000  0.24403200  1
  O  O17  1  0.51337400  0.27751400  0.75792000  1
  O  O18  1  0.98662600  0.22248600  0.24208000  1
  O  O19  1  0.73384000  0.50000000  0.75596800  1
  O  O20  1  0.98662600  0.77751400  0.24208000  1
  O  O21  1  0.74005200  0.50000000  0.21278500  1
  O  O22  1  0.25994800  0.50000000  0.78721500  1
  O  O23  1  0.01337400  0.22248600  0.75792000  1
  O  O24  1  0.26616000  0.50000000  0.24403200  1
  O  O25  1  0.01337400  0.77751400  0.75792000  1
