# generated using pymatgen
data_Li2Cr2O7
_symmetry_space_group_name_H-M   'P 1'
_cell_length_a   6.67267000
_cell_length_b   11.01964200
_cell_length_c   13.92075400
_cell_angle_alpha   90.00000000
_cell_angle_beta   90.00000000
_cell_angle_gamma   90.00000000
_symmetry_Int_Tables_number   1
_chemical_formula_structural   Li2Cr2O7
_chemical_formula_sum   'Li16 Cr16 O56'
_cell_volume   1023.59909136
_cell_formula_units_Z   8
loop_
 _symmetry_equiv_pos_site_id
 _symmetry_equiv_pos_as_xyz
  1  'x, y, z'
loop_
 _atom_site_type_symbol
 _atom_site_label
 _atom_site_symmetry_multiplicity
 _atom_site_fract_x
 _atom_site_fract_y
 _atom_site_fract_z
 _atom_site_occupancy
  Li  Li0  1  0.24498000  0.00000000  0.00000000  1
  Li  Li1  1  0.25502000  0.00000000  0.50000000  1
  Li  Li2  1  0.50000000  0.80946000  0.35751100  1
  Li  Li3  1  0.50000000  0.69054000  0.85751100  1
  Li  Li4  1  0.50000000  0.30946000  0.14248900  1
  Li  Li5  1  0.50000000  0.19054000  0.64248900  1
  Li  Li6  1  0.74498000  0.00000000  0.50000000  1
  Li  Li7  1  0.75502000  0.00000000  0.00000000  1
  Li  Li8  1  0.74498000  0.50000000  0.00000000  1
  Li  Li9  1  0.75502000  0.50000000  0.50000000  1
  Li  Li10  1  0.00000000  0.30946000  0.35751100  1
  Li  Li11  1  0.00000000  0.19054000  0.85751100  1
  Li  Li12  1  0.00000000  0.80946000  0.14248900  1
  Li  Li13  1  0.00000000  0.69054000  0.64248900  1
  Li  Li14  1  0.24498000  0.50000000  0.50000000  1
  Li  Li15  1  0.25502000  0.50000000  0.00000000  1
  Cr  Cr16  1  0.25000000  0.07683100  0.25000000  1
  Cr  Cr17  1  0.25000000  0.92316900  0.75000000  1
  Cr  Cr18  1  0.50000000  0.24820700  0.92052600  1
  Cr  Cr19  1  0.50000000  0.75179300  0.07947400  1
  Cr  Cr20  1  0.50000000  0.74820700  0.57947400  1
  Cr  Cr21  1  0.50000000  0.25179300  0.42052600  1
  Cr  Cr22  1  0.75000000  0.92316900  0.75000000  1
  Cr  Cr23  1  0.75000000  0.07683100  0.25000000  1
  Cr  Cr24  1  0.75000000  0.57683100  0.25000000  1
  Cr  Cr25  1  0.75000000  0.42316900  0.75000000  1
  Cr  Cr26  1  0.00000000  0.74820700  0.92052600  1
  Cr  Cr27  1  0.00000000  0.25179300  0.07947400  1
  Cr  Cr28  1  0.00000000  0.24820700  0.57947400  1
  Cr  Cr29  1  0.00000000  0.75179300  0.42052600  1
  Cr  Cr30  1  0.25000000  0.42316900  0.75000000  1
  Cr  Cr31  1  0.25000000  0.57683100  0.25000000  1
  O  O32  1  0.19571500  0.98705300  0.16129900  1
  O  O33  1  0.19571500  0.01294700  0.83870100  1
  O  O34  1  0.29675450  0.73897450  0.14875600  1
  O  O35  1  0.29675450  0.76102550  0.64875600  1
  O  O36  1  0.29675450  0.26102550  0.85124400  1
  O  O37  1  0.29675450  0.23897450  0.35124400  1
  O  O38  1  0.30428500  0.98705300  0.33870100  1
  O  O39  1  0.30428500  0.01294700  0.66129900  1
  O  O40  1  0.50000000  0.86157300  0.49866900  1
  O  O41  1  0.50000000  0.87454000  0.78347800  1
  O  O42  1  0.50000000  0.61555100  0.52482500  1
  O  O43  1  0.50000000  0.37454000  0.71652200  1
  O  O44  1  0.50000000  0.63842700  0.99866900  1
  O  O45  1  0.50000000  0.62546000  0.28347800  1
  O  O46  1  0.50000000  0.13842700  0.50133100  1
  O  O47  1  0.50000000  0.88444900  0.02482500  1
  O  O48  1  0.50000000  0.12546000  0.21652200  1
  O  O49  1  0.50000000  0.38444900  0.47517500  1
  O  O50  1  0.50000000  0.36157300  0.00133100  1
  O  O51  1  0.50000000  0.11555100  0.97517500  1
  O  O52  1  0.69571500  0.98705300  0.33870100  1
  O  O53  1  0.69571500  0.01294700  0.66129900  1
  O  O54  1  0.70324550  0.23897450  0.35124400  1
  O  O55  1  0.70324550  0.26102550  0.85124400  1
  O  O56  1  0.70324550  0.73897450  0.14875600  1
  O  O57  1  0.70324550  0.76102550  0.64875600  1
  O  O58  1  0.80428500  0.98705300  0.16129900  1
  O  O59  1  0.80428500  0.01294700  0.83870100  1
  O  O60  1  0.69571500  0.48705300  0.16129900  1
  O  O61  1  0.69571500  0.51294700  0.83870100  1
  O  O62  1  0.79675450  0.23897450  0.14875600  1
  O  O63  1  0.79675450  0.26102550  0.64875600  1
  O  O64  1  0.79675450  0.76102550  0.85124400  1
  O  O65  1  0.79675450  0.73897450  0.35124400  1
  O  O66  1  0.80428500  0.48705300  0.33870100  1
  O  O67  1  0.80428500  0.51294700  0.66129900  1
  O  O68  1  0.00000000  0.36157300  0.49866900  1
  O  O69  1  0.00000000  0.37454000  0.78347800  1
  O  O70  1  0.00000000  0.11555100  0.52482500  1
  O  O71  1  0.00000000  0.87454000  0.71652200  1
  O  O72  1  0.00000000  0.13842700  0.99866900  1
  O  O73  1  0.00000000  0.12546000  0.28347800  1
  O  O74  1  0.00000000  0.63842700  0.50133100  1
  O  O75  1  0.00000000  0.38444900  0.02482500  1
  O  O76  1  0.00000000  0.62546000  0.21652200  1
  O  O77  1  0.00000000  0.88444900  0.47517500  1
  O  O78  1  0.00000000  0.86157300  0.00133100  1
  O  O79  1  0.00000000  0.61555100  0.97517500  1
  O  O80  1  0.19571500  0.48705300  0.33870100  1
  O  O81  1  0.19571500  0.51294700  0.66129900  1
  O  O82  1  0.20324550  0.73897450  0.35124400  1
  O  O83  1  0.20324550  0.76102550  0.85124400  1
  O  O84  1  0.20324550  0.23897450  0.14875600  1
  O  O85  1  0.20324550  0.26102550  0.64875600  1
  O  O86  1  0.30428500  0.48705300  0.16129900  1
  O  O87  1  0.30428500  0.51294700  0.83870100  1
