# generated using pymatgen
data_Li3MnP2H2O9
_symmetry_space_group_name_H-M   'P 1'
_cell_length_a   14.48721600
_cell_length_b   7.03942800
_cell_length_c   6.82303412
_cell_angle_alpha   90.00000000
_cell_angle_beta   91.97693980
_cell_angle_gamma   90.00000000
_symmetry_Int_Tables_number   1
_chemical_formula_structural   Li3MnP2H2O9
_chemical_formula_sum   'Li12 Mn4 P8 H8 O36'
_cell_volume   695.41055394
_cell_formula_units_Z   4
loop_
 _symmetry_equiv_pos_site_id
 _symmetry_equiv_pos_as_xyz
  1  'x, y, z'
loop_
 _atom_site_type_symbol
 _atom_site_label
 _atom_site_symmetry_multiplicity
 _atom_site_fract_x
 _atom_site_fract_y
 _atom_site_fract_z
 _atom_site_occupancy
  Li  Li0  1  0.87637000  0.50000000  0.30120100  1
  Li  Li1  1  0.75000000  0.75000000  0.50000000  1
  Li  Li2  1  0.75000000  0.25000000  0.50000000  1
  Li  Li3  1  0.62363000  0.00000000  0.69879900  1
  Li  Li4  1  0.00000000  0.23413800  0.00000000  1
  Li  Li5  1  0.00000000  0.76586200  0.00000000  1
  Li  Li6  1  0.37637000  0.00000000  0.30120100  1
  Li  Li7  1  0.25000000  0.25000000  0.50000000  1
  Li  Li8  1  0.25000000  0.75000000  0.50000000  1
  Li  Li9  1  0.12363000  0.50000000  0.69879900  1
  Li  Li10  1  0.50000000  0.73413800  0.00000000  1
  Li  Li11  1  0.50000000  0.26586200  0.00000000  1
  Mn  Mn12  1  0.75000000  0.75000000  0.00000000  1
  Mn  Mn13  1  0.75000000  0.25000000  0.00000000  1
  Mn  Mn14  1  0.25000000  0.25000000  0.00000000  1
  Mn  Mn15  1  0.25000000  0.75000000  0.00000000  1
  P  P16  1  0.88068600  0.00000000  0.32205200  1
  P  P17  1  0.89317600  0.50000000  0.76420600  1
  P  P18  1  0.60682400  0.00000000  0.23579400  1
  P  P19  1  0.61931400  0.50000000  0.67794800  1
  P  P20  1  0.38068600  0.50000000  0.32205200  1
  P  P21  1  0.39317600  0.00000000  0.76420600  1
  P  P22  1  0.10682400  0.50000000  0.23579400  1
  P  P23  1  0.11931400  0.00000000  0.67794800  1
  H  H24  1  0.94999800  0.00000000  0.64548200  1
  H  H25  1  0.81304800  0.00000000  0.78388700  1
  H  H26  1  0.68695200  0.50000000  0.21611300  1
  H  H27  1  0.55000200  0.50000000  0.35451800  1
  H  H28  1  0.44999800  0.50000000  0.64548200  1
  H  H29  1  0.31304800  0.50000000  0.78388700  1
  H  H30  1  0.18695200  0.00000000  0.21611300  1
  H  H31  1  0.05000200  0.00000000  0.35451800  1
  O  O32  1  0.97557000  0.00000000  0.22347900  1
  O  O33  1  0.99794300  0.50000000  0.75835900  1
  O  O34  1  0.88749900  0.00000000  0.55510200  1
  O  O35  1  0.82697350  0.18291150  0.26924500  1
  O  O36  1  0.82697350  0.81708850  0.26924500  1
  O  O37  1  0.83803600  0.50000000  0.56839400  1
  O  O38  1  0.86761700  0.68148600  0.88897300  1
  O  O39  1  0.86761700  0.31851400  0.88897300  1
  O  O40  1  0.74046500  0.50000000  0.13067100  1
  O  O41  1  0.75953500  0.00000000  0.86932900  1
  O  O42  1  0.63238300  0.81851400  0.11102700  1
  O  O43  1  0.63238300  0.18148600  0.11102700  1
  O  O44  1  0.66196400  0.00000000  0.43160600  1
  O  O45  1  0.67302650  0.31708850  0.73075500  1
  O  O46  1  0.67302650  0.68291150  0.73075500  1
  O  O47  1  0.61250100  0.50000000  0.44489800  1
  O  O48  1  0.50205700  0.00000000  0.24164100  1
  O  O49  1  0.52443000  0.50000000  0.77652100  1
  O  O50  1  0.47557000  0.50000000  0.22347900  1
  O  O51  1  0.49794300  0.00000000  0.75835900  1
  O  O52  1  0.38749900  0.50000000  0.55510200  1
  O  O53  1  0.32697350  0.68291150  0.26924500  1
  O  O54  1  0.32697350  0.31708850  0.26924500  1
  O  O55  1  0.33803600  0.00000000  0.56839400  1
  O  O56  1  0.36761700  0.18148600  0.88897300  1
  O  O57  1  0.36761700  0.81851400  0.88897300  1
  O  O58  1  0.24046500  0.00000000  0.13067100  1
  O  O59  1  0.25953500  0.50000000  0.86932900  1
  O  O60  1  0.13238300  0.31851400  0.11102700  1
  O  O61  1  0.13238300  0.68148600  0.11102700  1
  O  O62  1  0.16196400  0.50000000  0.43160600  1
  O  O63  1  0.17302650  0.81708850  0.73075500  1
  O  O64  1  0.17302650  0.18291150  0.73075500  1
  O  O65  1  0.11250100  0.00000000  0.44489800  1
  O  O66  1  0.00205700  0.50000000  0.24164100  1
  O  O67  1  0.02443000  0.00000000  0.77652100  1
