# generated using pymatgen
data_PH7N2O3
_symmetry_space_group_name_H-M   'P 1'
_cell_length_a   6.53480100
_cell_length_b   11.21165400
_cell_length_c   13.71252104
_cell_angle_alpha   90.00000000
_cell_angle_beta   115.35931173
_cell_angle_gamma   90.00000000
_symmetry_Int_Tables_number   1
_chemical_formula_structural   PH7N2O3
_chemical_formula_sum   'P8 H56 N16 O24'
_cell_volume   907.85115234
_cell_formula_units_Z   8
loop_
 _symmetry_equiv_pos_site_id
 _symmetry_equiv_pos_as_xyz
  1  'x, y, z'
loop_
 _atom_site_type_symbol
 _atom_site_label
 _atom_site_symmetry_multiplicity
 _atom_site_fract_x
 _atom_site_fract_y
 _atom_site_fract_z
 _atom_site_occupancy
  P  P0  1  0.20254500  0.35405500  0.95762500  1
  P  P1  1  0.20254500  0.14594500  0.45762500  1
  P  P2  1  0.79745500  0.64594500  0.04237500  1
  P  P3  1  0.79745500  0.85405500  0.54237500  1
  P  P4  1  0.16888800  0.45994300  0.15466300  1
  P  P5  1  0.16888800  0.04005700  0.65466300  1
  P  P6  1  0.83111200  0.54005700  0.84533700  1
  P  P7  1  0.83111200  0.95994300  0.34533700  1
  H  H8  1  0.38953900  0.51277600  0.06452100  1
  H  H9  1  0.38953900  0.98722400  0.56452100  1
  H  H10  1  0.61046100  0.48722400  0.93547900  1
  H  H11  1  0.61046100  0.01277600  0.43547900  1
  H  H12  1  0.85378900  0.33939600  0.81084600  1
  H  H13  1  0.85378900  0.16060400  0.31084600  1
  H  H14  1  0.14621100  0.66060400  0.18915400  1
  H  H15  1  0.14621100  0.83939600  0.68915400  1
  H  H16  1  0.09505800  0.05280400  0.15674300  1
  H  H17  1  0.09505800  0.44719600  0.65674300  1
  H  H18  1  0.90494200  0.94719600  0.84325700  1
  H  H19  1  0.90494200  0.55280400  0.34325700  1
  H  H20  1  0.38559300  0.05474000  0.19825600  1
  H  H21  1  0.38559300  0.44526000  0.69825600  1
  H  H22  1  0.61440700  0.94526000  0.80174400  1
  H  H23  1  0.61440700  0.55474000  0.30174400  1
  H  H24  1  0.22018600  0.17606400  0.13670600  1
  H  H25  1  0.22018600  0.32393600  0.63670600  1
  H  H26  1  0.77981400  0.82393600  0.86329400  1
  H  H27  1  0.77981400  0.67606400  0.36329400  1
  H  H28  1  0.26899200  0.13341600  0.26596600  1
  H  H29  1  0.26899200  0.36658400  0.76596600  1
  H  H30  1  0.73100800  0.86658400  0.73403400  1
  H  H31  1  0.73100800  0.63341600  0.23403400  1
  H  H32  1  0.58499500  0.25497500  0.94497800  1
  H  H33  1  0.58499500  0.24502500  0.44497800  1
  H  H34  1  0.41500500  0.74502500  0.05502200  1
  H  H35  1  0.41500500  0.75497500  0.55502200  1
  H  H36  1  0.70902300  0.11680600  0.99508500  1
  H  H37  1  0.70902300  0.38319400  0.49508500  1
  H  H38  1  0.29097700  0.88319400  0.00491500  1
  H  H39  1  0.29097700  0.61680600  0.50491500  1
  H  H40  1  0.85398600  0.22214600  0.96214900  1
  H  H41  1  0.85398600  0.27785400  0.46214900  1
  H  H42  1  0.14601400  0.77785400  0.03785100  1
  H  H43  1  0.14601400  0.72214600  0.53785100  1
  H  H44  1  0.62913300  0.15308700  0.86518300  1
  H  H45  1  0.62913300  0.34691300  0.36518300  1
  H  H46  1  0.37086700  0.84691300  0.13481700  1
  H  H47  1  0.37086700  0.65308700  0.63481700  1
  H  H48  1  0.83225300  0.17192500  0.69662900  1
  H  H49  1  0.83225300  0.32807500  0.19662900  1
  H  H50  1  0.16774700  0.82807500  0.30337100  1
  H  H51  1  0.16774700  0.67192500  0.80337100  1
  H  H52  1  0.59099000  0.15602600  0.69369100  1
  H  H53  1  0.59099000  0.34397400  0.19369100  1
  H  H54  1  0.40901000  0.84397400  0.30630900  1
  H  H55  1  0.40901000  0.65602600  0.80630900  1
  H  H56  1  0.26829000  0.48609700  0.36729200  1
  H  H57  1  0.26829000  0.01390300  0.86729200  1
  H  H58  1  0.73171000  0.51390300  0.63270800  1
  H  H59  1  0.73171000  0.98609700  0.13270800  1
  H  H60  1  0.19072400  0.41015400  0.44376100  1
  H  H61  1  0.19072400  0.08984600  0.94376100  1
  H  H62  1  0.80927600  0.58984600  0.55623900  1
  H  H63  1  0.80927600  0.91015400  0.05623900  1
  N  N64  1  0.28342100  0.44469100  0.06478200  1
  N  N65  1  0.28342100  0.05530900  0.56478200  1
  N  N66  1  0.71657900  0.55530900  0.93521800  1
  N  N67  1  0.71657900  0.94469100  0.43521800  1
  N  N68  1  0.94960000  0.40361900  0.86522300  1
  N  N69  1  0.94960000  0.09638100  0.36522300  1
  N  N70  1  0.05040000  0.59638100  0.13477700  1
  N  N71  1  0.05040000  0.90361900  0.63477700  1
  N  N72  1  0.24241700  0.10495400  0.18884100  1
  N  N73  1  0.24241700  0.39504600  0.68884100  1
  N  N74  1  0.75758300  0.89504600  0.81115900  1
  N  N75  1  0.75758300  0.60495400  0.31115900  1
  N  N76  1  0.69359800  0.18742900  0.94235700  1
  N  N77  1  0.69359800  0.31257100  0.44235700  1
  N  N78  1  0.30640200  0.81257100  0.05764300  1
  N  N79  1  0.30640200  0.68742900  0.55764300  1
  O  O80  1  0.38025200  0.36641200  0.91352700  1
  O  O81  1  0.38025200  0.13358800  0.41352700  1
  O  O82  1  0.61974800  0.63358800  0.08647300  1
  O  O83  1  0.61974800  0.86641200  0.58647300  1
  O  O84  1  0.16441000  0.22844400  0.98813000  1
  O  O85  1  0.16441000  0.27155600  0.48813000  1
  O  O86  1  0.83559000  0.77155600  0.01187000  1
  O  O87  1  0.83559000  0.72844400  0.51187000  1
  O  O88  1  0.36882400  0.46748300  0.26675300  1
  O  O89  1  0.36882400  0.03251700  0.76675300  1
  O  O90  1  0.63117600  0.53251700  0.73324700  1
  O  O91  1  0.63117600  0.96748300  0.23324700  1
  O  O92  1  0.99901100  0.36167600  0.13279400  1
  O  O93  1  0.99901100  0.13832400  0.63279400  1
  O  O94  1  0.00098900  0.63832400  0.86720600  1
  O  O95  1  0.00098900  0.86167600  0.36720600  1
  O  O96  1  0.73554900  0.19690500  0.73316300  1
  O  O97  1  0.73554900  0.30309500  0.23316300  1
  O  O98  1  0.26445100  0.80309500  0.26683700  1
  O  O99  1  0.26445100  0.69690500  0.76683700  1
  O  O100  1  0.19638600  0.49326700  0.41796000  1
  O  O101  1  0.19638600  0.00673300  0.91796000  1
  O  O102  1  0.80361400  0.50673300  0.58204000  1
  O  O103  1  0.80361400  0.99326700  0.08204000  1
