# generated using pymatgen
data_Mg2NF
_symmetry_space_group_name_H-M   'P 1'
_cell_length_a   4.22023000
_cell_length_b   4.22023000
_cell_length_c   10.18011400
_cell_angle_alpha   90.00000000
_cell_angle_beta   90.00000000
_cell_angle_gamma   90.00000000
_symmetry_Int_Tables_number   1
_chemical_formula_structural   Mg2NF
_chemical_formula_sum   'Mg8 N4 F4'
_cell_volume   181.31130433
_cell_formula_units_Z   4
loop_
 _symmetry_equiv_pos_site_id
 _symmetry_equiv_pos_as_xyz
  1  'x, y, z'
loop_
 _atom_site_type_symbol
 _atom_site_label
 _atom_site_symmetry_multiplicity
 _atom_site_fract_x
 _atom_site_fract_y
 _atom_site_fract_z
 _atom_site_occupancy
  Mg  Mg0  1  0.00000000  0.00000000  0.21197900  1
  Mg  Mg1  1  0.00000000  0.50000000  0.46197900  1
  Mg  Mg2  1  0.00000000  0.50000000  0.03802100  1
  Mg  Mg3  1  0.50000000  0.50000000  0.28802100  1
  Mg  Mg4  1  0.50000000  0.50000000  0.71197900  1
  Mg  Mg5  1  0.50000000  0.00000000  0.96197900  1
  Mg  Mg6  1  0.50000000  0.00000000  0.53802100  1
  Mg  Mg7  1  0.00000000  0.00000000  0.78802100  1
  N  N8  1  0.00000000  0.00000000  0.00000000  1
  N  N9  1  0.00000000  0.50000000  0.25000000  1
  N  N10  1  0.50000000  0.50000000  0.50000000  1
  N  N11  1  0.50000000  0.00000000  0.75000000  1
  F  F12  1  0.50000000  0.50000000  0.00000000  1
  F  F13  1  0.50000000  0.00000000  0.25000000  1
  F  F14  1  0.00000000  0.00000000  0.50000000  1
  F  F15  1  0.00000000  0.50000000  0.75000000  1
