# generated using pymatgen
data_LiFeF4
_symmetry_space_group_name_H-M   'P 1'
_cell_length_a   10.51764600
_cell_length_b   9.33443600
_cell_length_c   7.14595067
_cell_angle_alpha   90.00000000
_cell_angle_beta   108.68671406
_cell_angle_gamma   90.00000000
_symmetry_Int_Tables_number   1
_chemical_formula_structural   LiFeF4
_chemical_formula_sum   'Li8 Fe8 F32'
_cell_volume   664.57977631
_cell_formula_units_Z   8
loop_
 _symmetry_equiv_pos_site_id
 _symmetry_equiv_pos_as_xyz
  1  'x, y, z'
loop_
 _atom_site_type_symbol
 _atom_site_label
 _atom_site_symmetry_multiplicity
 _atom_site_fract_x
 _atom_site_fract_y
 _atom_site_fract_z
 _atom_site_occupancy
  Li  Li0  1  0.70289400  0.50000000  0.85776200  1
  Li  Li1  1  0.00000000  0.18140600  0.50000000  1
  Li  Li2  1  0.00000000  0.81859400  0.50000000  1
  Li  Li3  1  0.29710600  0.50000000  0.14223800  1
  Li  Li4  1  0.20289400  0.00000000  0.85776200  1
  Li  Li5  1  0.50000000  0.68140600  0.50000000  1
  Li  Li6  1  0.50000000  0.31859400  0.50000000  1
  Li  Li7  1  0.79710600  0.00000000  0.14223800  1
  Fe  Fe8  1  0.76946500  0.50000000  0.40875600  1
  Fe  Fe9  1  0.00000000  0.24708700  0.00000000  1
  Fe  Fe10  1  0.00000000  0.75291300  0.00000000  1
  Fe  Fe11  1  0.23053500  0.50000000  0.59124400  1
  Fe  Fe12  1  0.26946500  0.00000000  0.40875600  1
  Fe  Fe13  1  0.50000000  0.74708700  0.00000000  1
  Fe  Fe14  1  0.50000000  0.25291300  0.00000000  1
  Fe  Fe15  1  0.73053500  0.00000000  0.59124400  1
  F  F16  1  0.64138100  0.50000000  0.54023900  1
  F  F17  1  0.69370800  0.50000000  0.13553800  1
  F  F18  1  0.84906000  0.64471300  0.88623200  1
  F  F19  1  0.84906000  0.35528700  0.88623200  1
  F  F20  1  0.86684100  0.66512300  0.47441800  1
  F  F21  1  0.86684100  0.33487700  0.47441800  1
  F  F22  1  0.04063600  0.15262000  0.79631300  1
  F  F23  1  0.04063600  0.84738000  0.79631300  1
  F  F24  1  0.95936400  0.15262000  0.20368700  1
  F  F25  1  0.95936400  0.84738000  0.20368700  1
  F  F26  1  0.13315900  0.33487700  0.52558200  1
  F  F27  1  0.13315900  0.66512300  0.52558200  1
  F  F28  1  0.15094000  0.64471300  0.11376800  1
  F  F29  1  0.15094000  0.35528700  0.11376800  1
  F  F30  1  0.30629200  0.50000000  0.86446200  1
  F  F31  1  0.35861900  0.50000000  0.45976100  1
  F  F32  1  0.14138100  0.00000000  0.54023900  1
  F  F33  1  0.19370800  0.00000000  0.13553800  1
  F  F34  1  0.34906000  0.14471300  0.88623200  1
  F  F35  1  0.34906000  0.85528700  0.88623200  1
  F  F36  1  0.36684100  0.16512300  0.47441800  1
  F  F37  1  0.36684100  0.83487700  0.47441800  1
  F  F38  1  0.54063600  0.65262000  0.79631300  1
  F  F39  1  0.54063600  0.34738000  0.79631300  1
  F  F40  1  0.45936400  0.65262000  0.20368700  1
  F  F41  1  0.45936400  0.34738000  0.20368700  1
  F  F42  1  0.63315900  0.83487700  0.52558200  1
  F  F43  1  0.63315900  0.16512300  0.52558200  1
  F  F44  1  0.65094000  0.14471300  0.11376800  1
  F  F45  1  0.65094000  0.85528700  0.11376800  1
  F  F46  1  0.80629200  0.00000000  0.86446200  1
  F  F47  1  0.85861900  0.00000000  0.45976100  1
