# generated using pymatgen
data_LiCrPO5
_symmetry_space_group_name_H-M   'P 1'
_cell_length_a   4.98055701
_cell_length_b   10.33096300
_cell_length_c   7.22058572
_cell_angle_alpha   90.00000000
_cell_angle_beta   111.09778478
_cell_angle_gamma   90.00000000
_symmetry_Int_Tables_number   1
_chemical_formula_structural   LiCrPO5
_chemical_formula_sum   'Li4 Cr4 P4 O20'
_cell_volume   346.62321252
_cell_formula_units_Z   4
loop_
 _symmetry_equiv_pos_site_id
 _symmetry_equiv_pos_as_xyz
  1  'x, y, z'
loop_
 _atom_site_type_symbol
 _atom_site_label
 _atom_site_symmetry_multiplicity
 _atom_site_fract_x
 _atom_site_fract_y
 _atom_site_fract_z
 _atom_site_occupancy
  Li  Li0  1  0.95868200  0.39784700  0.33304200  1
  Li  Li1  1  0.04131800  0.89784700  0.16695800  1
  Li  Li2  1  0.95868200  0.10215300  0.83304200  1
  Li  Li3  1  0.04131800  0.60215300  0.66695800  1
  Cr  Cr4  1  0.43907100  0.57299700  0.32159600  1
  Cr  Cr5  1  0.56092900  0.07299700  0.17840400  1
  Cr  Cr6  1  0.43907100  0.92700300  0.82159600  1
  Cr  Cr7  1  0.56092900  0.42700300  0.67840400  1
  P  P8  1  0.18986400  0.15133700  0.47160900  1
  P  P9  1  0.18986400  0.34866300  0.97160900  1
  P  P10  1  0.81013600  0.65133700  0.02839100  1
  P  P11  1  0.81013600  0.84866300  0.52839100  1
  O  O12  1  0.65518200  0.71811200  0.46923300  1
  O  O13  1  0.87217500  0.18955900  0.35171600  1
  O  O14  1  0.27114300  0.54396500  0.50053300  1
  O  O15  1  0.78857000  0.92630200  0.34013200  1
  O  O16  1  0.31335300  0.07004900  0.34096600  1
  O  O17  1  0.21143000  0.42630200  0.15986800  1
  O  O18  1  0.12782500  0.68955900  0.14828400  1
  O  O19  1  0.34481800  0.21811200  0.03076700  1
  O  O20  1  0.68664700  0.57004900  0.15903400  1
  O  O21  1  0.27114300  0.95603500  0.00053300  1
  O  O22  1  0.72885700  0.04396500  0.99946700  1
  O  O23  1  0.31335300  0.42995100  0.84096600  1
  O  O24  1  0.65518200  0.78188800  0.96923300  1
  O  O25  1  0.87217500  0.31044100  0.85171600  1
  O  O26  1  0.78857000  0.57369800  0.84013200  1
  O  O27  1  0.68664700  0.92995100  0.65903400  1
  O  O28  1  0.21143000  0.07369800  0.65986800  1
  O  O29  1  0.72885700  0.45603500  0.49946700  1
  O  O30  1  0.12782500  0.81044100  0.64828400  1
  O  O31  1  0.34481800  0.28188800  0.53076700  1
