# generated using pymatgen
data_NaSc(SiO3)2
_symmetry_space_group_name_H-M   'P 1'
_cell_length_a   9.99859400
_cell_length_b   9.15445600
_cell_length_c   5.42133879
_cell_angle_alpha   90.00000000
_cell_angle_beta   107.60777678
_cell_angle_gamma   90.00000000
_symmetry_Int_Tables_number   1
_chemical_formula_structural   NaSc(SiO3)2
_chemical_formula_sum   'Na4 Sc4 Si8 O24'
_cell_volume   472.97599771
_cell_formula_units_Z   4
loop_
 _symmetry_equiv_pos_site_id
 _symmetry_equiv_pos_as_xyz
  1  'x, y, z'
loop_
 _atom_site_type_symbol
 _atom_site_label
 _atom_site_symmetry_multiplicity
 _atom_site_fract_x
 _atom_site_fract_y
 _atom_site_fract_z
 _atom_site_occupancy
  Na  Na0  1  0.00000000  0.69974400  0.75000000  1
  Na  Na1  1  0.00000000  0.30025600  0.25000000  1
  Na  Na2  1  0.50000000  0.19974400  0.75000000  1
  Na  Na3  1  0.50000000  0.80025600  0.25000000  1
  Sc  Sc4  1  0.00000000  0.10557000  0.75000000  1
  Sc  Sc5  1  0.00000000  0.89443000  0.25000000  1
  Sc  Sc6  1  0.50000000  0.60557000  0.75000000  1
  Sc  Sc7  1  0.50000000  0.39443000  0.25000000  1
  Si  Si8  1  0.79041600  0.41332400  0.74475200  1
  Si  Si9  1  0.79041600  0.58667600  0.24475200  1
  Si  Si10  1  0.20958400  0.41332400  0.75524800  1
  Si  Si11  1  0.20958400  0.58667600  0.25524800  1
  Si  Si12  1  0.29041600  0.91332400  0.74475200  1
  Si  Si13  1  0.29041600  0.08667600  0.24475200  1
  Si  Si14  1  0.70958400  0.91332400  0.75524800  1
  Si  Si15  1  0.70958400  0.08667600  0.25524800  1
  O  O16  1  0.84921850  0.49597750  0.52422300  1
  O  O17  1  0.15078150  0.49597750  0.97577700  1
  O  O18  1  0.15078150  0.50402250  0.47577700  1
  O  O19  1  0.84921850  0.50402250  0.02422300  1
  O  O20  1  0.86042450  0.25315050  0.80396500  1
  O  O21  1  0.13957550  0.25315050  0.69603500  1
  O  O22  1  0.13957550  0.74684950  0.19603500  1
  O  O23  1  0.86042450  0.74684950  0.30396500  1
  O  O24  1  0.61820750  0.57879650  0.14551100  1
  O  O25  1  0.38179250  0.57879650  0.35448900  1
  O  O26  1  0.38179250  0.42120350  0.85448900  1
  O  O27  1  0.61820750  0.42120350  0.64551100  1
  O  O28  1  0.34921850  0.99597750  0.52422300  1
  O  O29  1  0.65078150  0.99597750  0.97577700  1
  O  O30  1  0.65078150  0.00402250  0.47577700  1
  O  O31  1  0.34921850  0.00402250  0.02422300  1
  O  O32  1  0.36042450  0.75315050  0.80396500  1
  O  O33  1  0.63957550  0.75315050  0.69603500  1
  O  O34  1  0.63957550  0.24684950  0.19603500  1
  O  O35  1  0.36042450  0.24684950  0.30396500  1
  O  O36  1  0.11820750  0.07879650  0.14551100  1
  O  O37  1  0.88179250  0.07879650  0.35448900  1
  O  O38  1  0.88179250  0.92120350  0.85448900  1
  O  O39  1  0.11820750  0.92120350  0.64551100  1
