# generated using pymatgen
data_Hf2N2O
_symmetry_space_group_name_H-M   'P 1'
_cell_length_a   8.71262800
_cell_length_b   8.72778206
_cell_length_c   8.74461060
_cell_angle_alpha   109.39599045
_cell_angle_beta   109.49587127
_cell_angle_gamma   109.40139916
_symmetry_Int_Tables_number   1
_chemical_formula_structural   Hf2N2O
_chemical_formula_sum   'Hf16 N16 O8'
_cell_volume   512.64294424
_cell_formula_units_Z   8
loop_
 _symmetry_equiv_pos_site_id
 _symmetry_equiv_pos_as_xyz
  1  'x, y, z'
loop_
 _atom_site_type_symbol
 _atom_site_label
 _atom_site_symmetry_multiplicity
 _atom_site_fract_x
 _atom_site_fract_y
 _atom_site_fract_z
 _atom_site_occupancy
  Hf  Hf0  1  0.99836700  0.00954200  0.50040400  1
  Hf  Hf1  1  0.25804600  0.71629600  0.46491400  1
  Hf  Hf2  1  0.77620900  0.53421800  0.25374200  1
  Hf  Hf3  1  0.28615400  0.03550700  0.24847800  1
  Hf  Hf4  1  0.73922900  0.78675400  0.03534400  1
  Hf  Hf5  1  0.48587200  0.48758100  0.48675900  1
  Hf  Hf6  1  0.96589300  0.74178900  0.71479800  1
  Hf  Hf7  1  0.49883700  0.99884800  0.00149100  1
  Hf  Hf8  1  0.01185900  0.50158600  0.99516100  1
  Hf  Hf9  1  0.53789300  0.25476200  0.78489200  1
  Hf  Hf10  1  0.03296300  0.25264700  0.28517600  1
  Hf  Hf11  1  0.46064600  0.74138100  0.21362100  1
  Hf  Hf12  1  0.25996400  0.21511800  0.96726600  1
  Hf  Hf13  1  0.21546200  0.46100200  0.74718800  1
  Hf  Hf14  1  0.71806100  0.97141700  0.75222600  1
  Hf  Hf15  1  0.75360100  0.29143000  0.54274200  1
  N  N16  1  0.73213400  0.76034200  0.27210400  1
  N  N17  1  0.53958400  0.27371700  0.04459900  1
  N  N18  1  0.26843500  0.23111900  0.72336700  1
  N  N19  1  0.51728300  0.74598100  0.47440600  1
  N  N20  1  0.22346500  0.77328800  0.23807600  1
  N  N21  1  0.22815100  0.95415800  0.96362800  1
  N  N22  1  0.72978300  0.49384500  0.45720800  1
  N  N23  1  0.00975400  0.54347800  0.77318600  1
  N  N24  1  0.25645300  0.27087000  0.22601800  1
  N  N25  1  0.48778600  0.25899900  0.53173500  1
  N  N26  1  0.77424900  0.22693500  0.76786900  1
  N  N27  1  0.77317000  0.04480400  0.03240100  1
  N  N28  1  0.46679800  0.72845400  0.95475300  1
  N  N29  1  0.23935100  0.46463000  0.01490800  1
  N  N30  1  0.26859900  0.51280300  0.54232500  1
  N  N31  1  0.94565100  0.21826400  0.48213300  1
  O  O32  1  0.95970000  0.00199500  0.73003000  1
  O  O33  1  0.05389100  0.77658800  0.51899100  1
  O  O34  1  0.44997300  0.96410500  0.72652900  1
  O  O35  1  0.03725600  0.99308100  0.26686200  1
  O  O36  1  0.98541900  0.46041900  0.23103800  1
  O  O37  1  0.75132000  0.73094400  0.78218000  1
  O  O38  1  0.75902700  0.53585400  0.98210600  1
  O  O39  1  0.54371000  0.03545200  0.26934400  1
