# generated using pymatgen
data_Li3MnCr2O6
_symmetry_space_group_name_H-M   'P 1'
_cell_length_a   13.30013335
_cell_length_b   2.94076277
_cell_length_c   5.90187590
_cell_angle_alpha   90.00000000
_cell_angle_beta   103.07052664
_cell_angle_gamma   90.00000000
_symmetry_Int_Tables_number   1
_chemical_formula_structural   Li3MnCr2O6
_chemical_formula_sum   'Li6 Mn2 Cr4 O12'
_cell_volume   224.85690454
_cell_formula_units_Z   2
loop_
 _symmetry_equiv_pos_site_id
 _symmetry_equiv_pos_as_xyz
  1  'x, y, z'
loop_
 _atom_site_type_symbol
 _atom_site_label
 _atom_site_symmetry_multiplicity
 _atom_site_fract_x
 _atom_site_fract_y
 _atom_site_fract_z
 _atom_site_occupancy
  Li  Li0  1  0.50000000  0.00000000  0.50000000  1
  Li  Li1  1  0.17383500  0.00000000  0.84277300  1
  Li  Li2  1  0.32616500  0.50000000  0.15722700  1
  Li  Li3  1  0.00000000  0.50000000  0.50000000  1
  Li  Li4  1  0.67383500  0.50000000  0.84277300  1
  Li  Li5  1  0.82616500  0.00000000  0.15722700  1
  Mn  Mn6  1  0.50000000  0.00000000  0.00000000  1
  Mn  Mn7  1  0.00000000  0.50000000  0.00000000  1
  Cr  Cr8  1  0.17073325  0.00000000  0.33300300  1
  Cr  Cr9  1  0.32926675  0.50000000  0.66699700  1
  Cr  Cr10  1  0.67073325  0.50000000  0.33300300  1
  Cr  Cr11  1  0.82926675  0.00000000  0.66699700  1
  O  O12  1  0.16841700  0.50000000  0.09927800  1
  O  O13  1  0.33158300  0.00000000  0.90072200  1
  O  O14  1  0.32830800  0.00000000  0.42892100  1
  O  O15  1  0.17169200  0.50000000  0.57107900  1
  O  O16  1  0.48898275  0.50000000  0.76570000  1
  O  O17  1  0.51101725  0.50000000  0.23430000  1
  O  O18  1  0.66841700  0.00000000  0.09927800  1
  O  O19  1  0.83158300  0.50000000  0.90072200  1
  O  O20  1  0.82830800  0.50000000  0.42892100  1
  O  O21  1  0.67169200  0.00000000  0.57107900  1
  O  O22  1  0.98898275  0.00000000  0.76570000  1
  O  O23  1  0.01101725  0.00000000  0.23430000  1
