# generated using pymatgen
data_LiZr2(PO4)3
_symmetry_space_group_name_H-M   'P 1'
_cell_length_a   15.54390200
_cell_length_b   9.08933600
_cell_length_c   9.05235562
_cell_angle_alpha   90.00000000
_cell_angle_beta   124.87251615
_cell_angle_gamma   90.00000000
_symmetry_Int_Tables_number   1
_chemical_formula_structural   LiZr2(PO4)3
_chemical_formula_sum   'Li4 Zr8 P12 O48'
_cell_volume   1049.28472702
_cell_formula_units_Z   4
loop_
 _symmetry_equiv_pos_site_id
 _symmetry_equiv_pos_as_xyz
  1  'x, y, z'
loop_
 _atom_site_type_symbol
 _atom_site_label
 _atom_site_symmetry_multiplicity
 _atom_site_fract_x
 _atom_site_fract_y
 _atom_site_fract_z
 _atom_site_occupancy
  Li  Li0  1  0.74981100  0.39972200  0.53855500  1
  Li  Li1  1  0.74981100  0.60027800  0.03855500  1
  Li  Li2  1  0.24981100  0.89972200  0.53855500  1
  Li  Li3  1  0.24981100  0.10027800  0.03855500  1
  Zr  Zr4  1  0.10895800  0.74424700  0.07903500  1
  Zr  Zr5  1  0.89103300  0.75547800  0.42285400  1
  Zr  Zr6  1  0.89103300  0.24452200  0.92285400  1
  Zr  Zr7  1  0.10895800  0.25575300  0.57903500  1
  Zr  Zr8  1  0.60895800  0.24424700  0.07903500  1
  Zr  Zr9  1  0.39103300  0.25547800  0.42285400  1
  Zr  Zr10  1  0.39103300  0.74452200  0.92285400  1
  Zr  Zr11  1  0.60895800  0.75575300  0.57903500  1
  P  P12  1  0.99518000  0.53568000  0.24457900  1
  P  P13  1  0.64574900  0.39696500  0.75047600  1
  P  P14  1  0.35677200  0.39332200  0.75060300  1
  P  P15  1  0.64574900  0.60303500  0.25047600  1
  P  P16  1  0.35677200  0.60667800  0.25060300  1
  P  P17  1  0.99518000  0.46432000  0.74457900  1
  P  P18  1  0.49518000  0.03568000  0.24457900  1
  P  P19  1  0.14574900  0.89696500  0.75047600  1
  P  P20  1  0.85677200  0.89332200  0.75060300  1
  P  P21  1  0.14574900  0.10303500  0.25047600  1
  P  P22  1  0.85677200  0.10667800  0.25060300  1
  P  P23  1  0.49518000  0.96432000  0.74457900  1
  O  O24  1  0.91035750  0.62862750  0.24270500  1
  O  O25  1  0.05908550  0.44035050  0.41586900  1
  O  O26  1  0.26438750  0.32171950  0.74293500  1
  O  O27  1  0.04217400  0.84051000  0.58411400  1
  O  O28  1  0.35100350  0.64650450  0.07926500  1
  O  O29  1  0.07174700  0.63989100  0.23937900  1
  O  O30  1  0.65648250  0.56794150  0.75564300  1
  O  O31  1  0.73497950  0.33283750  0.73976400  1
  O  O32  1  0.96071000  0.83619500  0.91798600  1
  O  O33  1  0.05908550  0.55964950  0.91586900  1
  O  O34  1  0.35100350  0.35349550  0.57926500  1
  O  O35  1  0.34995750  0.56172450  0.76004800  1
  O  O36  1  0.65648250  0.43205850  0.25564300  1
  O  O37  1  0.65847800  0.64196500  0.42789800  1
  O  O38  1  0.93498500  0.43693900  0.07659700  1
  O  O39  1  0.04217400  0.15949000  0.08411400  1
  O  O40  1  0.34995750  0.43827550  0.26004800  1
  O  O41  1  0.26438750  0.67828050  0.24293500  1
  O  O42  1  0.91035750  0.37137250  0.74270500  1
  O  O43  1  0.65847800  0.35803500  0.92789800  1
  O  O44  1  0.96071000  0.16380500  0.41798600  1
  O  O45  1  0.73497950  0.66716250  0.23976400  1
  O  O46  1  0.93498500  0.56306100  0.57659700  1
  O  O47  1  0.07174700  0.36010900  0.73937900  1
  O  O48  1  0.41035750  0.12862750  0.24270500  1
  O  O49  1  0.55908550  0.94035050  0.41586900  1
  O  O50  1  0.76438750  0.82171950  0.74293500  1
  O  O51  1  0.54217400  0.34051000  0.58411400  1
  O  O52  1  0.85100350  0.14650450  0.07926500  1
  O  O53  1  0.57174700  0.13989100  0.23937900  1
  O  O54  1  0.15648250  0.06794150  0.75564300  1
  O  O55  1  0.23497950  0.83283750  0.73976400  1
  O  O56  1  0.46071000  0.33619500  0.91798600  1
  O  O57  1  0.55908550  0.05964950  0.91586900  1
  O  O58  1  0.85100350  0.85349550  0.57926500  1
  O  O59  1  0.84995750  0.06172450  0.76004800  1
  O  O60  1  0.15648250  0.93205850  0.25564300  1
  O  O61  1  0.15847800  0.14196500  0.42789800  1
  O  O62  1  0.43498500  0.93693900  0.07659700  1
  O  O63  1  0.54217400  0.65949000  0.08411400  1
  O  O64  1  0.84995750  0.93827550  0.26004800  1
  O  O65  1  0.76438750  0.17828050  0.24293500  1
  O  O66  1  0.41035750  0.87137250  0.74270500  1
  O  O67  1  0.15847800  0.85803500  0.92789800  1
  O  O68  1  0.46071000  0.66380500  0.41798600  1
  O  O69  1  0.23497950  0.16716250  0.23976400  1
  O  O70  1  0.43498500  0.06306100  0.57659700  1
  O  O71  1  0.57174700  0.86010900  0.73937900  1
