# generated using pymatgen
data_Li2VO3
_symmetry_space_group_name_H-M   'P 1'
_cell_length_a   5.00204068
_cell_length_b   5.11954131
_cell_length_c   5.16902312
_cell_angle_alpha   99.24735578
_cell_angle_beta   101.26908715
_cell_angle_gamma   119.09352910
_symmetry_Int_Tables_number   1
_chemical_formula_structural   Li2VO3
_chemical_formula_sum   'Li4 V2 O6'
_cell_volume   108.26986534
_cell_formula_units_Z   2
loop_
 _symmetry_equiv_pos_site_id
 _symmetry_equiv_pos_as_xyz
  1  'x, y, z'
loop_
 _atom_site_type_symbol
 _atom_site_label
 _atom_site_symmetry_multiplicity
 _atom_site_fract_x
 _atom_site_fract_y
 _atom_site_fract_z
 _atom_site_occupancy
  Li  Li0  1  0.50000000  0.00000000  0.00000000  1
  Li  Li1  1  0.00000000  0.50000000  0.50000000  1
  Li  Li2  1  0.16296250  0.34157600  0.99544150  1
  Li  Li3  1  0.83703750  0.65842400  0.00455850  1
  V  V4  1  0.33819600  0.17820400  0.49785950  1
  V  V5  1  0.66180400  0.82179600  0.50214050  1
  O  O6  1  0.71369950  0.22284600  0.72919000  1
  O  O7  1  0.28630050  0.77715400  0.27081000  1
  O  O8  1  0.43080550  0.57735900  0.72773050  1
  O  O9  1  0.56919450  0.42264100  0.27226950  1
  O  O10  1  0.93389200  0.07100700  0.27426250  1
  O  O11  1  0.06610800  0.92899300  0.72573750  1
