# generated using pymatgen
data_Li3V3P8O29
_symmetry_space_group_name_H-M   'P 1'
_cell_length_a   16.88795200
_cell_length_b   9.72692800
_cell_length_c   14.04039518
_cell_angle_alpha   90.00000000
_cell_angle_beta   90.00906750
_cell_angle_gamma   90.00000000
_symmetry_Int_Tables_number   1
_chemical_formula_structural   Li3V3P8O29
_chemical_formula_sum   'Li12 V12 P32 O116'
_cell_volume   2306.38610595
_cell_formula_units_Z   4
loop_
 _symmetry_equiv_pos_site_id
 _symmetry_equiv_pos_as_xyz
  1  'x, y, z'
loop_
 _atom_site_type_symbol
 _atom_site_label
 _atom_site_symmetry_multiplicity
 _atom_site_fract_x
 _atom_site_fract_y
 _atom_site_fract_z
 _atom_site_occupancy
  Li  Li0  1  0.95215750  0.28274050  0.94178300  1
  Li  Li1  1  0.95215750  0.71725950  0.44178300  1
  Li  Li2  1  0.66535200  0.42952500  0.94113600  1
  Li  Li3  1  0.66535200  0.57047500  0.44113600  1
  Li  Li4  1  0.98679750  0.97172250  0.00040200  1
  Li  Li5  1  0.98679750  0.02827750  0.50040200  1
  Li  Li6  1  0.45215750  0.78274050  0.94178300  1
  Li  Li7  1  0.45215750  0.21725950  0.44178300  1
  Li  Li8  1  0.16535200  0.92952500  0.94113600  1
  Li  Li9  1  0.16535200  0.07047500  0.44113600  1
  Li  Li10  1  0.48679750  0.47172250  0.00040200  1
  Li  Li11  1  0.48679750  0.52827750  0.50040200  1
  V  V12  1  0.78431000  0.78273900  0.75383800  1
  V  V13  1  0.71766200  0.71990700  0.24509900  1
  V  V14  1  0.78431000  0.21726100  0.25383800  1
  V  V15  1  0.71766200  0.28009300  0.74509900  1
  V  V16  1  0.50126000  0.93624300  0.74705300  1
  V  V17  1  0.50126000  0.06375700  0.24705300  1
  V  V18  1  0.28431000  0.28273900  0.75383800  1
  V  V19  1  0.21766200  0.21990700  0.24509900  1
  V  V20  1  0.28431000  0.71726100  0.25383800  1
  V  V21  1  0.21766200  0.78009300  0.74509900  1
  V  V22  1  0.00126000  0.43624300  0.74705300  1
  V  V23  1  0.00126000  0.56375700  0.24705300  1
  P  P24  1  0.95616800  0.26727200  0.15790200  1
  P  P25  1  0.88897300  0.19598400  0.65560400  1
  P  P26  1  0.95616800  0.73272800  0.65790200  1
  P  P27  1  0.83302700  0.49743100  0.87058500  1
  P  P28  1  0.83302700  0.50256900  0.37058500  1
  P  P29  1  0.88897300  0.80401600  0.15560400  1
  P  P30  1  0.84555450  0.92955750  0.34190900  1
  P  P31  1  0.65728000  0.42869300  0.15654000  1
  P  P32  1  0.84555450  0.07044250  0.84190900  1
  P  P33  1  0.65728000  0.57130700  0.65654000  1
  P  P34  1  0.61188750  0.69725750  0.84094400  1
  P  P35  1  0.66809100  0.99709900  0.62967200  1
  P  P36  1  0.66809100  0.00290100  0.12967200  1
  P  P37  1  0.54338300  0.76504400  0.34248500  1
  P  P38  1  0.61188750  0.30274250  0.34094400  1
  P  P39  1  0.54338300  0.23495600  0.84248500  1
  P  P40  1  0.45616800  0.76727200  0.15790200  1
  P  P41  1  0.38897300  0.69598400  0.65560400  1
  P  P42  1  0.45616800  0.23272800  0.65790200  1
  P  P43  1  0.33302700  0.99743100  0.87058500  1
  P  P44  1  0.33302700  0.00256900  0.37058500  1
  P  P45  1  0.38897300  0.30401600  0.15560400  1
  P  P46  1  0.34555450  0.42955750  0.34190900  1
  P  P47  1  0.15728000  0.92869300  0.15654000  1
  P  P48  1  0.34555450  0.57044250  0.84190900  1
  P  P49  1  0.15728000  0.07130700  0.65654000  1
  P  P50  1  0.11188750  0.19725750  0.84094400  1
  P  P51  1  0.16809100  0.49709900  0.62967200  1
  P  P52  1  0.16809100  0.50290100  0.12967200  1
  P  P53  1  0.04338300  0.26504400  0.34248500  1
  P  P54  1  0.11188750  0.80274250  0.34094400  1
  P  P55  1  0.04338300  0.73495600  0.84248500  1
  O  O56  1  0.50254600  0.71070700  0.42758200  1
  O  O57  1  0.95711750  0.30279550  0.66873100  1
  O  O58  1  0.89353600  0.11092400  0.92649200  1
  O  O59  1  0.87062900  0.21282900  0.16881400  1
  O  O60  1  0.95459750  0.42653650  0.17481800  1
  O  O61  1  0.90812550  0.42117250  0.83045900  1
  O  O62  1  0.95459750  0.57346350  0.67481800  1
  O  O63  1  0.50254600  0.28929300  0.92758200  1
  O  O64  1  0.95711750  0.69720450  0.16873100  1
  O  O65  1  0.83313100  0.35404400  0.32484700  1
  O  O66  1  0.80934700  0.27554500  0.67044400  1
  O  O67  1  0.90812550  0.57882750  0.33045900  1
  O  O68  1  0.83030850  0.49611650  0.97642400  1
  O  O69  1  0.83030850  0.50388350  0.47642400  1
  O  O70  1  0.83313100  0.64595600  0.82484700  1
  O  O71  1  0.73614950  0.35261250  0.17407200  1
  O  O72  1  0.75737250  0.42563350  0.82704800  1
  O  O73  1  0.87062900  0.78717100  0.66881400  1
  O  O74  1  0.89803000  0.90062400  0.24805200  1
  O  O75  1  0.89353600  0.88907600  0.42649200  1
  O  O76  1  0.89581350  0.88779850  0.06859600  1
  O  O77  1  0.80934700  0.72445500  0.17044400  1
  O  O78  1  0.75737250  0.57436650  0.32704800  1
  O  O79  1  0.82802450  0.91412550  0.83655200  1
  O  O80  1  0.73614950  0.64738750  0.67407200  1
  O  O81  1  0.67221700  0.41390000  0.66828000  1
  O  O82  1  0.89803000  0.09937600  0.74805200  1
  O  O83  1  0.89581350  0.11220150  0.56859600  1
  O  O84  1  0.60907450  0.39889350  0.42356100  1
  O  O85  1  0.82802450  0.08587450  0.33655200  1
  O  O86  1  0.76683250  0.85059950  0.32725500  1
  O  O87  1  0.67221700  0.58610000  0.16828000  1
  O  O88  1  0.74008550  0.92363550  0.67685200  1
  O  O89  1  0.69062550  0.77710850  0.82837400  1
  O  O90  1  0.60907450  0.60110650  0.92356100  1
  O  O91  1  0.61758050  0.60293950  0.56446200  1
  O  O92  1  0.59970450  0.61004950  0.74337900  1
  O  O93  1  0.63102800  0.71371700  0.33686600  1
  O  O94  1  0.74008550  0.07636450  0.17685200  1
  O  O95  1  0.76683250  0.14940050  0.82725500  1
  O  O96  1  0.66753050  0.85356450  0.17570400  1
  O  O97  1  0.66526500  0.00167700  0.02464800  1
  O  O98  1  0.66526500  0.99832300  0.52464800  1
  O  O99  1  0.59227800  0.92683600  0.67680200  1
  O  O100  1  0.69062550  0.22289150  0.32837400  1
  O  O101  1  0.66753050  0.14643550  0.67570400  1
  O  O102  1  0.54122400  0.79983800  0.84024200  1
  O  O103  1  0.50400600  0.70314900  0.24553600  1
  O  O104  1  0.99310550  0.22887150  0.06547500  1
  O  O105  1  0.54219150  0.92365050  0.32694200  1
  O  O106  1  0.59227800  0.07316400  0.17680200  1
  O  O107  1  0.54219150  0.07634950  0.82694200  1
  O  O108  1  0.63102800  0.28628300  0.83686600  1
  O  O109  1  0.61758050  0.39706050  0.06446200  1
  O  O110  1  0.59970450  0.38995050  0.24337900  1
  O  O111  1  0.54122400  0.20016200  0.34024200  1
  O  O112  1  0.99310550  0.77112850  0.56547500  1
  O  O113  1  0.50400600  0.29685100  0.74553600  1
  O  O114  1  0.00254600  0.21070700  0.42758200  1
  O  O115  1  0.45711750  0.80279550  0.66873100  1
  O  O116  1  0.39353600  0.61092400  0.92649200  1
  O  O117  1  0.37062900  0.71282900  0.16881400  1
  O  O118  1  0.45459750  0.92653650  0.17481800  1
  O  O119  1  0.40812550  0.92117250  0.83045900  1
  O  O120  1  0.45459750  0.07346350  0.67481800  1
  O  O121  1  0.00254600  0.78929300  0.92758200  1
  O  O122  1  0.45711750  0.19720450  0.16873100  1
  O  O123  1  0.33313100  0.85404400  0.32484700  1
  O  O124  1  0.30934700  0.77554500  0.67044400  1
  O  O125  1  0.40812550  0.07882750  0.33045900  1
  O  O126  1  0.33030850  0.99611650  0.97642400  1
  O  O127  1  0.33030850  0.00388350  0.47642400  1
  O  O128  1  0.33313100  0.14595600  0.82484700  1
  O  O129  1  0.23614950  0.85261250  0.17407200  1
  O  O130  1  0.25737250  0.92563350  0.82704800  1
  O  O131  1  0.37062900  0.28717100  0.66881400  1
  O  O132  1  0.39803000  0.40062400  0.24805200  1
  O  O133  1  0.39353600  0.38907600  0.42649200  1
  O  O134  1  0.39581350  0.38779850  0.06859600  1
  O  O135  1  0.30934700  0.22445500  0.17044400  1
  O  O136  1  0.25737250  0.07436650  0.32704800  1
  O  O137  1  0.32802450  0.41412550  0.83655200  1
  O  O138  1  0.23614950  0.14738750  0.67407200  1
  O  O139  1  0.17221700  0.91390000  0.66828000  1
  O  O140  1  0.39803000  0.59937600  0.74805200  1
  O  O141  1  0.39581350  0.61220150  0.56859600  1
  O  O142  1  0.10907450  0.89889350  0.42356100  1
  O  O143  1  0.32802450  0.58587450  0.33655200  1
  O  O144  1  0.26683250  0.35059950  0.32725500  1
  O  O145  1  0.17221700  0.08610000  0.16828000  1
  O  O146  1  0.24008550  0.42363550  0.67685200  1
  O  O147  1  0.19062550  0.27710850  0.82837400  1
  O  O148  1  0.10907450  0.10110650  0.92356100  1
  O  O149  1  0.11758050  0.10293950  0.56446200  1
  O  O150  1  0.09970450  0.11004950  0.74337900  1
  O  O151  1  0.13102800  0.21371700  0.33686600  1
  O  O152  1  0.24008550  0.57636450  0.17685200  1
  O  O153  1  0.26683250  0.64940050  0.82725500  1
  O  O154  1  0.16753050  0.35356450  0.17570400  1
  O  O155  1  0.16526500  0.50167700  0.02464800  1
  O  O156  1  0.16526500  0.49832300  0.52464800  1
  O  O157  1  0.09227800  0.42683600  0.67680200  1
  O  O158  1  0.19062550  0.72289150  0.32837400  1
  O  O159  1  0.16753050  0.64643550  0.67570400  1
  O  O160  1  0.04122400  0.29983800  0.84024200  1
  O  O161  1  0.00400600  0.20314900  0.24553600  1
  O  O162  1  0.49310550  0.72887150  0.06547500  1
  O  O163  1  0.04219150  0.42365050  0.32694200  1
  O  O164  1  0.09227800  0.57316400  0.17680200  1
  O  O165  1  0.04219150  0.57634950  0.82694200  1
  O  O166  1  0.13102800  0.78628300  0.83686600  1
  O  O167  1  0.11758050  0.89706050  0.06446200  1
  O  O168  1  0.09970450  0.88995050  0.24337900  1
  O  O169  1  0.04122400  0.70016200  0.34024200  1
  O  O170  1  0.49310550  0.27112850  0.56547500  1
  O  O171  1  0.00400600  0.79685100  0.74553600  1
