# generated using pymatgen
data_Hf2N2O
_symmetry_space_group_name_H-M   'P 1'
_cell_length_a   8.72885200
_cell_length_b   8.73383012
_cell_length_c   8.73677061
_cell_angle_alpha   109.50610214
_cell_angle_beta   109.43499276
_cell_angle_gamma   109.38351099
_symmetry_Int_Tables_number   1
_chemical_formula_structural   Hf2N2O
_chemical_formula_sum   'Hf16 N16 O8'
_cell_volume   513.29488930
_cell_formula_units_Z   8
loop_
 _symmetry_equiv_pos_site_id
 _symmetry_equiv_pos_as_xyz
  1  'x, y, z'
loop_
 _atom_site_type_symbol
 _atom_site_label
 _atom_site_symmetry_multiplicity
 _atom_site_fract_x
 _atom_site_fract_y
 _atom_site_fract_z
 _atom_site_occupancy
  Hf  Hf0  1  0.98810300  0.48120500  0.99096300  1
  Hf  Hf1  1  0.74543300  0.71523200  0.96668900  1
  Hf  Hf2  1  0.96301200  0.74747300  0.71418400  1
  Hf  Hf3  1  0.53395500  0.24931800  0.78613300  1
  Hf  Hf4  1  0.70223200  0.45967500  0.24072000  1
  Hf  Hf5  1  0.22367600  0.96631000  0.25866000  1
  Hf  Hf6  1  0.51211300  0.51208500  0.50057700  1
  Hf  Hf7  1  0.49077100  0.99592900  0.00350100  1
  Hf  Hf8  1  0.00200300  0.01193300  0.51059200  1
  Hf  Hf9  1  0.75041200  0.21356900  0.47132600  1
  Hf  Hf10  1  0.25035500  0.78563000  0.54148600  1
  Hf  Hf11  1  0.79145200  0.03076500  0.74769900  1
  Hf  Hf12  1  0.28089600  0.53837200  0.74991800  1
  Hf  Hf13  1  0.04310200  0.26101100  0.29157400  1
  Hf  Hf14  1  0.46790500  0.74941900  0.21007700  1
  Hf  Hf15  1  0.24793100  0.29025500  0.02974500  1
  N  N16  1  0.77566000  0.51928700  0.04933200  1
  N  N17  1  0.27463800  0.04399800  0.53165800  1
  N  N18  1  0.74139300  0.46742500  0.50904100  1
  N  N19  1  0.45716900  0.22483700  0.98905600  1
  N  N20  1  0.54968600  0.77491400  0.01229900  1
  N  N21  1  0.75804000  0.26951900  0.72768100  1
  N  N22  1  0.26308300  0.53715900  0.48434400  1
  N  N23  1  0.22765400  0.76439300  0.77311100  1
  N  N24  1  0.72869600  0.94992200  0.46330000  1
  N  N25  1  0.98900900  0.26153800  0.03728800  1
  N  N26  1  0.46271100  0.01216400  0.23811000  1
  N  N27  1  0.72539600  0.77087800  0.74160400  1
  N  N28  1  0.03326400  0.27066000  0.54119200  1
  N  N29  1  0.22334900  0.48876700  0.95240700  1
  N  N30  1  0.50818000  0.54249100  0.27159300  1
  N  N31  1  0.04679600  0.03238200  0.76971200  1
  O  O32  1  0.95880300  0.96667900  0.22284700  1
  O  O33  1  0.48733300  0.45218800  0.72613700  1
  O  O34  1  0.27082400  0.22528700  0.26764000  1
  O  O35  1  0.96884200  0.72588800  0.45363100  1
  O  O36  1  0.53238600  0.98578300  0.75993600  1
  O  O37  1  0.01691000  0.74471000  0.97029500  1
  O  O38  1  0.77330100  0.23395100  0.22400800  1
  O  O39  1  0.23352600  0.72699900  0.26993300  1
