# generated using pymatgen
data_Er2TeO6
_symmetry_space_group_name_H-M   'P 1'
_cell_length_a   4.96990100
_cell_length_b   4.96990100
_cell_length_c   10.01958100
_cell_angle_alpha   90.00000000
_cell_angle_beta   90.00000000
_cell_angle_gamma   90.00000000
_symmetry_Int_Tables_number   1
_chemical_formula_structural   Er2TeO6
_chemical_formula_sum   'Er4 Te2 O12'
_cell_volume   247.48280855
_cell_formula_units_Z   2
loop_
 _symmetry_equiv_pos_site_id
 _symmetry_equiv_pos_as_xyz
  1  'x, y, z'
loop_
 _atom_site_type_symbol
 _atom_site_label
 _atom_site_symmetry_multiplicity
 _atom_site_fract_x
 _atom_site_fract_y
 _atom_site_fract_z
 _atom_site_occupancy
  Er  Er0  1  0.50000000  0.50000000  0.33457800  1
  Er  Er1  1  0.50000000  0.50000000  0.66542200  1
  Er  Er2  1  0.00000000  0.00000000  0.16542200  1
  Er  Er3  1  0.00000000  0.00000000  0.83457800  1
  Te  Te4  1  0.50000000  0.50000000  0.00000000  1
  Te  Te5  1  0.00000000  0.00000000  0.50000000  1
  O  O6  1  0.68395000  0.68395000  0.14724900  1
  O  O7  1  0.68395000  0.68395000  0.85275100  1
  O  O8  1  0.72046400  0.72046400  0.50000000  1
  O  O9  1  0.77953600  0.22046400  0.00000000  1
  O  O10  1  0.81605000  0.18395000  0.35275100  1
  O  O11  1  0.81605000  0.18395000  0.64724900  1
  O  O12  1  0.18395000  0.81605000  0.35275100  1
  O  O13  1  0.18395000  0.81605000  0.64724900  1
  O  O14  1  0.22046400  0.77953600  0.00000000  1
  O  O15  1  0.27953600  0.27953600  0.50000000  1
  O  O16  1  0.31605000  0.31605000  0.14724900  1
  O  O17  1  0.31605000  0.31605000  0.85275100  1
