# generated using pymatgen
data_NbO2F
_symmetry_space_group_name_H-M   'P 1'
_cell_length_a   7.81412000
_cell_length_b   8.15061800
_cell_length_c   4.00757000
_cell_angle_alpha   90.00000000
_cell_angle_beta   90.00000000
_cell_angle_gamma   90.00000000
_symmetry_Int_Tables_number   1
_chemical_formula_structural   NbO2F
_chemical_formula_sum   'Nb4 O8 F4'
_cell_volume   255.24176110
_cell_formula_units_Z   4
loop_
 _symmetry_equiv_pos_site_id
 _symmetry_equiv_pos_as_xyz
  1  'x, y, z'
loop_
 _atom_site_type_symbol
 _atom_site_label
 _atom_site_symmetry_multiplicity
 _atom_site_fract_x
 _atom_site_fract_y
 _atom_site_fract_z
 _atom_site_occupancy
  Nb  Nb0  1  0.50000000  0.02140700  0.00000000  1
  Nb  Nb1  1  0.50000000  0.49452900  0.00000000  1
  Nb  Nb2  1  0.00000000  0.52140700  0.00000000  1
  Nb  Nb3  1  0.00000000  0.99452900  0.00000000  1
  O  O4  1  0.50000000  0.50027300  0.50000000  1
  O  O5  1  0.50000000  0.24703500  0.00000000  1
  O  O6  1  0.74578750  0.99629250  0.00000000  1
  O  O7  1  0.25421250  0.99629250  0.00000000  1
  O  O8  1  0.00000000  0.00027300  0.50000000  1
  O  O9  1  0.00000000  0.74703500  0.00000000  1
  O  O10  1  0.24578750  0.49629250  0.00000000  1
  O  O11  1  0.75421250  0.49629250  0.00000000  1
  F  F12  1  0.50000000  0.99252300  0.50000000  1
  F  F13  1  0.50000000  0.75164900  0.00000000  1
  F  F14  1  0.00000000  0.49252300  0.50000000  1
  F  F15  1  0.00000000  0.25164900  0.00000000  1
