# generated using pymatgen
data_Mg(IO3)2
_symmetry_space_group_name_H-M   'P 1'
_cell_length_a   6.72020300
_cell_length_b   11.05572700
_cell_length_c   8.37196015
_cell_angle_alpha   90.00000000
_cell_angle_beta   118.04836023
_cell_angle_gamma   90.00000000
_symmetry_Int_Tables_number   1
_chemical_formula_structural   Mg(IO3)2
_chemical_formula_sum   'Mg4 I8 O24'
_cell_volume   548.95490978
_cell_formula_units_Z   4
loop_
 _symmetry_equiv_pos_site_id
 _symmetry_equiv_pos_as_xyz
  1  'x, y, z'
loop_
 _atom_site_type_symbol
 _atom_site_label
 _atom_site_symmetry_multiplicity
 _atom_site_fract_x
 _atom_site_fract_y
 _atom_site_fract_z
 _atom_site_occupancy
  Mg  Mg0  1  0.13506900  0.09672400  0.93792900  1
  Mg  Mg1  1  0.86493100  0.59672400  0.56207100  1
  Mg  Mg2  1  0.13506900  0.40327600  0.43792900  1
  Mg  Mg3  1  0.86493100  0.90327600  0.06207100  1
  I  I4  1  0.35450800  0.79263500  0.07266200  1
  I  I5  1  0.64549200  0.29263500  0.42733800  1
  I  I6  1  0.77636500  0.91822700  0.53186100  1
  I  I7  1  0.22363500  0.41822700  0.96813900  1
  I  I8  1  0.77636500  0.58177300  0.03186100  1
  I  I9  1  0.22363500  0.08177300  0.46813900  1
  I  I10  1  0.35450800  0.70736500  0.57266200  1
  I  I11  1  0.64549200  0.20736500  0.92733800  1
  O  O12  1  0.14702000  0.91822200  0.01768000  1
  O  O13  1  0.36817900  0.10219500  0.33012300  1
  O  O14  1  0.41418600  0.38574700  0.40688500  1
  O  O15  1  0.44570300  0.78173900  0.31533000  1
  O  O16  1  0.55429700  0.28173900  0.18467000  1
  O  O17  1  0.04735600  0.28074400  0.89960800  1
  O  O18  1  0.01799300  0.53625200  0.83252400  1
  O  O19  1  0.58581400  0.88574700  0.09311500  1
  O  O20  1  0.98200700  0.03625200  0.66747600  1
  O  O21  1  0.95264400  0.78074400  0.60039200  1
  O  O22  1  0.63182100  0.60219500  0.16987700  1
  O  O23  1  0.85298000  0.41822200  0.48232000  1
  O  O24  1  0.14702000  0.58177800  0.51768000  1
  O  O25  1  0.36817900  0.39780500  0.83012300  1
  O  O26  1  0.04735600  0.21925600  0.39960800  1
  O  O27  1  0.01799300  0.96374800  0.33252400  1
  O  O28  1  0.41418600  0.11425300  0.90688500  1
  O  O29  1  0.98200700  0.46374800  0.16747600  1
  O  O30  1  0.95264400  0.71925600  0.10039200  1
  O  O31  1  0.44570300  0.71826100  0.81533000  1
  O  O32  1  0.55429700  0.21826100  0.68467000  1
  O  O33  1  0.58581400  0.61425300  0.59311500  1
  O  O34  1  0.63182100  0.89780500  0.66987700  1
  O  O35  1  0.85298000  0.08177800  0.98232000  1
