# generated using pymatgen
data_YTmO3
_symmetry_space_group_name_H-M   'P 1'
_cell_length_a   14.96803000
_cell_length_b   10.58459000
_cell_length_c   10.58277717
_cell_angle_alpha   90.00000000
_cell_angle_beta   135.00070824
_cell_angle_gamma   90.00000000
_symmetry_Int_Tables_number   1
_chemical_formula_structural   YTmO3
_chemical_formula_sum   'Y16 Tm16 O48'
_cell_volume   1185.54480136
_cell_formula_units_Z   16
loop_
 _symmetry_equiv_pos_site_id
 _symmetry_equiv_pos_as_xyz
  1  'x, y, z'
loop_
 _atom_site_type_symbol
 _atom_site_label
 _atom_site_symmetry_multiplicity
 _atom_site_fract_x
 _atom_site_fract_y
 _atom_site_fract_z
 _atom_site_occupancy
  Y  Y0  1  0.74915800  0.24987700  0.74996500  1
  Y  Y1  1  0.75022950  0.99972250  0.46804200  1
  Y  Y2  1  0.74977050  0.49972250  0.53195800  1
  Y  Y3  1  0.00000000  0.53281000  0.00000000  1
  Y  Y4  1  0.00000000  0.03229200  0.00000000  1
  Y  Y5  1  0.75152500  0.24971700  0.24999700  1
  Y  Y6  1  0.25084200  0.24987700  0.25003500  1
  Y  Y7  1  0.24847500  0.24971700  0.75000300  1
  Y  Y8  1  0.24915800  0.74987700  0.74996500  1
  Y  Y9  1  0.25022950  0.49972250  0.46804200  1
  Y  Y10  1  0.24977050  0.99972250  0.53195800  1
  Y  Y11  1  0.50000000  0.03281000  0.00000000  1
  Y  Y12  1  0.50000000  0.53229200  0.00000000  1
  Y  Y13  1  0.25152500  0.74971700  0.24999700  1
  Y  Y14  1  0.75084200  0.74987700  0.25003500  1
  Y  Y15  1  0.74847500  0.74971700  0.75000300  1
  Tm  Tm16  1  0.96803550  0.24984450  0.71704500  1
  Tm  Tm17  1  0.46586100  0.24984800  0.21685200  1
  Tm  Tm18  1  0.03196450  0.24984450  0.28295500  1
  Tm  Tm19  1  0.00000000  0.46712400  0.50000000  1
  Tm  Tm20  1  0.50000000  0.46659700  0.50000000  1
  Tm  Tm21  1  0.75020500  0.49976400  0.03291700  1
  Tm  Tm22  1  0.74979500  0.99976400  0.96708300  1
  Tm  Tm23  1  0.53413900  0.24984800  0.78314800  1
  Tm  Tm24  1  0.46803550  0.74984450  0.71704500  1
  Tm  Tm25  1  0.96586100  0.74984800  0.21685200  1
  Tm  Tm26  1  0.53196450  0.74984450  0.28295500  1
  Tm  Tm27  1  0.50000000  0.96712400  0.50000000  1
  Tm  Tm28  1  0.00000000  0.96659700  0.50000000  1
  Tm  Tm29  1  0.25020500  0.99976400  0.03291700  1
  Tm  Tm30  1  0.24979500  0.49976400  0.96708300  1
  Tm  Tm31  1  0.03413900  0.74984800  0.78314800  1
  O  O32  1  0.60767850  0.87825050  0.20797000  1
  O  O33  1  0.89232150  0.37825050  0.79203000  1
  O  O34  1  0.65077200  0.39276400  0.78153400  1
  O  O35  1  0.35098650  0.89083350  0.47988000  1
  O  O36  1  0.15085700  0.11048700  0.28145400  1
  O  O37  1  0.84742400  0.60858000  0.97986500  1
  O  O38  1  0.89406700  0.11969300  0.49264300  1
  O  O39  1  0.10593300  0.11969300  0.50735700  1
  O  O40  1  0.62064900  0.65117600  0.97601500  1
  O  O41  1  0.38112300  0.15398000  0.73892200  1
  O  O42  1  0.87935100  0.15117600  0.02398500  1
  O  O43  1  0.11887700  0.65398000  0.26107800  1
  O  O44  1  0.88132700  0.35038100  0.23845400  1
  O  O45  1  0.11867300  0.35038100  0.76154600  1
  O  O46  1  0.38312400  0.34770400  0.52348800  1
  O  O47  1  0.61687600  0.34770400  0.47651200  1
  O  O48  1  0.89056300  0.87936200  0.99172100  1
  O  O49  1  0.60943700  0.37936200  0.00827900  1
  O  O50  1  0.84922800  0.89276400  0.21846600  1
  O  O51  1  0.14901350  0.39083350  0.52012000  1
  O  O52  1  0.34914300  0.61048700  0.71854600  1
  O  O53  1  0.65257600  0.10858000  0.02013500  1
  O  O54  1  0.39237650  0.11860350  0.29299900  1
  O  O55  1  0.60762350  0.11860350  0.70700100  1
  O  O56  1  0.10767850  0.37825050  0.20797000  1
  O  O57  1  0.39232150  0.87825050  0.79203000  1
  O  O58  1  0.15077200  0.89276400  0.78153400  1
  O  O59  1  0.85098650  0.39083350  0.47988000  1
  O  O60  1  0.65085700  0.61048700  0.28145400  1
  O  O61  1  0.34742400  0.10858000  0.97986500  1
  O  O62  1  0.39406700  0.61969300  0.49264300  1
  O  O63  1  0.60593300  0.61969300  0.50735700  1
  O  O64  1  0.12064900  0.15117600  0.97601500  1
  O  O65  1  0.88112300  0.65398000  0.73892200  1
  O  O66  1  0.37935100  0.65117600  0.02398500  1
  O  O67  1  0.61887700  0.15398000  0.26107800  1
  O  O68  1  0.38132700  0.85038100  0.23845400  1
  O  O69  1  0.61867300  0.85038100  0.76154600  1
  O  O70  1  0.88312400  0.84770400  0.52348800  1
  O  O71  1  0.11687600  0.84770400  0.47651200  1
  O  O72  1  0.39056300  0.37936200  0.99172100  1
  O  O73  1  0.10943700  0.87936200  0.00827900  1
  O  O74  1  0.34922800  0.39276400  0.21846600  1
  O  O75  1  0.64901350  0.89083350  0.52012000  1
  O  O76  1  0.84914300  0.11048700  0.71854600  1
  O  O77  1  0.15257600  0.60858000  0.02013500  1
  O  O78  1  0.89237650  0.61860350  0.29299900  1
  O  O79  1  0.10762350  0.61860350  0.70700100  1
