# generated using pymatgen
data_UP2H6O7
_symmetry_space_group_name_H-M   'P 1'
_cell_length_a   7.77425500
_cell_length_b   9.39336400
_cell_length_c   13.34881406
_cell_angle_alpha   90.00000000
_cell_angle_beta   123.39701274
_cell_angle_gamma   90.00000000
_symmetry_Int_Tables_number   1
_chemical_formula_structural   UP2H6O7
_chemical_formula_sum   'U4 P8 H24 O28'
_cell_volume   813.85097226
_cell_formula_units_Z   4
loop_
 _symmetry_equiv_pos_site_id
 _symmetry_equiv_pos_as_xyz
  1  'x, y, z'
loop_
 _atom_site_type_symbol
 _atom_site_label
 _atom_site_symmetry_multiplicity
 _atom_site_fract_x
 _atom_site_fract_y
 _atom_site_fract_z
 _atom_site_occupancy
  U  U0  1  0.27534200  0.26579400  0.05624100  1
  U  U1  1  0.27534200  0.23420600  0.55624100  1
  U  U2  1  0.72465800  0.73420600  0.94375900  1
  U  U3  1  0.72465800  0.76579400  0.44375900  1
  P  P4  1  0.60428600  0.35669200  0.95218000  1
  P  P5  1  0.60428600  0.14330800  0.45218000  1
  P  P6  1  0.39571400  0.64330800  0.04782000  1
  P  P7  1  0.39571400  0.85669200  0.54782000  1
  P  P8  1  0.97364400  0.98571300  0.84087800  1
  P  P9  1  0.97364400  0.51428700  0.34087800  1
  P  P10  1  0.02635600  0.01428700  0.15912200  1
  P  P11  1  0.02635600  0.48571300  0.65912200  1
  H  H12  1  0.76236800  0.35630900  0.07603300  1
  H  H13  1  0.76236800  0.14369100  0.57603300  1
  H  H14  1  0.23763200  0.64369100  0.92396700  1
  H  H15  1  0.23763200  0.85630900  0.42396700  1
  H  H16  1  0.67881900  0.27518900  0.89520600  1
  H  H17  1  0.67881900  0.22481100  0.39520600  1
  H  H18  1  0.32118100  0.72481100  0.10479400  1
  H  H19  1  0.32118100  0.77518900  0.60479400  1
  H  H20  1  0.99734500  0.93946500  0.74818700  1
  H  H21  1  0.99734500  0.56053500  0.24818700  1
  H  H22  1  0.00265500  0.06053500  0.25181300  1
  H  H23  1  0.00265500  0.43946500  0.75181300  1
  H  H24  1  0.80780400  0.08387400  0.78766300  1
  H  H25  1  0.80780400  0.41612600  0.28766300  1
  H  H26  1  0.19219600  0.91612600  0.21233700  1
  H  H27  1  0.19219600  0.58387400  0.71233700  1
  H  H28  1  0.34532600  0.48844800  0.25708800  1
  H  H29  1  0.34532600  0.01155200  0.75708800  1
  H  H30  1  0.65467400  0.51155200  0.74291200  1
  H  H31  1  0.65467400  0.98844800  0.24291200  1
  H  H32  1  0.31779900  0.33442700  0.29774500  1
  H  H33  1  0.31779900  0.16557300  0.79774500  1
  H  H34  1  0.68220100  0.66557300  0.70225500  1
  H  H35  1  0.68220100  0.83442700  0.20225500  1
  O  O36  1  0.51378200  0.17768600  0.17044100  1
  O  O37  1  0.51378200  0.32231400  0.67044100  1
  O  O38  1  0.48621800  0.82231400  0.82955900  1
  O  O39  1  0.48621800  0.67768600  0.32955900  1
  O  O40  1  0.03833200  0.35151600  0.94264500  1
  O  O41  1  0.03833200  0.14848400  0.44264500  1
  O  O42  1  0.96166800  0.64848400  0.05735500  1
  O  O43  1  0.96166800  0.85151600  0.55735500  1
  O  O44  1  0.56460500  0.50968100  0.90462900  1
  O  O45  1  0.56460500  0.99031900  0.40462900  1
  O  O46  1  0.43539500  0.49031900  0.09537100  1
  O  O47  1  0.43539500  0.00968100  0.59537100  1
  O  O48  1  0.41381700  0.27916300  0.93160100  1
  O  O49  1  0.41381700  0.22083700  0.43160100  1
  O  O50  1  0.58618300  0.72083700  0.06839900  1
  O  O51  1  0.58618300  0.77916300  0.56839900  1
  O  O52  1  0.17094400  0.06145600  0.93631500  1
  O  O53  1  0.17094400  0.43854400  0.43631500  1
  O  O54  1  0.82905600  0.93854400  0.06368500  1
  O  O55  1  0.82905600  0.56145600  0.56368500  1
  O  O56  1  0.91267700  0.85684700  0.88442900  1
  O  O57  1  0.91267700  0.64315300  0.38442900  1
  O  O58  1  0.08732300  0.14315300  0.11557100  1
  O  O59  1  0.08732300  0.35684700  0.61557100  1
  O  O60  1  0.28061200  0.39446800  0.22743700  1
  O  O61  1  0.28061200  0.10553200  0.72743700  1
  O  O62  1  0.71938800  0.60553200  0.77256300  1
  O  O63  1  0.71938800  0.89446800  0.27256300  1
