# generated using pymatgen
data_Fe2OF3
_symmetry_space_group_name_H-M   'P 1'
_cell_length_a   9.32643200
_cell_length_b   6.79042600
_cell_length_c   9.30734260
_cell_angle_alpha   90.00000000
_cell_angle_beta   96.52169759
_cell_angle_gamma   90.00000000
_symmetry_Int_Tables_number   1
_chemical_formula_structural   Fe2OF3
_chemical_formula_sum   'Fe16 O8 F24'
_cell_volume   585.62385698
_cell_formula_units_Z   8
loop_
 _symmetry_equiv_pos_site_id
 _symmetry_equiv_pos_as_xyz
  1  'x, y, z'
loop_
 _atom_site_type_symbol
 _atom_site_label
 _atom_site_symmetry_multiplicity
 _atom_site_fract_x
 _atom_site_fract_y
 _atom_site_fract_z
 _atom_site_occupancy
  Fe  Fe0  1  0.12432550  0.97608150  0.62395900  1
  Fe  Fe1  1  0.37367300  0.00000400  0.87433200  1
  Fe  Fe2  1  0.50000000  0.00830400  0.50000000  1
  Fe  Fe3  1  0.24729100  0.02312900  0.24918800  1
  Fe  Fe4  1  0.75270900  0.02312900  0.75081200  1
  Fe  Fe5  1  0.62632700  0.00000400  0.12566800  1
  Fe  Fe6  1  0.87567450  0.97608150  0.37604100  1
  Fe  Fe7  1  0.50000000  0.46542400  0.00000000  1
  Fe  Fe8  1  0.62432550  0.47608150  0.62395900  1
  Fe  Fe9  1  0.87367300  0.50000400  0.87433200  1
  Fe  Fe10  1  0.00000000  0.50830400  0.50000000  1
  Fe  Fe11  1  0.74729100  0.52312900  0.24918800  1
  Fe  Fe12  1  0.25270900  0.52312900  0.75081200  1
  Fe  Fe13  1  0.12632700  0.50000400  0.12566800  1
  Fe  Fe14  1  0.37567450  0.47608150  0.37604100  1
  Fe  Fe15  1  0.00000000  0.96542400  0.00000000  1
  O  O16  1  0.25354750  0.82382150  0.75405200  1
  O  O17  1  0.74645250  0.82382150  0.24594800  1
  O  O18  1  0.50000000  0.31146100  0.50000000  1
  O  O19  1  0.50000000  0.17007600  0.00000000  1
  O  O20  1  0.75354750  0.32382150  0.75405200  1
  O  O21  1  0.24645250  0.32382150  0.24594800  1
  O  O22  1  0.00000000  0.81146100  0.50000000  1
  O  O23  1  0.00000000  0.67007600  0.00000000  1
  F  F24  1  0.50000000  0.69266800  0.50000000  1
  F  F25  1  0.25136650  0.20284350  0.74890900  1
  F  F26  1  0.02165800  0.00743100  0.22927300  1
  F  F27  1  0.27057850  0.00505650  0.47680300  1
  F  F28  1  0.52487750  0.99530250  0.72641500  1
  F  F29  1  0.77127600  0.99818400  0.97656000  1
  F  F30  1  0.47512250  0.99530250  0.27358500  1
  F  F31  1  0.22872400  0.99818400  0.02344000  1
  F  F32  1  0.72942150  0.00505650  0.52319700  1
  F  F33  1  0.97834200  0.00743100  0.77072700  1
  F  F34  1  0.50000000  0.78836000  0.00000000  1
  F  F35  1  0.74863350  0.20284350  0.25109100  1
  F  F36  1  0.00000000  0.19266800  0.50000000  1
  F  F37  1  0.75136650  0.70284350  0.74890900  1
  F  F38  1  0.52165800  0.50743100  0.22927300  1
  F  F39  1  0.77057850  0.50505650  0.47680300  1
  F  F40  1  0.02487750  0.49530250  0.72641500  1
  F  F41  1  0.27127600  0.49818400  0.97656000  1
  F  F42  1  0.97512250  0.49530250  0.27358500  1
  F  F43  1  0.72872400  0.49818400  0.02344000  1
  F  F44  1  0.22942150  0.50505650  0.52319700  1
  F  F45  1  0.47834200  0.50743100  0.77072700  1
  F  F46  1  0.00000000  0.28836000  0.00000000  1
  F  F47  1  0.24863350  0.70284350  0.25109100  1
