# generated using pymatgen
data_MgAsH15O11
_symmetry_space_group_name_H-M   'P 1'
_cell_length_a   6.68560000
_cell_length_b   26.44136000
_cell_length_c   11.45588047
_cell_angle_alpha   90.00000000
_cell_angle_beta   95.57324011
_cell_angle_gamma   90.00000000
_symmetry_Int_Tables_number   1
_chemical_formula_structural   MgAsH15O11
_chemical_formula_sum   'Mg8 As8 H120 O88'
_cell_volume   2015.55575591
_cell_formula_units_Z   8
loop_
 _symmetry_equiv_pos_site_id
 _symmetry_equiv_pos_as_xyz
  1  'x, y, z'
loop_
 _atom_site_type_symbol
 _atom_site_label
 _atom_site_symmetry_multiplicity
 _atom_site_fract_x
 _atom_site_fract_y
 _atom_site_fract_z
 _atom_site_occupancy
  Mg  Mg0  1  0.00000000  0.27976600  0.25000000  1
  Mg  Mg1  1  0.00000000  0.44618700  0.75000000  1
  Mg  Mg2  1  0.50000000  0.05381300  0.25000000  1
  Mg  Mg3  1  0.50000000  0.22023400  0.75000000  1
  Mg  Mg4  1  0.50000000  0.77976600  0.25000000  1
  Mg  Mg5  1  0.50000000  0.94618700  0.75000000  1
  Mg  Mg6  1  0.00000000  0.55381300  0.25000000  1
  Mg  Mg7  1  0.00000000  0.72023400  0.75000000  1
  As  As8  1  0.93428900  0.09565100  0.95813400  1
  As  As9  1  0.06571100  0.09565100  0.54186600  1
  As  As10  1  0.43428900  0.40434900  0.45813400  1
  As  As11  1  0.56571100  0.40434900  0.04186600  1
  As  As12  1  0.43428900  0.59565100  0.95813400  1
  As  As13  1  0.56571100  0.59565100  0.54186600  1
  As  As14  1  0.93428900  0.90434900  0.45813400  1
  As  As15  1  0.06571100  0.90434900  0.04186600  1
  H  H16  1  0.70825000  0.48512400  0.31983500  1
  H  H17  1  0.79141050  0.46576450  0.20105100  1
  H  H18  1  0.69149500  0.38373100  0.82313300  1
  H  H19  1  0.68216600  0.38181900  0.68550800  1
  H  H20  1  0.80222300  0.35136900  0.36848500  1
  H  H21  1  0.73461800  0.28087800  0.62774700  1
  H  H22  1  0.87030450  0.24953950  0.85824600  1
  H  H23  1  0.89027850  0.19041750  0.83857200  1
  H  H24  1  0.97926700  0.19470900  0.39350500  1
  H  H25  1  0.81546550  0.45065250  0.53520100  1
  H  H26  1  0.96432400  0.36791100  0.12180600  1
  H  H27  1  0.95581750  0.43805550  0.99134900  1
  H  H28  1  0.03567600  0.36791100  0.37819400  1
  H  H29  1  0.96171200  0.33074300  0.85099800  1
  H  H30  1  0.00000000  0.00000000  0.00000000  1
  H  H31  1  0.02073300  0.19470900  0.10649500  1
  H  H32  1  0.01762250  0.31188550  0.98119900  1
  H  H33  1  0.00000000  0.12373600  0.75000000  1
  H  H34  1  0.98237750  0.31188550  0.51880100  1
  H  H35  1  0.00000000  0.00000000  0.50000000  1
  H  H36  1  0.03828800  0.33074300  0.64900200  1
  H  H37  1  0.04418250  0.43805550  0.50865100  1
  H  H38  1  0.19777700  0.35136900  0.13151500  1
  H  H39  1  0.18453450  0.45065250  0.96479900  1
  H  H40  1  0.19149500  0.11626900  0.32313300  1
  H  H41  1  0.18216600  0.11818100  0.18550800  1
  H  H42  1  0.20858950  0.46576450  0.29894900  1
  H  H43  1  0.10972150  0.19041750  0.66142800  1
  H  H44  1  0.12969550  0.24953950  0.64175400  1
  H  H45  1  0.23461800  0.21912200  0.12774700  1
  H  H46  1  0.20825000  0.01487600  0.81983500  1
  H  H47  1  0.29175000  0.48512400  0.18016500  1
  H  H48  1  0.26538200  0.28087800  0.87225300  1
  H  H49  1  0.37030450  0.25046050  0.35824600  1
  H  H50  1  0.39027850  0.30958250  0.33857200  1
  H  H51  1  0.29141050  0.03423550  0.70105100  1
  H  H52  1  0.31783400  0.38181900  0.81449200  1
  H  H53  1  0.30850500  0.38373100  0.67686700  1
  H  H54  1  0.31546550  0.04934750  0.03520100  1
  H  H55  1  0.30222300  0.14863100  0.86848500  1
  H  H56  1  0.45581750  0.06194450  0.49134900  1
  H  H57  1  0.46171200  0.16925700  0.35099800  1
  H  H58  1  0.51762250  0.18811450  0.48119900  1
  H  H59  1  0.50000000  0.37626400  0.25000000  1
  H  H60  1  0.48237750  0.18811450  0.01880100  1
  H  H61  1  0.47926700  0.30529100  0.89350500  1
  H  H62  1  0.53828800  0.16925700  0.14900200  1
  H  H63  1  0.46432400  0.13208900  0.62180600  1
  H  H64  1  0.54418250  0.06194450  0.00865100  1
  H  H65  1  0.53567600  0.13208900  0.87819400  1
  H  H66  1  0.68453450  0.04934750  0.46479900  1
  H  H67  1  0.52073300  0.30529100  0.60649500  1
  H  H68  1  0.60972150  0.30958250  0.16142800  1
  H  H69  1  0.62969550  0.25046050  0.14175400  1
  H  H70  1  0.76538200  0.21912200  0.37225300  1
  H  H71  1  0.69777700  0.14863100  0.63151500  1
  H  H72  1  0.81783400  0.11818100  0.31449200  1
  H  H73  1  0.80850500  0.11626900  0.17686700  1
  H  H74  1  0.70858950  0.03423550  0.79894900  1
  H  H75  1  0.79175000  0.01487600  0.68016500  1
  H  H76  1  0.20825000  0.98512400  0.31983500  1
  H  H77  1  0.29141050  0.96576450  0.20105100  1
  H  H78  1  0.19149500  0.88373100  0.82313300  1
  H  H79  1  0.18216600  0.88181900  0.68550800  1
  H  H80  1  0.30222300  0.85136900  0.36848500  1
  H  H81  1  0.23461800  0.78087800  0.62774700  1
  H  H82  1  0.37030450  0.74953950  0.85824600  1
  H  H83  1  0.39027850  0.69041750  0.83857200  1
  H  H84  1  0.47926700  0.69470900  0.39350500  1
  H  H85  1  0.31546550  0.95065250  0.53520100  1
  H  H86  1  0.46432400  0.86791100  0.12180600  1
  H  H87  1  0.45581750  0.93805550  0.99134900  1
  H  H88  1  0.53567600  0.86791100  0.37819400  1
  H  H89  1  0.46171200  0.83074300  0.85099800  1
  H  H90  1  0.50000000  0.50000000  0.00000000  1
  H  H91  1  0.52073300  0.69470900  0.10649500  1
  H  H92  1  0.51762250  0.81188550  0.98119900  1
  H  H93  1  0.50000000  0.62373600  0.75000000  1
  H  H94  1  0.48237750  0.81188550  0.51880100  1
  H  H95  1  0.50000000  0.50000000  0.50000000  1
  H  H96  1  0.53828800  0.83074300  0.64900200  1
  H  H97  1  0.54418250  0.93805550  0.50865100  1
  H  H98  1  0.69777700  0.85136900  0.13151500  1
  H  H99  1  0.68453450  0.95065250  0.96479900  1
  H  H100  1  0.69149500  0.61626900  0.32313300  1
  H  H101  1  0.68216600  0.61818100  0.18550800  1
  H  H102  1  0.70858950  0.96576450  0.29894900  1
  H  H103  1  0.60972150  0.69041750  0.66142800  1
  H  H104  1  0.62969550  0.74953950  0.64175400  1
  H  H105  1  0.73461800  0.71912200  0.12774700  1
  H  H106  1  0.70825000  0.51487600  0.81983500  1
  H  H107  1  0.79175000  0.98512400  0.18016500  1
  H  H108  1  0.76538200  0.78087800  0.87225300  1
  H  H109  1  0.87030450  0.75046050  0.35824600  1
  H  H110  1  0.89027850  0.80958250  0.33857200  1
  H  H111  1  0.79141050  0.53423550  0.70105100  1
  H  H112  1  0.81783400  0.88181900  0.81449200  1
  H  H113  1  0.80850500  0.88373100  0.67686700  1
  H  H114  1  0.81546550  0.54934750  0.03520100  1
  H  H115  1  0.80222300  0.64863100  0.86848500  1
  H  H116  1  0.95581750  0.56194450  0.49134900  1
  H  H117  1  0.96171200  0.66925700  0.35099800  1
  H  H118  1  0.01762250  0.68811450  0.48119900  1
  H  H119  1  0.00000000  0.87626400  0.25000000  1
  H  H120  1  0.98237750  0.68811450  0.01880100  1
  H  H121  1  0.97926700  0.80529100  0.89350500  1
  H  H122  1  0.03828800  0.66925700  0.14900200  1
  H  H123  1  0.96432400  0.63208900  0.62180600  1
  H  H124  1  0.04418250  0.56194450  0.00865100  1
  H  H125  1  0.03567600  0.63208900  0.87819400  1
  H  H126  1  0.18453450  0.54934750  0.46479900  1
  H  H127  1  0.02073300  0.80529100  0.60649500  1
  H  H128  1  0.10972150  0.80958250  0.16142800  1
  H  H129  1  0.12969550  0.75046050  0.14175400  1
  H  H130  1  0.26538200  0.71912200  0.37225300  1
  H  H131  1  0.19777700  0.64863100  0.63151500  1
  H  H132  1  0.31783400  0.61818100  0.31449200  1
  H  H133  1  0.30850500  0.61626900  0.17686700  1
  H  H134  1  0.20858950  0.53423550  0.79894900  1
  H  H135  1  0.29175000  0.51487600  0.68016500  1
  O  O136  1  0.42537650  0.45972950  0.02283400  1
  O  O137  1  0.77924900  0.49575700  0.25296100  1
  O  O138  1  0.80755000  0.41775900  0.09477600  1
  O  O139  1  0.79530450  0.21877350  0.82832900  1
  O  O140  1  0.77728600  0.38897500  0.75578300  1
  O  O141  1  0.90965600  0.22666900  0.36826800  1
  O  O142  1  0.94192700  0.33792600  0.37218200  1
  O  O143  1  0.04530500  0.13141600  0.41740800  1
  O  O144  1  0.95469500  0.13141600  0.08259200  1
  O  O145  1  0.95020200  0.13060500  0.64668100  1
  O  O146  1  0.92537650  0.04027050  0.52283400  1
  O  O147  1  0.95458300  0.44441100  0.57186700  1
  O  O148  1  0.01268300  0.30146400  0.89728100  1
  O  O149  1  0.05807300  0.33792600  0.12781800  1
  O  O150  1  0.98731700  0.30146400  0.60271900  1
  O  O151  1  0.04541700  0.44441100  0.92813300  1
  O  O152  1  0.09034400  0.22666900  0.13173200  1
  O  O153  1  0.04979800  0.13060500  0.85331900  1
  O  O154  1  0.19245000  0.41775900  0.40522400  1
  O  O155  1  0.22075100  0.49575700  0.24703900  1
  O  O156  1  0.29530450  0.28122650  0.32832900  1
  O  O157  1  0.27728600  0.11102500  0.25578300  1
  O  O158  1  0.22271400  0.38897500  0.74421700  1
  O  O159  1  0.20469550  0.21877350  0.67167100  1
  O  O160  1  0.27924900  0.00424300  0.75296100  1
  O  O161  1  0.30755000  0.08224100  0.59477600  1
  O  O162  1  0.45020200  0.36939500  0.14668100  1
  O  O163  1  0.40965600  0.27333100  0.86826800  1
  O  O164  1  0.45458300  0.05558900  0.07186700  1
  O  O165  1  0.51268300  0.19853600  0.39728100  1
  O  O166  1  0.44192700  0.16207400  0.87218200  1
  O  O167  1  0.48731700  0.19853600  0.10271900  1
  O  O168  1  0.54541700  0.05558900  0.42813300  1
  O  O169  1  0.57462350  0.45972950  0.47716600  1
  O  O170  1  0.54979800  0.36939500  0.35331900  1
  O  O171  1  0.54530500  0.36858400  0.91740800  1
  O  O172  1  0.45469500  0.36858400  0.58259200  1
  O  O173  1  0.55807300  0.16207400  0.62781800  1
  O  O174  1  0.59034400  0.27333100  0.63173200  1
  O  O175  1  0.72271400  0.11102500  0.24421700  1
  O  O176  1  0.70469550  0.28122650  0.17167100  1
  O  O177  1  0.69245000  0.08224100  0.90522400  1
  O  O178  1  0.72075100  0.00424300  0.74703900  1
  O  O179  1  0.07462350  0.04027050  0.97716600  1
  O  O180  1  0.92537650  0.95972950  0.02283400  1
  O  O181  1  0.27924900  0.99575700  0.25296100  1
  O  O182  1  0.30755000  0.91775900  0.09477600  1
  O  O183  1  0.29530450  0.71877350  0.82832900  1
  O  O184  1  0.27728600  0.88897500  0.75578300  1
  O  O185  1  0.40965600  0.72666900  0.36826800  1
  O  O186  1  0.44192700  0.83792600  0.37218200  1
  O  O187  1  0.54530500  0.63141600  0.41740800  1
  O  O188  1  0.45469500  0.63141600  0.08259200  1
  O  O189  1  0.45020200  0.63060500  0.64668100  1
  O  O190  1  0.42537650  0.54027050  0.52283400  1
  O  O191  1  0.45458300  0.94441100  0.57186700  1
  O  O192  1  0.51268300  0.80146400  0.89728100  1
  O  O193  1  0.55807300  0.83792600  0.12781800  1
  O  O194  1  0.48731700  0.80146400  0.60271900  1
  O  O195  1  0.54541700  0.94441100  0.92813300  1
  O  O196  1  0.59034400  0.72666900  0.13173200  1
  O  O197  1  0.54979800  0.63060500  0.85331900  1
  O  O198  1  0.69245000  0.91775900  0.40522400  1
  O  O199  1  0.72075100  0.99575700  0.24703900  1
  O  O200  1  0.79530450  0.78122650  0.32832900  1
  O  O201  1  0.77728600  0.61102500  0.25578300  1
  O  O202  1  0.72271400  0.88897500  0.74421700  1
  O  O203  1  0.70469550  0.71877350  0.67167100  1
  O  O204  1  0.77924900  0.50424300  0.75296100  1
  O  O205  1  0.80755000  0.58224100  0.59477600  1
  O  O206  1  0.95020200  0.86939500  0.14668100  1
  O  O207  1  0.90965600  0.77333100  0.86826800  1
  O  O208  1  0.95458300  0.55558900  0.07186700  1
  O  O209  1  0.01268300  0.69853600  0.39728100  1
  O  O210  1  0.94192700  0.66207400  0.87218200  1
  O  O211  1  0.98731700  0.69853600  0.10271900  1
  O  O212  1  0.04541700  0.55558900  0.42813300  1
  O  O213  1  0.07462350  0.95972950  0.47716600  1
  O  O214  1  0.04979800  0.86939500  0.35331900  1
  O  O215  1  0.04530500  0.86858400  0.91740800  1
  O  O216  1  0.95469500  0.86858400  0.58259200  1
  O  O217  1  0.05807300  0.66207400  0.62781800  1
  O  O218  1  0.09034400  0.77333100  0.63173200  1
  O  O219  1  0.22271400  0.61102500  0.24421700  1
  O  O220  1  0.20469550  0.78122650  0.17167100  1
  O  O221  1  0.19245000  0.58224100  0.90522400  1
  O  O222  1  0.22075100  0.50424300  0.74703900  1
  O  O223  1  0.57462350  0.54027050  0.97716600  1
