# generated using pymatgen
data_NaH4Au(Br2O)2
_symmetry_space_group_name_H-M   'P 1'
_cell_length_a   7.60692000
_cell_length_b   9.49071800
_cell_length_c   13.41699200
_cell_angle_alpha   90.00000000
_cell_angle_beta   90.00000000
_cell_angle_gamma   90.00000000
_symmetry_Int_Tables_number   1
_chemical_formula_structural   NaH4Au(Br2O)2
_chemical_formula_sum   'Na4 H16 Au4 Br16 O8'
_cell_volume   968.64151611
_cell_formula_units_Z   4
loop_
 _symmetry_equiv_pos_site_id
 _symmetry_equiv_pos_as_xyz
  1  'x, y, z'
loop_
 _atom_site_type_symbol
 _atom_site_label
 _atom_site_symmetry_multiplicity
 _atom_site_fract_x
 _atom_site_fract_y
 _atom_site_fract_z
 _atom_site_occupancy
  Na  Na0  1  0.75000000  0.04246100  0.01497800  1
  Na  Na1  1  0.25000000  0.54246100  0.48502200  1
  Na  Na2  1  0.75000000  0.45753900  0.51497800  1
  Na  Na3  1  0.25000000  0.95753900  0.98502200  1
  H  H4  1  0.50723900  0.86563800  0.13251100  1
  H  H5  1  0.99276100  0.86563800  0.13251100  1
  H  H6  1  0.02203700  0.01583700  0.17489000  1
  H  H7  1  0.47796300  0.01583700  0.17489000  1
  H  H8  1  0.97796300  0.51583700  0.32511000  1
  H  H9  1  0.52203700  0.51583700  0.32511000  1
  H  H10  1  0.00723900  0.36563800  0.36748900  1
  H  H11  1  0.49276100  0.36563800  0.36748900  1
  H  H12  1  0.99276100  0.63436200  0.63251100  1
  H  H13  1  0.50723900  0.63436200  0.63251100  1
  H  H14  1  0.02203700  0.48416300  0.67489000  1
  H  H15  1  0.47796300  0.48416300  0.67489000  1
  H  H16  1  0.97796300  0.98416300  0.82511000  1
  H  H17  1  0.52203700  0.98416300  0.82511000  1
  H  H18  1  0.49276100  0.13436200  0.86748900  1
  H  H19  1  0.00723900  0.13436200  0.86748900  1
  Au  Au20  1  0.75000000  0.51182600  0.06307100  1
  Au  Au21  1  0.25000000  0.01182600  0.43692900  1
  Au  Au22  1  0.75000000  0.98817400  0.56307100  1
  Au  Au23  1  0.25000000  0.48817400  0.93692900  1
  Br  Br24  1  0.25000000  0.27825700  0.04625900  1
  Br  Br25  1  0.25000000  0.64218400  0.08673600  1
  Br  Br26  1  0.75000000  0.30159500  0.17298000  1
  Br  Br27  1  0.75000000  0.66796800  0.21191000  1
  Br  Br28  1  0.25000000  0.16796800  0.28809000  1
  Br  Br29  1  0.25000000  0.80159500  0.32702000  1
  Br  Br30  1  0.75000000  0.14218400  0.41326400  1
  Br  Br31  1  0.75000000  0.77825700  0.45374100  1
  Br  Br32  1  0.25000000  0.22174300  0.54625900  1
  Br  Br33  1  0.25000000  0.85781600  0.58673600  1
  Br  Br34  1  0.75000000  0.19840500  0.67298000  1
  Br  Br35  1  0.75000000  0.83203200  0.71191000  1
  Br  Br36  1  0.25000000  0.33203200  0.78809000  1
  Br  Br37  1  0.25000000  0.69840500  0.82702000  1
  Br  Br38  1  0.75000000  0.35781600  0.91326400  1
  Br  Br39  1  0.75000000  0.72174300  0.95374100  1
  O  O40  1  0.49884500  0.96524300  0.11274600  1
  O  O41  1  0.00115500  0.96524300  0.11274600  1
  O  O42  1  0.99884500  0.46524300  0.38725400  1
  O  O43  1  0.50115500  0.46524300  0.38725400  1
  O  O44  1  0.49884500  0.53475700  0.61274600  1
  O  O45  1  0.00115500  0.53475700  0.61274600  1
  O  O46  1  0.99884500  0.03475700  0.88725400  1
  O  O47  1  0.50115500  0.03475700  0.88725400  1
