# generated using pymatgen
data_Li2Sn(BO3)2
_symmetry_space_group_name_H-M   'P 1'
_cell_length_a   5.22364600
_cell_length_b   8.98132500
_cell_length_c   10.48521604
_cell_angle_alpha   90.00000000
_cell_angle_beta   93.18312950
_cell_angle_gamma   90.00000000
_symmetry_Int_Tables_number   1
_chemical_formula_structural   Li2Sn(BO3)2
_chemical_formula_sum   'Li8 Sn4 B8 O24'
_cell_volume   491.15771188
_cell_formula_units_Z   4
loop_
 _symmetry_equiv_pos_site_id
 _symmetry_equiv_pos_as_xyz
  1  'x, y, z'
loop_
 _atom_site_type_symbol
 _atom_site_label
 _atom_site_symmetry_multiplicity
 _atom_site_fract_x
 _atom_site_fract_y
 _atom_site_fract_z
 _atom_site_occupancy
  Li  Li0  1  0.05362100  0.65679000  0.61004900  1
  Li  Li1  1  0.05488700  0.97184700  0.15107000  1
  Li  Li2  1  0.94637900  0.15679000  0.38995100  1
  Li  Li3  1  0.94511300  0.47184700  0.84893000  1
  Li  Li4  1  0.57852900  0.51582400  0.66164700  1
  Li  Li5  1  0.61193400  0.54137600  0.06736500  1
  Li  Li6  1  0.42147100  0.01582400  0.33835300  1
  Li  Li7  1  0.38806600  0.04137600  0.93263500  1
  Sn  Sn8  1  0.11619200  0.30546800  0.12196600  1
  Sn  Sn9  1  0.88380800  0.80546800  0.87803400  1
  Sn  Sn10  1  0.59555800  0.16981900  0.62359200  1
  Sn  Sn11  1  0.40444200  0.66981900  0.37640800  1
  B  B12  1  0.07830700  0.33125500  0.63420700  1
  B  B13  1  0.10464200  0.64919200  0.11835800  1
  B  B14  1  0.92169300  0.83125500  0.36579300  1
  B  B15  1  0.89535800  0.14919200  0.88164200  1
  B  B16  1  0.58030800  0.82903800  0.61986400  1
  B  B17  1  0.57373700  0.20054200  0.12849700  1
  B  B18  1  0.41969200  0.32903800  0.38013600  1
  B  B19  1  0.42626300  0.70054200  0.87150300  1
  O  O20  1  0.17830400  0.31110600  0.31899900  1
  O  O21  1  0.17595400  0.65694500  0.84706700  1
  O  O22  1  0.07051200  0.94899600  0.33781100  1
  O  O23  1  0.02447900  0.01578800  0.90501900  1
  O  O24  1  0.01269500  0.27844100  0.92756100  1
  O  O25  1  0.97637800  0.19217700  0.59567700  1
  O  O26  1  0.02362200  0.69217700  0.40432300  1
  O  O27  1  0.98730500  0.77844100  0.07243900  1
  O  O28  1  0.97552100  0.51578800  0.09498100  1
  O  O29  1  0.92948800  0.44899600  0.66218900  1
  O  O30  1  0.82169600  0.81110600  0.68100100  1
  O  O31  1  0.82404600  0.15694500  0.15293300  1
  O  O32  1  0.65194000  0.84188100  0.35592500  1
  O  O33  1  0.65375000  0.15139600  0.81954100  1
  O  O34  1  0.63214600  0.60212000  0.86968500  1
  O  O35  1  0.53780100  0.46359000  0.40459000  1
  O  O36  1  0.55059400  0.19904300  0.42232200  1
  O  O37  1  0.50406000  0.34693800  0.10223800  1
  O  O38  1  0.49594000  0.84693800  0.89776200  1
  O  O39  1  0.44940600  0.69904300  0.57767800  1
  O  O40  1  0.46219900  0.96359000  0.59541000  1
  O  O41  1  0.36785400  0.10212000  0.13031500  1
  O  O42  1  0.34806000  0.34188100  0.64407500  1
  O  O43  1  0.34625000  0.65139600  0.18045900  1
