# generated using pymatgen
data_Li2MnNi(PO4)2
_symmetry_space_group_name_H-M   'P 1'
_cell_length_a   4.76535724
_cell_length_b   6.05193300
_cell_length_c   10.37195665
_cell_angle_alpha   90.00000000
_cell_angle_beta   90.08223107
_cell_angle_gamma   90.00000000
_symmetry_Int_Tables_number   1
_chemical_formula_structural   Li2MnNi(PO4)2
_chemical_formula_sum   'Li4 Mn2 Ni2 P4 O16'
_cell_volume   299.12300854
_cell_formula_units_Z   2
loop_
 _symmetry_equiv_pos_site_id
 _symmetry_equiv_pos_as_xyz
  1  'x, y, z'
loop_
 _atom_site_type_symbol
 _atom_site_label
 _atom_site_symmetry_multiplicity
 _atom_site_fract_x
 _atom_site_fract_y
 _atom_site_fract_z
 _atom_site_occupancy
  Li  Li0  1  0.00000000  0.00000000  0.50000000  1
  Li  Li1  1  0.00000000  0.50000000  0.50000000  1
  Li  Li2  1  0.50000000  0.00000000  0.00000000  1
  Li  Li3  1  0.50000000  0.50000000  0.00000000  1
  Mn  Mn4  1  0.01875800  0.25000000  0.77641750  1
  Mn  Mn5  1  0.98124200  0.75000000  0.22358250  1
  Ni  Ni6  1  0.48189900  0.25000000  0.27964050  1
  Ni  Ni7  1  0.51810100  0.75000000  0.72035950  1
  P  P8  1  0.42026900  0.75000000  0.41189450  1
  P  P9  1  0.57973100  0.25000000  0.58810550  1
  P  P10  1  0.91008300  0.25000000  0.09819550  1
  P  P11  1  0.08991700  0.75000000  0.90180450  1
  O  O12  1  0.70584100  0.25000000  0.44949750  1
  O  O13  1  0.29415900  0.75000000  0.55050250  1
  O  O14  1  0.74225500  0.75000000  0.40918450  1
  O  O15  1  0.25774500  0.25000000  0.59081550  1
  O  O16  1  0.23298800  0.25000000  0.10496250  1
  O  O17  1  0.76701200  0.75000000  0.89503750  1
  O  O18  1  0.20511500  0.75000000  0.04201050  1
  O  O19  1  0.79488500  0.25000000  0.95798950  1
  O  O20  1  0.28743300  0.95516300  0.34050250  1
  O  O21  1  0.28743300  0.54483700  0.34050250  1
  O  O22  1  0.71256700  0.45516300  0.65949750  1
  O  O23  1  0.71256700  0.04483700  0.65949750  1
  O  O24  1  0.76956400  0.45272500  0.16747850  1
  O  O25  1  0.76956400  0.04727500  0.16747850  1
  O  O26  1  0.23043600  0.95272500  0.83252150  1
  O  O27  1  0.23043600  0.54727500  0.83252150  1
