# generated using pymatgen
data_Li4V5Co3O16
_symmetry_space_group_name_H-M   'P 1'
_cell_length_a   10.24180000
_cell_length_b   5.92930400
_cell_length_c   9.57752489
_cell_angle_alpha   90.00000000
_cell_angle_beta   90.97507482
_cell_angle_gamma   90.00000000
_symmetry_Int_Tables_number   1
_chemical_formula_structural   Li4V5Co3O16
_chemical_formula_sum   'Li8 V10 Co6 O32'
_cell_volume   581.52769718
_cell_formula_units_Z   2
loop_
 _symmetry_equiv_pos_site_id
 _symmetry_equiv_pos_as_xyz
  1  'x, y, z'
loop_
 _atom_site_type_symbol
 _atom_site_label
 _atom_site_symmetry_multiplicity
 _atom_site_fract_x
 _atom_site_fract_y
 _atom_site_fract_z
 _atom_site_occupancy
  Li  Li0  1  0.66167400  0.00000000  0.09868800  1
  Li  Li1  1  0.00050000  0.00000000  0.00631600  1
  Li  Li2  1  0.00046800  0.00000000  0.51276000  1
  Li  Li3  1  0.33301700  0.00000000  0.59978200  1
  Li  Li4  1  0.16167400  0.50000000  0.09868800  1
  Li  Li5  1  0.50050000  0.50000000  0.00631600  1
  Li  Li6  1  0.50046800  0.50000000  0.51276000  1
  Li  Li7  1  0.83301700  0.50000000  0.59978200  1
  V  V8  1  0.40253950  0.75594050  0.28030800  1
  V  V9  1  0.64677900  0.00000000  0.51191200  1
  V  V10  1  0.82106700  0.00000000  0.77060800  1
  V  V11  1  0.33791700  0.00000000  0.99848200  1
  V  V12  1  0.40253950  0.24405950  0.28030800  1
  V  V13  1  0.90253950  0.25594050  0.28030800  1
  V  V14  1  0.14677900  0.50000000  0.51191200  1
  V  V15  1  0.32106700  0.50000000  0.77060800  1
  V  V16  1  0.83791700  0.50000000  0.99848200  1
  V  V17  1  0.90253950  0.74405950  0.28030800  1
  Co  Co18  1  0.59008750  0.75463050  0.78967900  1
  Co  Co19  1  0.59008750  0.24536950  0.78967900  1
  Co  Co20  1  0.16965600  0.00000000  0.29249700  1
  Co  Co21  1  0.09008750  0.25463050  0.78967900  1
  Co  Co22  1  0.09008750  0.74536950  0.78967900  1
  Co  Co23  1  0.66965600  0.50000000  0.29249700  1
  O  O24  1  0.58324650  0.76353950  0.41018300  1
  O  O25  1  0.52290900  0.00000000  0.64399300  1
  O  O26  1  0.68384600  0.00000000  0.89511300  1
  O  O27  1  0.99146700  0.00000000  0.70478800  1
  O  O28  1  0.99439100  0.00000000  0.19752300  1
  O  O29  1  0.58324650  0.23646050  0.41018300  1
  O  O30  1  0.74695650  0.78625450  0.64510700  1
  O  O31  1  0.74695650  0.21374550  0.64510700  1
  O  O32  1  0.17671500  0.00000000  0.91986100  1
  O  O33  1  0.83190900  0.00000000  0.39748400  1
  O  O34  1  0.26543900  0.77369700  0.15530200  1
  O  O35  1  0.26543900  0.22630300  0.15530200  1
  O  O36  1  0.34657800  0.00000000  0.39675100  1
  O  O37  1  0.41101350  0.76589450  0.91218700  1
  O  O38  1  0.47676500  0.00000000  0.16070100  1
  O  O39  1  0.41101350  0.23410550  0.91218700  1
  O  O40  1  0.08324650  0.26353950  0.41018300  1
  O  O41  1  0.02290900  0.50000000  0.64399300  1
  O  O42  1  0.18384600  0.50000000  0.89511300  1
  O  O43  1  0.49146700  0.50000000  0.70478800  1
  O  O44  1  0.49439100  0.50000000  0.19752300  1
  O  O45  1  0.08324650  0.73646050  0.41018300  1
  O  O46  1  0.24695650  0.28625450  0.64510700  1
  O  O47  1  0.24695650  0.71374550  0.64510700  1
  O  O48  1  0.67671500  0.50000000  0.91986100  1
  O  O49  1  0.33190900  0.50000000  0.39748400  1
  O  O50  1  0.76543900  0.27369700  0.15530200  1
  O  O51  1  0.76543900  0.72630300  0.15530200  1
  O  O52  1  0.84657800  0.50000000  0.39675100  1
  O  O53  1  0.91101350  0.26589450  0.91218700  1
  O  O54  1  0.97676500  0.50000000  0.16070100  1
  O  O55  1  0.91101350  0.73410550  0.91218700  1
