# generated using pymatgen
data_Ba2GeO4
_symmetry_space_group_name_H-M   'P 1'
_cell_length_a   9.25263900
_cell_length_b   11.15967500
_cell_length_c   11.11854815
_cell_angle_alpha   90.00000000
_cell_angle_beta   94.47592150
_cell_angle_gamma   90.00000000
_symmetry_Int_Tables_number   1
_chemical_formula_structural   Ba2GeO4
_chemical_formula_sum   'Ba16 Ge8 O32'
_cell_volume   1144.56040763
_cell_formula_units_Z   8
loop_
 _symmetry_equiv_pos_site_id
 _symmetry_equiv_pos_as_xyz
  1  'x, y, z'
loop_
 _atom_site_type_symbol
 _atom_site_label
 _atom_site_symmetry_multiplicity
 _atom_site_fract_x
 _atom_site_fract_y
 _atom_site_fract_z
 _atom_site_occupancy
  Ba  Ba0  1  0.08780200  0.92835700  0.79432200  1
  Ba  Ba1  1  0.08780200  0.57164300  0.29432200  1
  Ba  Ba2  1  0.18068300  0.57887000  0.92779500  1
  Ba  Ba3  1  0.18068300  0.92113000  0.42779500  1
  Ba  Ba4  1  0.34119800  0.58457900  0.58981300  1
  Ba  Ba5  1  0.36878600  0.20880500  0.57697200  1
  Ba  Ba6  1  0.34119800  0.91542100  0.08981300  1
  Ba  Ba7  1  0.36878600  0.29119500  0.07697200  1
  Ba  Ba8  1  0.63121400  0.70880500  0.92302800  1
  Ba  Ba9  1  0.65880200  0.08457900  0.91018700  1
  Ba  Ba10  1  0.63121400  0.79119500  0.42302800  1
  Ba  Ba11  1  0.65880200  0.41542100  0.41018700  1
  Ba  Ba12  1  0.81931700  0.07887000  0.57220500  1
  Ba  Ba13  1  0.81931700  0.42113000  0.07220500  1
  Ba  Ba14  1  0.91219800  0.42835700  0.70567800  1
  Ba  Ba15  1  0.91219800  0.07164300  0.20567800  1
  Ge  Ge16  1  0.02670300  0.20277600  0.92808200  1
  Ge  Ge17  1  0.02670300  0.29722400  0.42808200  1
  Ge  Ge18  1  0.45569300  0.92267800  0.70120400  1
  Ge  Ge19  1  0.45569300  0.57732200  0.20120400  1
  Ge  Ge20  1  0.54430700  0.42267800  0.79879600  1
  Ge  Ge21  1  0.54430700  0.07732200  0.29879600  1
  Ge  Ge22  1  0.97329700  0.70277600  0.57191800  1
  Ge  Ge23  1  0.97329700  0.79722400  0.07191800  1
  O  O24  1  0.04614100  0.64219800  0.71280800  1
  O  O25  1  0.07642400  0.35711500  0.91527800  1
  O  O26  1  0.04614100  0.85780200  0.21280800  1
  O  O27  1  0.07642400  0.14288500  0.41527800  1
  O  O28  1  0.12475700  0.79754000  0.98068800  1
  O  O29  1  0.12475700  0.70246000  0.48068800  1
  O  O30  1  0.16865500  0.38602500  0.49858600  1
  O  O31  1  0.16865500  0.11397500  0.99858600  1
  O  O32  1  0.28410300  0.98410000  0.64671100  1
  O  O33  1  0.28410300  0.51590000  0.14671100  1
  O  O34  1  0.41799200  0.54024500  0.82406000  1
  O  O35  1  0.45597000  0.89859200  0.86096900  1
  O  O36  1  0.41799200  0.95975500  0.32406000  1
  O  O37  1  0.50445000  0.28863800  0.87526000  1
  O  O38  1  0.45597000  0.60140800  0.36096900  1
  O  O39  1  0.49555000  0.78863800  0.62474000  1
  O  O40  1  0.50445000  0.21136200  0.37526000  1
  O  O41  1  0.54403000  0.39859200  0.63903100  1
  O  O42  1  0.49555000  0.71136200  0.12474000  1
  O  O43  1  0.58200800  0.04024500  0.67594000  1
  O  O44  1  0.54403000  0.10140800  0.13903100  1
  O  O45  1  0.58200800  0.45975500  0.17594000  1
  O  O46  1  0.71589700  0.48410000  0.85328900  1
  O  O47  1  0.71589700  0.01590000  0.35328900  1
  O  O48  1  0.83134500  0.88602500  0.00141400  1
  O  O49  1  0.83134500  0.61397500  0.50141400  1
  O  O50  1  0.87524300  0.29754000  0.51931200  1
  O  O51  1  0.87524300  0.20246000  0.01931200  1
  O  O52  1  0.92357600  0.85711500  0.58472200  1
  O  O53  1  0.95385900  0.14219800  0.78719200  1
  O  O54  1  0.92357600  0.64288500  0.08472200  1
  O  O55  1  0.95385900  0.35780200  0.28719200  1
