# generated using pymatgen
data_Li5La3Nb2O12
_symmetry_space_group_name_H-M   'P 1'
_cell_length_a   18.08379200
_cell_length_b   12.97425400
_cell_length_c   12.83429173
_cell_angle_alpha   90.00000000
_cell_angle_beta   134.63791893
_cell_angle_gamma   90.00000000
_symmetry_Int_Tables_number   1
_chemical_formula_structural   Li5La3Nb2O12
_chemical_formula_sum   'Li40 La24 Nb16 O96'
_cell_volume   2142.67382154
_cell_formula_units_Z   8
loop_
 _symmetry_equiv_pos_site_id
 _symmetry_equiv_pos_as_xyz
  1  'x, y, z'
loop_
 _atom_site_type_symbol
 _atom_site_label
 _atom_site_symmetry_multiplicity
 _atom_site_fract_x
 _atom_site_fract_y
 _atom_site_fract_z
 _atom_site_occupancy
  Li  Li0  1  0.09300900  0.57891600  0.27973900  1
  Li  Li1  1  0.18254250  0.39412350  0.25210600  1
  Li  Li2  1  0.31690400  0.60786200  0.38627900  1
  Li  Li3  1  0.81690400  0.89213800  0.88627900  1
  Li  Li4  1  0.31976800  0.88003600  0.25247900  1
  Li  Li5  1  0.89606450  0.57306850  0.21385400  1
  Li  Li6  1  0.43247900  0.32682800  0.80765900  1
  Li  Li7  1  0.43247900  0.67317200  0.30765900  1
  Li  Li8  1  0.06969600  0.82375700  0.69225600  1
  Li  Li9  1  0.07317850  0.68122450  0.46383600  1
  Li  Li10  1  0.06969600  0.17624300  0.19225600  1
  Li  Li11  1  0.11454250  0.06879650  0.43507500  1
  Li  Li12  1  0.59300900  0.92108400  0.77973900  1
  Li  Li13  1  0.11454250  0.93120350  0.93507500  1
  Li  Li14  1  0.18124100  0.89026500  0.61214800  1
  Li  Li15  1  0.18254250  0.60587650  0.75210600  1
  Li  Li16  1  0.68124100  0.60973500  0.11214800  1
  Li  Li17  1  0.31976800  0.11996400  0.75247900  1
  Li  Li18  1  0.39606450  0.92693150  0.71385400  1
  Li  Li19  1  0.57317850  0.81877550  0.96383600  1
  Li  Li20  1  0.59300900  0.07891600  0.27973900  1
  Li  Li21  1  0.68254250  0.89412350  0.25210600  1
  Li  Li22  1  0.81690400  0.10786200  0.38627900  1
  Li  Li23  1  0.31690400  0.39213800  0.88627900  1
  Li  Li24  1  0.81976800  0.38003600  0.25247900  1
  Li  Li25  1  0.39606450  0.07306850  0.21385400  1
  Li  Li26  1  0.93247900  0.82682800  0.80765900  1
  Li  Li27  1  0.93247900  0.17317200  0.30765900  1
  Li  Li28  1  0.56969600  0.32375700  0.69225600  1
  Li  Li29  1  0.57317850  0.18122450  0.46383600  1
  Li  Li30  1  0.56969600  0.67624300  0.19225600  1
  Li  Li31  1  0.61454250  0.56879650  0.43507500  1
  Li  Li32  1  0.09300900  0.42108400  0.77973900  1
  Li  Li33  1  0.61454250  0.43120350  0.93507500  1
  Li  Li34  1  0.68124100  0.39026500  0.61214800  1
  Li  Li35  1  0.68254250  0.10587650  0.75210600  1
  Li  Li36  1  0.18124100  0.10973500  0.11214800  1
  Li  Li37  1  0.81976800  0.61996400  0.75247900  1
  Li  Li38  1  0.89606450  0.42693150  0.71385400  1
  Li  Li39  1  0.07317850  0.31877550  0.96383600  1
  La  La40  1  0.12095800  0.74924500  0.12364400  1
  La  La41  1  0.25368600  0.49937400  0.11426100  1
  La  La42  1  0.25368600  0.50062600  0.61426100  1
  La  La43  1  0.87031050  0.75376850  0.37129100  1
  La  La44  1  0.99659100  0.87136900  0.24158300  1
  La  La45  1  0.49659100  0.62863100  0.74158300  1
  La  La46  1  0.00092900  0.37022500  0.25140800  1
  La  La47  1  0.50092900  0.12977500  0.75140800  1
  La  La48  1  0.62095800  0.75075500  0.62364400  1
  La  La49  1  0.25114000  0.99762800  0.37992000  1
  La  La50  1  0.25114000  0.00237200  0.87992000  1
  La  La51  1  0.37031050  0.74623150  0.87129100  1
  La  La52  1  0.62095800  0.24924500  0.12364400  1
  La  La53  1  0.75368600  0.99937400  0.11426100  1
  La  La54  1  0.75368600  0.00062600  0.61426100  1
  La  La55  1  0.37031050  0.25376850  0.37129100  1
  La  La56  1  0.49659100  0.37136900  0.24158300  1
  La  La57  1  0.99659100  0.12863100  0.74158300  1
  La  La58  1  0.50092900  0.87022500  0.25140800  1
  La  La59  1  0.00092900  0.62977500  0.75140800  1
  La  La60  1  0.12095800  0.25075500  0.62364400  1
  La  La61  1  0.75114000  0.49762800  0.37992000  1
  La  La62  1  0.75114000  0.50237200  0.87992000  1
  La  La63  1  0.87031050  0.24623150  0.87129100  1
  Nb  Nb64  1  0.99892350  0.50286950  0.00065300  1
  Nb  Nb65  1  0.75284750  0.74537950  0.00102500  1
  Nb  Nb66  1  0.25262150  0.74941850  0.00204800  1
  Nb  Nb67  1  0.75262150  0.75058150  0.50204800  1
  Nb  Nb68  1  0.49892350  0.99713050  0.50065300  1
  Nb  Nb69  1  0.99891150  0.99583350  0.50274200  1
  Nb  Nb70  1  0.99891150  0.00416650  0.00274200  1
  Nb  Nb71  1  0.25284750  0.75462050  0.50102500  1
  Nb  Nb72  1  0.49892350  0.00286950  0.00065300  1
  Nb  Nb73  1  0.25284750  0.24537950  0.00102500  1
  Nb  Nb74  1  0.75262150  0.24941850  0.00204800  1
  Nb  Nb75  1  0.25262150  0.25058150  0.50204800  1
  Nb  Nb76  1  0.99892350  0.49713050  0.50065300  1
  Nb  Nb77  1  0.49891150  0.49583350  0.50274200  1
  Nb  Nb78  1  0.49891150  0.50416650  0.00274200  1
  Nb  Nb79  1  0.75284750  0.25462050  0.50102500  1
  O  O80  1  0.95066200  0.52514100  0.09949800  1
  O  O81  1  0.05206050  0.53240050  0.40318400  1
  O  O82  1  0.10625100  0.72240400  0.30850100  1
  O  O83  1  0.14777700  0.95144600  0.11669300  1
  O  O84  1  0.14439400  0.55418300  0.17781900  1
  O  O85  1  0.18856250  0.39137950  0.40724900  1
  O  O86  1  0.22063600  0.30751900  0.11587100  1
  O  O87  1  0.78217400  0.80883600  0.67541900  1
  O  O88  1  0.28217400  0.69116400  0.17541900  1
  O  O89  1  0.27374150  0.80724750  0.37764400  1
  O  O90  1  0.30768750  0.61116250  0.52573300  1
  O  O91  1  0.30768750  0.38883750  0.02573300  1
  O  O92  1  0.80157100  0.39372100  0.08433500  1
  O  O93  1  0.85335450  0.54538150  0.32206400  1
  O  O94  1  0.35034850  0.45149850  0.37215700  1
  O  O95  1  0.89463850  0.71975650  0.20811100  1
  O  O96  1  0.89601650  0.77693850  0.59166600  1
  O  O97  1  0.89601650  0.22306150  0.09166600  1
  O  O98  1  0.46895650  0.64144050  0.51845400  1
  O  O99  1  0.96895650  0.85855950  0.01845400  1
  O  O100  1  0.47144650  0.14501150  0.91180800  1
  O  O101  1  0.47144650  0.85498850  0.41180800  1
  O  O102  1  0.45965350  0.52573450  0.31391700  1
  O  O103  1  0.45965350  0.47426550  0.81391700  1
  O  O104  1  0.06106300  0.02763800  0.20835200  1
  O  O105  1  0.06106300  0.97236200  0.70835200  1
  O  O106  1  0.03155350  0.64403950  0.57612200  1
  O  O107  1  0.03266950  0.85018750  0.49017100  1
  O  O108  1  0.53266950  0.64981250  0.99017100  1
  O  O109  1  0.03155350  0.35596050  0.07612200  1
  O  O110  1  0.60439800  0.28276900  0.91185100  1
  O  O111  1  0.60439800  0.71723100  0.41185100  1
  O  O112  1  0.60625100  0.77759600  0.80850100  1
  O  O113  1  0.64439400  0.94581700  0.67781900  1
  O  O114  1  0.14777700  0.04855400  0.61669300  1
  O  O115  1  0.19707850  0.10355850  0.98047400  1
  O  O116  1  0.19707850  0.89644150  0.48047400  1
  O  O117  1  0.68856250  0.10862050  0.90724900  1
  O  O118  1  0.21956050  0.80489650  0.82469900  1
  O  O119  1  0.71956050  0.69510350  0.32469900  1
  O  O120  1  0.22063600  0.69248100  0.61587100  1
  O  O121  1  0.27374150  0.19275250  0.87764400  1
  O  O122  1  0.30157100  0.10627900  0.58433500  1
  O  O123  1  0.35034850  0.54850150  0.87215700  1
  O  O124  1  0.35335450  0.95461850  0.82206400  1
  O  O125  1  0.39463850  0.78024350  0.70811100  1
  O  O126  1  0.45066200  0.97485900  0.59949800  1
  O  O127  1  0.55206050  0.96759950  0.90318400  1
  O  O128  1  0.45066200  0.02514100  0.09949800  1
  O  O129  1  0.55206050  0.03240050  0.40318400  1
  O  O130  1  0.60625100  0.22240400  0.30850100  1
  O  O131  1  0.64777700  0.45144600  0.11669300  1
  O  O132  1  0.64439400  0.05418300  0.17781900  1
  O  O133  1  0.68856250  0.89137950  0.40724900  1
  O  O134  1  0.72063600  0.80751900  0.11587100  1
  O  O135  1  0.28217400  0.30883600  0.67541900  1
  O  O136  1  0.78217400  0.19116400  0.17541900  1
  O  O137  1  0.77374150  0.30724750  0.37764400  1
  O  O138  1  0.80768750  0.11116250  0.52573300  1
  O  O139  1  0.80768750  0.88883750  0.02573300  1
  O  O140  1  0.30157100  0.89372100  0.08433500  1
  O  O141  1  0.35335450  0.04538150  0.32206400  1
  O  O142  1  0.85034850  0.95149850  0.37215700  1
  O  O143  1  0.39463850  0.21975650  0.20811100  1
  O  O144  1  0.39601650  0.27693850  0.59166600  1
  O  O145  1  0.39601650  0.72306150  0.09166600  1
  O  O146  1  0.96895650  0.14144050  0.51845400  1
  O  O147  1  0.46895650  0.35855950  0.01845400  1
  O  O148  1  0.97144650  0.64501150  0.91180800  1
  O  O149  1  0.97144650  0.35498850  0.41180800  1
  O  O150  1  0.95965350  0.02573450  0.31391700  1
  O  O151  1  0.95965350  0.97426550  0.81391700  1
  O  O152  1  0.56106300  0.52763800  0.20835200  1
  O  O153  1  0.56106300  0.47236200  0.70835200  1
  O  O154  1  0.53155350  0.14403950  0.57612200  1
  O  O155  1  0.53266950  0.35018750  0.49017100  1
  O  O156  1  0.03266950  0.14981250  0.99017100  1
  O  O157  1  0.53155350  0.85596050  0.07612200  1
  O  O158  1  0.10439800  0.78276900  0.91185100  1
  O  O159  1  0.10439800  0.21723100  0.41185100  1
  O  O160  1  0.10625100  0.27759600  0.80850100  1
  O  O161  1  0.14439400  0.44581700  0.67781900  1
  O  O162  1  0.64777700  0.54855400  0.61669300  1
  O  O163  1  0.69707850  0.60355850  0.98047400  1
  O  O164  1  0.69707850  0.39644150  0.48047400  1
  O  O165  1  0.18856250  0.60862050  0.90724900  1
  O  O166  1  0.71956050  0.30489650  0.82469900  1
  O  O167  1  0.21956050  0.19510350  0.32469900  1
  O  O168  1  0.72063600  0.19248100  0.61587100  1
  O  O169  1  0.77374150  0.69275250  0.87764400  1
  O  O170  1  0.80157100  0.60627900  0.58433500  1
  O  O171  1  0.85034850  0.04850150  0.87215700  1
  O  O172  1  0.85335450  0.45461850  0.82206400  1
  O  O173  1  0.89463850  0.28024350  0.70811100  1
  O  O174  1  0.95066200  0.47485900  0.59949800  1
  O  O175  1  0.05206050  0.46759950  0.90318400  1
