# generated using pymatgen
data_Ca4Al6O13
_symmetry_space_group_name_H-M   'P 1'
_cell_length_a   8.87490400
_cell_length_b   8.87490400
_cell_length_c   8.87490400
_cell_angle_alpha   90.00000000
_cell_angle_beta   90.00000000
_cell_angle_gamma   90.00000000
_symmetry_Int_Tables_number   1
_chemical_formula_structural   Ca4Al6O13
_chemical_formula_sum   'Ca8 Al12 O26'
_cell_volume   699.02223762
_cell_formula_units_Z   2
loop_
 _symmetry_equiv_pos_site_id
 _symmetry_equiv_pos_as_xyz
  1  'x, y, z'
loop_
 _atom_site_type_symbol
 _atom_site_label
 _atom_site_symmetry_multiplicity
 _atom_site_fract_x
 _atom_site_fract_y
 _atom_site_fract_z
 _atom_site_occupancy
  Ca  Ca0  1  0.34610900  0.65389100  0.34610900  1
  Ca  Ca1  1  0.65389100  0.34610900  0.34610900  1
  Ca  Ca2  1  0.34610900  0.34610900  0.65389100  1
  Ca  Ca3  1  0.15389100  0.15389100  0.15389100  1
  Ca  Ca4  1  0.84610900  0.15389100  0.84610900  1
  Ca  Ca5  1  0.15389100  0.84610900  0.84610900  1
  Ca  Ca6  1  0.84610900  0.84610900  0.15389100  1
  Ca  Ca7  1  0.65389100  0.65389100  0.65389100  1
  Al  Al8  1  0.00000000  0.50000000  0.25000000  1
  Al  Al9  1  0.00000000  0.25000000  0.50000000  1
  Al  Al10  1  0.50000000  0.25000000  0.00000000  1
  Al  Al11  1  0.25000000  0.00000000  0.50000000  1
  Al  Al12  1  0.25000000  0.50000000  0.00000000  1
  Al  Al13  1  0.50000000  0.00000000  0.25000000  1
  Al  Al14  1  0.50000000  0.00000000  0.75000000  1
  Al  Al15  1  0.50000000  0.75000000  0.00000000  1
  Al  Al16  1  0.00000000  0.75000000  0.50000000  1
  Al  Al17  1  0.75000000  0.50000000  0.00000000  1
  Al  Al18  1  0.75000000  0.00000000  0.50000000  1
  Al  Al19  1  0.00000000  0.50000000  0.75000000  1
  O  O20  1  0.00000000  0.00000000  0.00000000  1
  O  O21  1  0.13948150  0.40971150  0.13948150  1
  O  O22  1  0.90971150  0.36051850  0.36051850  1
  O  O23  1  0.36051850  0.36051850  0.90971150  1
  O  O24  1  0.86051850  0.13948150  0.59028850  1
  O  O25  1  0.59028850  0.13948150  0.86051850  1
  O  O26  1  0.59028850  0.86051850  0.13948150  1
  O  O27  1  0.40971150  0.13948150  0.13948150  1
  O  O28  1  0.13948150  0.13948150  0.40971150  1
  O  O29  1  0.13948150  0.86051850  0.59028850  1
  O  O30  1  0.36051850  0.90971150  0.36051850  1
  O  O31  1  0.13948150  0.59028850  0.86051850  1
  O  O32  1  0.86051850  0.59028850  0.13948150  1
  O  O33  1  0.50000000  0.50000000  0.50000000  1
  O  O34  1  0.63948150  0.90971150  0.63948150  1
  O  O35  1  0.40971150  0.86051850  0.86051850  1
  O  O36  1  0.86051850  0.86051850  0.40971150  1
  O  O37  1  0.36051850  0.63948150  0.09028850  1
  O  O38  1  0.09028850  0.63948150  0.36051850  1
  O  O39  1  0.09028850  0.36051850  0.63948150  1
  O  O40  1  0.90971150  0.63948150  0.63948150  1
  O  O41  1  0.63948150  0.63948150  0.90971150  1
  O  O42  1  0.63948150  0.36051850  0.09028850  1
  O  O43  1  0.86051850  0.40971150  0.86051850  1
  O  O44  1  0.63948150  0.09028850  0.36051850  1
  O  O45  1  0.36051850  0.09028850  0.63948150  1
