# generated using pymatgen
data_Tm2P4O13
_symmetry_space_group_name_H-M   'P 1'
_cell_length_a   11.92260600
_cell_length_b   6.74138400
_cell_length_c   12.89205682
_cell_angle_alpha   90.00000000
_cell_angle_beta   106.32049906
_cell_angle_gamma   90.00000000
_symmetry_Int_Tables_number   1
_chemical_formula_structural   Tm2P4O13
_chemical_formula_sum   'Tm8 P16 O52'
_cell_volume   994.44356712
_cell_formula_units_Z   4
loop_
 _symmetry_equiv_pos_site_id
 _symmetry_equiv_pos_as_xyz
  1  'x, y, z'
loop_
 _atom_site_type_symbol
 _atom_site_label
 _atom_site_symmetry_multiplicity
 _atom_site_fract_x
 _atom_site_fract_y
 _atom_site_fract_z
 _atom_site_occupancy
  Tm  Tm0  1  0.69464350  0.00229850  0.55055100  1
  Tm  Tm1  1  0.80535650  0.50229850  0.94944900  1
  Tm  Tm2  1  0.69464350  0.99770150  0.05055100  1
  Tm  Tm3  1  0.80535650  0.49770150  0.44944900  1
  Tm  Tm4  1  0.19464350  0.50229850  0.55055100  1
  Tm  Tm5  1  0.30535650  0.00229850  0.94944900  1
  Tm  Tm6  1  0.19464350  0.49770150  0.05055100  1
  Tm  Tm7  1  0.30535650  0.99770150  0.44944900  1
  P  P8  1  0.98781750  0.15083450  0.63296000  1
  P  P9  1  0.98781750  0.84916550  0.13296000  1
  P  P10  1  0.73355050  0.50703350  0.65988500  1
  P  P11  1  0.76644950  0.00703350  0.84011500  1
  P  P12  1  0.73355050  0.49296650  0.15988500  1
  P  P13  1  0.76644950  0.99296650  0.34011500  1
  P  P14  1  0.51218250  0.65083450  0.86704000  1
  P  P15  1  0.51218250  0.34916550  0.36704000  1
  P  P16  1  0.48781750  0.65083450  0.63296000  1
  P  P17  1  0.48781750  0.34916550  0.13296000  1
  P  P18  1  0.23355050  0.00703350  0.65988500  1
  P  P19  1  0.26644950  0.50703350  0.84011500  1
  P  P20  1  0.23355050  0.99296650  0.15988500  1
  P  P21  1  0.26644950  0.49296650  0.34011500  1
  P  P22  1  0.01218250  0.15083450  0.86704000  1
  P  P23  1  0.01218250  0.84916550  0.36704000  1
  O  O24  1  0.99409550  0.32334950  0.55798800  1
  O  O25  1  0.88657700  0.01094500  0.60257300  1
  O  O26  1  0.99409550  0.67665050  0.05798800  1
  O  O27  1  0.90324650  0.00579450  0.84708500  1
  O  O28  1  0.75679500  0.68276100  0.59337800  1
  O  O29  1  0.75096100  0.32485300  0.59474400  1
  O  O30  1  0.80098500  0.50560600  0.77796700  1
  O  O31  1  0.88657700  0.98905500  0.10257300  1
  O  O32  1  0.90324650  0.99420550  0.34708500  1
  O  O33  1  0.69901500  0.00560600  0.72203300  1
  O  O34  1  0.74903900  0.82485300  0.90525600  1
  O  O35  1  0.74320500  0.18276100  0.90662200  1
  O  O36  1  0.75679500  0.31723900  0.09337800  1
  O  O37  1  0.75096100  0.67514700  0.09474400  1
  O  O38  1  0.80098500  0.49439400  0.27796700  1
  O  O39  1  0.59675350  0.50579450  0.65291500  1
  O  O40  1  0.61342300  0.51094500  0.89742700  1
  O  O41  1  0.69901500  0.99439400  0.22203300  1
  O  O42  1  0.74903900  0.17514700  0.40525600  1
  O  O43  1  0.74320500  0.81723900  0.40662200  1
  O  O44  1  0.00000000  0.24813500  0.75000000  1
  O  O45  1  0.59675350  0.49420550  0.15291500  1
  O  O46  1  0.50590450  0.82334950  0.94201200  1
  O  O47  1  0.61342300  0.48905500  0.39742700  1
  O  O48  1  0.00000000  0.75186500  0.25000000  1
  O  O49  1  0.50590450  0.17665050  0.44201200  1
  O  O50  1  0.49409550  0.82334950  0.55798800  1
  O  O51  1  0.38657700  0.51094500  0.60257300  1
  O  O52  1  0.49409550  0.17665050  0.05798800  1
  O  O53  1  0.40324650  0.50579450  0.84708500  1
  O  O54  1  0.25679500  0.18276100  0.59337800  1
  O  O55  1  0.25096100  0.82485300  0.59474400  1
  O  O56  1  0.30098500  0.00560600  0.77796700  1
  O  O57  1  0.38657700  0.48905500  0.10257300  1
  O  O58  1  0.40324650  0.49420550  0.34708500  1
  O  O59  1  0.19901500  0.50560600  0.72203300  1
  O  O60  1  0.24903900  0.32485300  0.90525600  1
  O  O61  1  0.24320500  0.68276100  0.90662200  1
  O  O62  1  0.25679500  0.81723900  0.09337800  1
  O  O63  1  0.25096100  0.17514700  0.09474400  1
  O  O64  1  0.30098500  0.99439400  0.27796700  1
  O  O65  1  0.09675350  0.00579450  0.65291500  1
  O  O66  1  0.11342300  0.01094500  0.89742700  1
  O  O67  1  0.19901500  0.49439400  0.22203300  1
  O  O68  1  0.24903900  0.67514700  0.40525600  1
  O  O69  1  0.24320500  0.31723900  0.40662200  1
  O  O70  1  0.50000000  0.74813500  0.75000000  1
  O  O71  1  0.09675350  0.99420550  0.15291500  1
  O  O72  1  0.00590450  0.32334950  0.94201200  1
  O  O73  1  0.11342300  0.98905500  0.39742700  1
  O  O74  1  0.50000000  0.25186500  0.25000000  1
  O  O75  1  0.00590450  0.67665050  0.44201200  1
