# generated using pymatgen
data_LiTi(PO3)4
_symmetry_space_group_name_H-M   'P 1'
_cell_length_a   15.39786600
_cell_length_b   7.86834200
_cell_length_c   9.19473647
_cell_angle_alpha   90.00000000
_cell_angle_beta   120.15025068
_cell_angle_gamma   90.00000000
_symmetry_Int_Tables_number   1
_chemical_formula_structural   LiTi(PO3)4
_chemical_formula_sum   'Li4 Ti4 P16 O48'
_cell_volume   963.28357757
_cell_formula_units_Z   4
loop_
 _symmetry_equiv_pos_site_id
 _symmetry_equiv_pos_as_xyz
  1  'x, y, z'
loop_
 _atom_site_type_symbol
 _atom_site_label
 _atom_site_symmetry_multiplicity
 _atom_site_fract_x
 _atom_site_fract_y
 _atom_site_fract_z
 _atom_site_occupancy
  Li  Li0  1  0.00000000  0.00000000  0.50000000  1
  Li  Li1  1  0.00000000  0.00000000  0.00000000  1
  Li  Li2  1  0.50000000  0.50000000  0.50000000  1
  Li  Li3  1  0.50000000  0.50000000  0.00000000  1
  Ti  Ti4  1  0.00000000  0.68334200  0.75000000  1
  Ti  Ti5  1  0.00000000  0.31665800  0.25000000  1
  Ti  Ti6  1  0.50000000  0.18334200  0.75000000  1
  Ti  Ti7  1  0.50000000  0.81665800  0.25000000  1
  P  P8  1  0.13847300  0.56052500  0.14297800  1
  P  P9  1  0.14782900  0.19235400  0.10085400  1
  P  P10  1  0.35217100  0.69235400  0.39914600  1
  P  P11  1  0.36152700  0.06052500  0.35702200  1
  P  P12  1  0.13847300  0.43947500  0.64297800  1
  P  P13  1  0.14782900  0.80764600  0.60085400  1
  P  P14  1  0.35217100  0.30764600  0.89914600  1
  P  P15  1  0.36152700  0.93947500  0.85702200  1
  P  P16  1  0.63847300  0.06052500  0.14297800  1
  P  P17  1  0.64782900  0.69235400  0.10085400  1
  P  P18  1  0.85217100  0.19235400  0.39914600  1
  P  P19  1  0.86152700  0.56052500  0.35702200  1
  P  P20  1  0.63847300  0.93947500  0.64297800  1
  P  P21  1  0.64782900  0.30764600  0.60085400  1
  P  P22  1  0.85217100  0.80764600  0.89914600  1
  P  P23  1  0.86152700  0.43947500  0.85702200  1
  O  O24  1  0.09864750  0.17245550  0.20930500  1
  O  O25  1  0.10529550  0.69258650  0.00591400  1
  O  O26  1  0.23965450  0.62130550  0.30295800  1
  O  O27  1  0.17028750  0.38998450  0.08469900  1
  O  O28  1  0.43312350  0.98447550  0.79775700  1
  O  O29  1  0.32971250  0.88998450  0.41530100  1
  O  O30  1  0.26034550  0.12130550  0.19704200  1
  O  O31  1  0.40990250  0.60778050  0.56560400  1
  O  O32  1  0.39470450  0.19258650  0.49408600  1
  O  O33  1  0.09009750  0.10778050  0.93439600  1
  O  O34  1  0.40135250  0.67245550  0.29069500  1
  O  O35  1  0.06687650  0.48447550  0.70224300  1
  O  O36  1  0.43312350  0.01552450  0.29775700  1
  O  O37  1  0.09864750  0.82754450  0.70930500  1
  O  O38  1  0.40990250  0.39221950  0.06560400  1
  O  O39  1  0.10529550  0.30741350  0.50591400  1
  O  O40  1  0.09009750  0.89221950  0.43439600  1
  O  O41  1  0.23965450  0.37869450  0.80295800  1
  O  O42  1  0.17028750  0.61001550  0.58469900  1
  O  O43  1  0.06687650  0.51552450  0.20224300  1
  O  O44  1  0.32971250  0.11001550  0.91530100  1
  O  O45  1  0.26034550  0.87869450  0.69704200  1
  O  O46  1  0.39470450  0.80741350  0.99408600  1
  O  O47  1  0.40135250  0.32754450  0.79069500  1
  O  O48  1  0.59864750  0.67245550  0.20930500  1
  O  O49  1  0.60529550  0.19258650  0.00591400  1
  O  O50  1  0.73965450  0.12130550  0.30295800  1
  O  O51  1  0.67028750  0.88998450  0.08469900  1
  O  O52  1  0.93312350  0.48447550  0.79775700  1
  O  O53  1  0.82971250  0.38998450  0.41530100  1
  O  O54  1  0.76034550  0.62130550  0.19704200  1
  O  O55  1  0.90990250  0.10778050  0.56560400  1
  O  O56  1  0.89470450  0.69258650  0.49408600  1
  O  O57  1  0.59009750  0.60778050  0.93439600  1
  O  O58  1  0.90135250  0.17245550  0.29069500  1
  O  O59  1  0.56687650  0.98447550  0.70224300  1
  O  O60  1  0.93312350  0.51552450  0.29775700  1
  O  O61  1  0.59864750  0.32754450  0.70930500  1
  O  O62  1  0.90990250  0.89221950  0.06560400  1
  O  O63  1  0.60529550  0.80741350  0.50591400  1
  O  O64  1  0.59009750  0.39221950  0.43439600  1
  O  O65  1  0.73965450  0.87869450  0.80295800  1
  O  O66  1  0.67028750  0.11001550  0.58469900  1
  O  O67  1  0.56687650  0.01552450  0.20224300  1
  O  O68  1  0.82971250  0.61001550  0.91530100  1
  O  O69  1  0.76034550  0.37869450  0.69704200  1
  O  O70  1  0.89470450  0.30741350  0.99408600  1
  O  O71  1  0.90135250  0.82754450  0.79069500  1
