# generated using pymatgen
data_Li3FeF6
_symmetry_space_group_name_H-M   'P 1'
_cell_length_a   14.71847400
_cell_length_b   8.79419000
_cell_length_c   10.25874330
_cell_angle_alpha   90.00000000
_cell_angle_beta   94.69939407
_cell_angle_gamma   90.00000000
_symmetry_Int_Tables_number   1
_chemical_formula_structural   Li3FeF6
_chemical_formula_sum   'Li36 Fe12 F72'
_cell_volume   1323.39760529
_cell_formula_units_Z   12
loop_
 _symmetry_equiv_pos_site_id
 _symmetry_equiv_pos_as_xyz
  1  'x, y, z'
loop_
 _atom_site_type_symbol
 _atom_site_label
 _atom_site_symmetry_multiplicity
 _atom_site_fract_x
 _atom_site_fract_y
 _atom_site_fract_z
 _atom_site_occupancy
  Li  Li0  1  0.20195450  0.85684450  0.93211000  1
  Li  Li1  1  0.20195450  0.14315550  0.43211000  1
  Li  Li2  1  0.33262400  0.21275900  0.94948700  1
  Li  Li3  1  0.33262400  0.78724100  0.44948700  1
  Li  Li4  1  0.35953900  0.64608300  0.73059900  1
  Li  Li5  1  0.35953900  0.35391700  0.23059900  1
  Li  Li6  1  0.47686250  0.84980950  0.96151700  1
  Li  Li7  1  0.47686250  0.15019050  0.46151700  1
  Li  Li8  1  0.50000000  0.30963700  0.75000000  1
  Li  Li9  1  0.50000000  0.69036300  0.25000000  1
  Li  Li10  1  0.52313750  0.84980950  0.53848300  1
  Li  Li11  1  0.52313750  0.15019050  0.03848300  1
  Li  Li12  1  0.64046100  0.64608300  0.76940100  1
  Li  Li13  1  0.64046100  0.35391700  0.26940100  1
  Li  Li14  1  0.66737600  0.21275900  0.55051300  1
  Li  Li15  1  0.66737600  0.78724100  0.05051300  1
  Li  Li16  1  0.79804550  0.85684450  0.56789000  1
  Li  Li17  1  0.79804550  0.14315550  0.06789000  1
  Li  Li18  1  0.70195450  0.35684450  0.93211000  1
  Li  Li19  1  0.70195450  0.64315550  0.43211000  1
  Li  Li20  1  0.83262400  0.71275900  0.94948700  1
  Li  Li21  1  0.83262400  0.28724100  0.44948700  1
  Li  Li22  1  0.85953900  0.14608300  0.73059900  1
  Li  Li23  1  0.85953900  0.85391700  0.23059900  1
  Li  Li24  1  0.97686250  0.34980950  0.96151700  1
  Li  Li25  1  0.97686250  0.65019050  0.46151700  1
  Li  Li26  1  0.00000000  0.80963700  0.75000000  1
  Li  Li27  1  0.00000000  0.19036300  0.25000000  1
  Li  Li28  1  0.02313750  0.34980950  0.53848300  1
  Li  Li29  1  0.02313750  0.65019050  0.03848300  1
  Li  Li30  1  0.14046100  0.14608300  0.76940100  1
  Li  Li31  1  0.14046100  0.85391700  0.26940100  1
  Li  Li32  1  0.16737600  0.71275900  0.55051300  1
  Li  Li33  1  0.16737600  0.28724100  0.05051300  1
  Li  Li34  1  0.29804550  0.35684450  0.56789000  1
  Li  Li35  1  0.29804550  0.64315550  0.06789000  1
  Fe  Fe36  1  0.33739500  0.00262200  0.70453500  1
  Fe  Fe37  1  0.33739500  0.99737800  0.20453500  1
  Fe  Fe38  1  0.00000000  0.00000000  0.50000000  1
  Fe  Fe39  1  0.00000000  0.00000000  0.00000000  1
  Fe  Fe40  1  0.66260500  0.00262200  0.79546500  1
  Fe  Fe41  1  0.66260500  0.99737800  0.29546500  1
  Fe  Fe42  1  0.83739500  0.50262200  0.70453500  1
  Fe  Fe43  1  0.83739500  0.49737800  0.20453500  1
  Fe  Fe44  1  0.50000000  0.50000000  0.50000000  1
  Fe  Fe45  1  0.50000000  0.50000000  0.00000000  1
  Fe  Fe46  1  0.16260500  0.50262200  0.79546500  1
  Fe  Fe47  1  0.16260500  0.49737800  0.29546500  1
  F  F48  1  0.07179850  0.99368050  0.66645900  1
  F  F49  1  0.07179850  0.00631950  0.16645900  1
  F  F50  1  0.24608850  0.01959350  0.83651800  1
  F  F51  1  0.26081100  0.15457600  0.60624500  1
  F  F52  1  0.24608850  0.98040650  0.33651800  1
  F  F53  1  0.26964700  0.83860500  0.60986200  1
  F  F54  1  0.26081100  0.84542400  0.10624500  1
  F  F55  1  0.26964700  0.16139500  0.10986200  1
  F  F56  1  0.39879200  0.83961500  0.80636300  1
  F  F57  1  0.40559700  0.16065500  0.80476000  1
  F  F58  1  0.39879200  0.16038500  0.30636300  1
  F  F59  1  0.40559700  0.83934500  0.30476000  1
  F  F60  1  0.42219950  0.99195350  0.56675500  1
  F  F61  1  0.42298900  0.66334800  0.56334500  1
  F  F62  1  0.42715150  0.33290950  0.56639100  1
  F  F63  1  0.42219950  0.00804650  0.06675500  1
  F  F64  1  0.42298900  0.33665200  0.06334500  1
  F  F65  1  0.42715150  0.66709050  0.06639100  1
  F  F66  1  0.57284850  0.33290950  0.93360900  1
  F  F67  1  0.57701100  0.66334800  0.93665500  1
  F  F68  1  0.57780050  0.99195350  0.93324500  1
  F  F69  1  0.57284850  0.66709050  0.43360900  1
  F  F70  1  0.57701100  0.33665200  0.43665500  1
  F  F71  1  0.57780050  0.00804650  0.43324500  1
  F  F72  1  0.59440300  0.16065500  0.69524000  1
  F  F73  1  0.60120800  0.83961500  0.69363700  1
  F  F74  1  0.59440300  0.83934500  0.19524000  1
  F  F75  1  0.60120800  0.16038500  0.19363700  1
  F  F76  1  0.73035300  0.83860500  0.89013800  1
  F  F77  1  0.73918900  0.15457600  0.89375500  1
  F  F78  1  0.73035300  0.16139500  0.39013800  1
  F  F79  1  0.75391150  0.01959350  0.66348200  1
  F  F80  1  0.73918900  0.84542400  0.39375500  1
  F  F81  1  0.75391150  0.98040650  0.16348200  1
  F  F82  1  0.92820150  0.99368050  0.83354100  1
  F  F83  1  0.92820150  0.00631950  0.33354100  1
  F  F84  1  0.57179850  0.49368050  0.66645900  1
  F  F85  1  0.57179850  0.50631950  0.16645900  1
  F  F86  1  0.74608850  0.51959350  0.83651800  1
  F  F87  1  0.76081100  0.65457600  0.60624500  1
  F  F88  1  0.74608850  0.48040650  0.33651800  1
  F  F89  1  0.76964700  0.33860500  0.60986200  1
  F  F90  1  0.76081100  0.34542400  0.10624500  1
  F  F91  1  0.76964700  0.66139500  0.10986200  1
  F  F92  1  0.89879200  0.33961500  0.80636300  1
  F  F93  1  0.90559700  0.66065500  0.80476000  1
  F  F94  1  0.89879200  0.66038500  0.30636300  1
  F  F95  1  0.90559700  0.33934500  0.30476000  1
  F  F96  1  0.92219950  0.49195350  0.56675500  1
  F  F97  1  0.92298900  0.16334800  0.56334500  1
  F  F98  1  0.92715150  0.83290950  0.56639100  1
  F  F99  1  0.92219950  0.50804650  0.06675500  1
  F  F100  1  0.92298900  0.83665200  0.06334500  1
  F  F101  1  0.92715150  0.16709050  0.06639100  1
  F  F102  1  0.07284850  0.83290950  0.93360900  1
  F  F103  1  0.07701100  0.16334800  0.93665500  1
  F  F104  1  0.07780050  0.49195350  0.93324500  1
  F  F105  1  0.07284850  0.16709050  0.43360900  1
  F  F106  1  0.07701100  0.83665200  0.43665500  1
  F  F107  1  0.07780050  0.50804650  0.43324500  1
  F  F108  1  0.09440300  0.66065500  0.69524000  1
  F  F109  1  0.10120800  0.33961500  0.69363700  1
  F  F110  1  0.09440300  0.33934500  0.19524000  1
  F  F111  1  0.10120800  0.66038500  0.19363700  1
  F  F112  1  0.23035300  0.33860500  0.89013800  1
  F  F113  1  0.23918900  0.65457600  0.89375500  1
  F  F114  1  0.23035300  0.66139500  0.39013800  1
  F  F115  1  0.25391150  0.51959350  0.66348200  1
  F  F116  1  0.23918900  0.34542400  0.39375500  1
  F  F117  1  0.25391150  0.48040650  0.16348200  1
  F  F118  1  0.42820150  0.49368050  0.83354100  1
  F  F119  1  0.42820150  0.50631950  0.33354100  1
