# generated using pymatgen
data_K2TiH2O3F4
_symmetry_space_group_name_H-M   'P 1'
_cell_length_a   6.14007700
_cell_length_b   14.52319300
_cell_length_c   8.58433495
_cell_angle_alpha   90.00000000
_cell_angle_beta   119.95010605
_cell_angle_gamma   90.00000000
_symmetry_Int_Tables_number   1
_chemical_formula_structural   K2TiH2O3F4
_chemical_formula_sum   'K8 Ti4 H8 O12 F16'
_cell_volume   663.27150709
_cell_formula_units_Z   4
loop_
 _symmetry_equiv_pos_site_id
 _symmetry_equiv_pos_as_xyz
  1  'x, y, z'
loop_
 _atom_site_type_symbol
 _atom_site_label
 _atom_site_symmetry_multiplicity
 _atom_site_fract_x
 _atom_site_fract_y
 _atom_site_fract_z
 _atom_site_occupancy
  K  K0  1  0.73507300  0.08594400  0.28957600  1
  K  K1  1  0.73507300  0.41405600  0.78957600  1
  K  K2  1  0.26492700  0.91405600  0.71042400  1
  K  K3  1  0.26492700  0.58594400  0.21042400  1
  K  K4  1  0.30452600  0.28916100  0.21230200  1
  K  K5  1  0.30452600  0.21083900  0.71230200  1
  K  K6  1  0.69547400  0.71083900  0.78769800  1
  K  K7  1  0.69547400  0.78916100  0.28769800  1
  Ti  Ti8  1  0.93145800  0.09810400  0.86645300  1
  Ti  Ti9  1  0.93145800  0.40189600  0.36645300  1
  Ti  Ti10  1  0.06854200  0.90189600  0.13354700  1
  Ti  Ti11  1  0.06854200  0.59810400  0.63354700  1
  H  H12  1  0.24317900  0.09615700  0.31033000  1
  H  H13  1  0.24317900  0.40384300  0.81033000  1
  H  H14  1  0.75682100  0.90384300  0.68967000  1
  H  H15  1  0.75682100  0.59615700  0.18967000  1
  H  H16  1  0.44867400  0.09677500  0.51609300  1
  H  H17  1  0.44867400  0.40322500  0.01609300  1
  H  H18  1  0.55132600  0.90322500  0.48390700  1
  H  H19  1  0.55132600  0.59677500  0.98390700  1
  O  O20  1  0.83730200  0.20637300  0.94224400  1
  O  O21  1  0.83730200  0.29362700  0.44224400  1
  O  O22  1  0.16269800  0.79362700  0.05775600  1
  O  O23  1  0.16269800  0.70637300  0.55775600  1
  O  O24  1  0.83037200  0.21802100  0.76959700  1
  O  O25  1  0.83037200  0.28197900  0.26959700  1
  O  O26  1  0.16962800  0.78197900  0.23040300  1
  O  O27  1  0.16962800  0.71802100  0.73040300  1
  O  O28  1  0.34709700  0.13678600  0.41219200  1
  O  O29  1  0.34709700  0.36321400  0.91219200  1
  O  O30  1  0.65290300  0.86321400  0.58780800  1
  O  O31  1  0.65290300  0.63678600  0.08780800  1
  F  F32  1  0.28239100  0.12484700  0.99937500  1
  F  F33  1  0.28239100  0.37515300  0.49937500  1
  F  F34  1  0.71760900  0.87515300  0.00062500  1
  F  F35  1  0.71760900  0.62484700  0.50062500  1
  F  F36  1  0.96728900  0.07521600  0.65479400  1
  F  F37  1  0.96728900  0.42478400  0.15479400  1
  F  F38  1  0.03271100  0.92478400  0.34520600  1
  F  F39  1  0.03271100  0.57521600  0.84520600  1
  F  F40  1  0.59355800  0.04814200  0.73732300  1
  F  F41  1  0.59355800  0.45185800  0.23732300  1
  F  F42  1  0.40644200  0.95185800  0.26267700  1
  F  F43  1  0.40644200  0.54814200  0.76267700  1
  F  F44  1  0.96439600  0.04748300  0.10184500  1
  F  F45  1  0.96439600  0.45251700  0.60184500  1
  F  F46  1  0.03560400  0.95251700  0.89815500  1
  F  F47  1  0.03560400  0.54748300  0.39815500  1
