# generated using pymatgen
data_Ba3(ClO)2
_symmetry_space_group_name_H-M   'P 1'
_cell_length_a   6.34792700
_cell_length_b   10.79339300
_cell_length_c   12.63299900
_cell_angle_alpha   90.00000000
_cell_angle_beta   90.00000000
_cell_angle_gamma   90.00000000
_symmetry_Int_Tables_number   1
_chemical_formula_structural   Ba3(ClO)2
_chemical_formula_sum   'Ba12 Cl8 O8'
_cell_volume   865.55840129
_cell_formula_units_Z   4
loop_
 _symmetry_equiv_pos_site_id
 _symmetry_equiv_pos_as_xyz
  1  'x, y, z'
loop_
 _atom_site_type_symbol
 _atom_site_label
 _atom_site_symmetry_multiplicity
 _atom_site_fract_x
 _atom_site_fract_y
 _atom_site_fract_z
 _atom_site_occupancy
  Ba  Ba0  1  0.25000000  0.70205000  0.04681600  1
  Ba  Ba1  1  0.25000000  0.05866200  0.08238700  1
  Ba  Ba2  1  0.75000000  0.85884200  0.21322800  1
  Ba  Ba3  1  0.25000000  0.35884200  0.28677200  1
  Ba  Ba4  1  0.75000000  0.55866200  0.41761300  1
  Ba  Ba5  1  0.75000000  0.20205000  0.45318400  1
  Ba  Ba6  1  0.25000000  0.79795000  0.54681600  1
  Ba  Ba7  1  0.25000000  0.44133800  0.58238700  1
  Ba  Ba8  1  0.75000000  0.64115800  0.71322800  1
  Ba  Ba9  1  0.25000000  0.14115800  0.78677200  1
  Ba  Ba10  1  0.75000000  0.94133800  0.91761300  1
  Ba  Ba11  1  0.75000000  0.29795000  0.95318400  1
  Cl  Cl12  1  0.75000000  0.55771900  0.13469400  1
  Cl  Cl13  1  0.75000000  0.17745800  0.19543100  1
  Cl  Cl14  1  0.25000000  0.67745800  0.30456900  1
  Cl  Cl15  1  0.25000000  0.05771900  0.36530600  1
  Cl  Cl16  1  0.75000000  0.94228100  0.63469400  1
  Cl  Cl17  1  0.75000000  0.32254200  0.69543100  1
  Cl  Cl18  1  0.25000000  0.82254200  0.80456900  1
  Cl  Cl19  1  0.25000000  0.44228100  0.86530600  1
  O  O20  1  0.99989600  0.87223700  0.07269200  1
  O  O21  1  0.50010400  0.87223700  0.07269200  1
  O  O22  1  0.00010400  0.37223700  0.42730800  1
  O  O23  1  0.49989600  0.37223700  0.42730800  1
  O  O24  1  0.99989600  0.62776300  0.57269200  1
  O  O25  1  0.50010400  0.62776300  0.57269200  1
  O  O26  1  0.49989600  0.12776300  0.92730800  1
  O  O27  1  0.00010400  0.12776300  0.92730800  1
