# generated using pymatgen
data_Ca4Al2H22CO20
_symmetry_space_group_name_H-M   'P 1'
_cell_length_a   5.83564983
_cell_length_b   8.52497795
_cell_length_c   9.97539481
_cell_angle_alpha   65.04511179
_cell_angle_beta   82.56174256
_cell_angle_gamma   81.08195583
_symmetry_Int_Tables_number   1
_chemical_formula_structural   Ca4Al2H22CO20
_chemical_formula_sum   'Ca4 Al2 H22 C1 O20'
_cell_volume   443.35545308
_cell_formula_units_Z   1
loop_
 _symmetry_equiv_pos_site_id
 _symmetry_equiv_pos_as_xyz
  1  'x, y, z'
loop_
 _atom_site_type_symbol
 _atom_site_label
 _atom_site_symmetry_multiplicity
 _atom_site_fract_x
 _atom_site_fract_y
 _atom_site_fract_z
 _atom_site_occupancy
  Ca  Ca0  1  0.52068067  0.11456457  0.80770830  1
  Ca  Ca1  1  0.48032074  0.88404415  0.19578551  1
  Ca  Ca2  1  0.01513602  0.62014043  0.31402201  1
  Ca  Ca3  1  0.97835111  0.37703673  0.69661793  1
  Al  Al4  1  0.00258837  0.99513891  0.00171009  1
  Al  Al5  1  0.49463533  0.50209412  0.50650743  1
  H  H6  1  0.17757727  0.25918321  0.98835786  1
  H  H7  1  0.83157983  0.72652859  0.02187746  1
  H  H8  1  0.32064066  0.77413103  0.97096058  1
  H  H9  1  0.69286836  0.21329870  0.04026428  1
  H  H10  1  0.34136273  0.23638130  0.51262616  1
  H  H11  1  0.65606093  0.76850275  0.49515203  1
  H  H12  1  0.81091633  0.29589644  0.45347367  1
  H  H13  1  0.16999166  0.72077838  0.53884528  1
  H  H14  1  0.98356002  0.00319014  0.25236669  1
  H  H15  1  0.02045993  0.00933046  0.73837875  1
  H  H16  1  0.51115615  0.50915168  0.24666803  1
  H  H17  1  0.47567361  0.48220131  0.77109348  1
  H  H18  1  0.69629580  0.78639213  0.73933266  1
  H  H19  1  0.44219949  0.86163944  0.68804888  1
  H  H20  1  0.28983990  0.21183264  0.27005730  1
  H  H21  1  0.55834250  0.14524610  0.31206594  1
  H  H22  1  0.05915609  0.63334096  0.81318975  1
  H  H23  1  0.86223137  0.52673632  0.92421450  1
  H  H24  1  0.48869999  0.50307008  0.99824411  1
  H  H25  1  0.22408526  0.49914250  0.04005185  1
  H  H26  1  0.98332815  0.99075679  0.52187985  1
  H  H27  1  0.24629224  0.99726501  0.47266808  1
  C  C28  1  0.88251605  0.32854607  0.19838221  1
  O  O29  1  0.15296031  0.20799587  0.92174854  1
  O  O30  1  0.85086963  0.78399840  0.08480462  1
  O  O31  1  0.30924960  0.88561401  0.97975274  1
  O  O32  1  0.69562303  0.10853980  0.02245207  1
  O  O33  1  0.34810304  0.28839868  0.58167220  1
  O  O34  1  0.64216186  0.71590471  0.42748766  1
  O  O35  1  0.80158989  0.39220846  0.48365326  1
  O  O36  1  0.18713824  0.60891161  0.53020143  1
  O  O37  1  0.07012362  0.93145393  0.20381420  1
  O  O38  1  0.93002276  0.06293604  0.80041369  1
  O  O39  1  0.42447276  0.57085947  0.30324300  1
  O  O40  1  0.56765135  0.43051836  0.70814464  1
  O  O41  1  0.59498391  0.89576164  0.68682007  1
  O  O42  1  0.40184871  0.10508025  0.31464504  1
  O  O43  1  0.90446038  0.60099507  0.81556621  1
  O  O44  1  0.33832031  0.55663353  0.95424779  1
  O  O45  1  0.13592519  0.93552931  0.55906566  1
  O  O46  1  0.75473916  0.40890845  0.08566286  1
  O  O47  1  0.07879656  0.38540022  0.19731163  1
  O  O48  1  0.81636213  0.19369227  0.31170001  1
