# generated using pymatgen
data_Gd3YO6
_symmetry_space_group_name_H-M   'P 1'
_cell_length_a   9.11925600
_cell_length_b   11.31989000
_cell_length_c   5.78382300
_cell_angle_alpha   90.00000000
_cell_angle_beta   90.00000000
_cell_angle_gamma   90.00000000
_symmetry_Int_Tables_number   1
_chemical_formula_structural   Gd3YO6
_chemical_formula_sum   'Gd12 Y4 O24'
_cell_volume   597.05811873
_cell_formula_units_Z   4
loop_
 _symmetry_equiv_pos_site_id
 _symmetry_equiv_pos_as_xyz
  1  'x, y, z'
loop_
 _atom_site_type_symbol
 _atom_site_label
 _atom_site_symmetry_multiplicity
 _atom_site_fract_x
 _atom_site_fract_y
 _atom_site_fract_z
 _atom_site_occupancy
  Gd  Gd0  1  0.20082900  0.88759500  0.53544200  1
  Gd  Gd1  1  0.20082900  0.11240500  0.03544200  1
  Gd  Gd2  1  0.50000000  0.10208300  0.58925800  1
  Gd  Gd3  1  0.50000000  0.89791700  0.08925800  1
  Gd  Gd4  1  0.79917100  0.88759500  0.53544200  1
  Gd  Gd5  1  0.79917100  0.11240500  0.03544200  1
  Gd  Gd6  1  0.70082900  0.38759500  0.53544200  1
  Gd  Gd7  1  0.70082900  0.61240500  0.03544200  1
  Gd  Gd8  1  0.00000000  0.60208300  0.58925800  1
  Gd  Gd9  1  0.00000000  0.39791700  0.08925800  1
  Gd  Gd10  1  0.29917100  0.38759500  0.53544200  1
  Gd  Gd11  1  0.29917100  0.61240500  0.03544200  1
  Y  Y12  1  0.50000000  0.33653500  0.02188900  1
  Y  Y13  1  0.50000000  0.66346500  0.52188900  1
  Y  Y14  1  0.00000000  0.83653500  0.02188900  1
  Y  Y15  1  0.00000000  0.16346500  0.52188900  1
  O  O16  1  0.33793050  0.98225450  0.81750500  1
  O  O17  1  0.33793050  0.01774550  0.31750500  1
  O  O18  1  0.33874750  0.24040350  0.82295000  1
  O  O19  1  0.33874750  0.75959650  0.32295000  1
  O  O20  1  0.50000000  0.48355100  0.74785600  1
  O  O21  1  0.50000000  0.27754200  0.38190400  1
  O  O22  1  0.50000000  0.72245800  0.88190400  1
  O  O23  1  0.50000000  0.51644900  0.24785600  1
  O  O24  1  0.66125250  0.24040350  0.82295000  1
  O  O25  1  0.66125250  0.75959650  0.32295000  1
  O  O26  1  0.66206950  0.98225450  0.81750500  1
  O  O27  1  0.66206950  0.01774550  0.31750500  1
  O  O28  1  0.83793050  0.48225450  0.81750500  1
  O  O29  1  0.83793050  0.51774550  0.31750500  1
  O  O30  1  0.83874750  0.74040350  0.82295000  1
  O  O31  1  0.83874750  0.25959650  0.32295000  1
  O  O32  1  0.00000000  0.98355100  0.74785600  1
  O  O33  1  0.00000000  0.77754200  0.38190400  1
  O  O34  1  0.00000000  0.22245800  0.88190400  1
  O  O35  1  0.00000000  0.01644900  0.24785600  1
  O  O36  1  0.16125250  0.74040350  0.82295000  1
  O  O37  1  0.16125250  0.25959650  0.32295000  1
  O  O38  1  0.16206950  0.48225450  0.81750500  1
  O  O39  1  0.16206950  0.51774550  0.31750500  1
