# generated using pymatgen
data_Li3Sb2(PO4)3
_symmetry_space_group_name_H-M   'P 1'
_cell_length_a   8.57309200
_cell_length_b   5.68266600
_cell_length_c   20.09506558
_cell_angle_alpha   90.00000000
_cell_angle_beta   90.12468181
_cell_angle_gamma   90.00000000
_symmetry_Int_Tables_number   1
_chemical_formula_structural   Li3Sb2(PO4)3
_chemical_formula_sum   'Li12 Sb8 P12 O48'
_cell_volume   978.98945714
_cell_formula_units_Z   4
loop_
 _symmetry_equiv_pos_site_id
 _symmetry_equiv_pos_as_xyz
  1  'x, y, z'
loop_
 _atom_site_type_symbol
 _atom_site_label
 _atom_site_symmetry_multiplicity
 _atom_site_fract_x
 _atom_site_fract_y
 _atom_site_fract_z
 _atom_site_occupancy
  Li  Li0  1  0.00069300  0.00000000  0.83744200  1
  Li  Li1  1  0.33940200  0.00000000  0.09286000  1
  Li  Li2  1  0.33707000  0.00000000  0.76030500  1
  Li  Li3  1  0.66293000  0.00000000  0.23969500  1
  Li  Li4  1  0.99930700  0.00000000  0.16255800  1
  Li  Li5  1  0.66059800  0.00000000  0.90714000  1
  Li  Li6  1  0.50069300  0.50000000  0.83744200  1
  Li  Li7  1  0.83940200  0.50000000  0.09286000  1
  Li  Li8  1  0.83707000  0.50000000  0.76030500  1
  Li  Li9  1  0.16293000  0.50000000  0.23969500  1
  Li  Li10  1  0.49930700  0.50000000  0.16255800  1
  Li  Li11  1  0.16059800  0.50000000  0.90714000  1
  Sb  Sb12  1  0.00000000  0.00000000  0.50000000  1
  Sb  Sb13  1  0.99123400  0.00000000  0.67495900  1
  Sb  Sb14  1  0.00876600  0.00000000  0.32504100  1
  Sb  Sb15  1  0.00000000  0.00000000  0.00000000  1
  Sb  Sb16  1  0.50000000  0.50000000  0.50000000  1
  Sb  Sb17  1  0.49123400  0.50000000  0.67495900  1
  Sb  Sb18  1  0.50876600  0.50000000  0.32504100  1
  Sb  Sb19  1  0.50000000  0.50000000  0.00000000  1
  P  P20  1  0.35387600  0.00000000  0.24201700  1
  P  P21  1  0.35422900  0.00000000  0.91532100  1
  P  P22  1  0.35595400  0.00000000  0.58977400  1
  P  P23  1  0.64404600  0.00000000  0.41022600  1
  P  P24  1  0.64577100  0.00000000  0.08467900  1
  P  P25  1  0.64612400  0.00000000  0.75798300  1
  P  P26  1  0.85387600  0.50000000  0.24201700  1
  P  P27  1  0.85422900  0.50000000  0.91532100  1
  P  P28  1  0.85595400  0.50000000  0.58977400  1
  P  P29  1  0.14404600  0.50000000  0.41022600  1
  P  P30  1  0.14577100  0.50000000  0.08467900  1
  P  P31  1  0.14612400  0.50000000  0.75798300  1
  O  O32  1  0.46269650  0.77310050  0.58603600  1
  O  O33  1  0.46888750  0.78107550  0.24404800  1
  O  O34  1  0.46848500  0.77990800  0.91473900  1
  O  O35  1  0.53151500  0.77990800  0.08526100  1
  O  O36  1  0.53730350  0.77310050  0.41396400  1
  O  O37  1  0.53111250  0.78107550  0.75595200  1
  O  O38  1  0.75017100  0.00000000  0.47150900  1
  O  O39  1  0.75299500  0.00000000  0.14488500  1
  O  O40  1  0.74878100  0.00000000  0.81940000  1
  O  O41  1  0.27532600  0.00000000  0.65824000  1
  O  O42  1  0.74652900  0.00000000  0.69363200  1
  O  O43  1  0.73568600  0.00000000  0.01692600  1
  O  O44  1  0.72467400  0.00000000  0.34176000  1
  O  O45  1  0.24982900  0.00000000  0.52849100  1
  O  O46  1  0.25347100  0.00000000  0.30636800  1
  O  O47  1  0.25121900  0.00000000  0.18060000  1
  O  O48  1  0.26431400  0.00000000  0.98307400  1
  O  O49  1  0.24700500  0.00000000  0.85511500  1
  O  O50  1  0.53730350  0.22689950  0.41396400  1
  O  O51  1  0.53111250  0.21892450  0.75595200  1
  O  O52  1  0.53151500  0.22009200  0.08526100  1
  O  O53  1  0.46269650  0.22689950  0.58603600  1
  O  O54  1  0.46848500  0.22009200  0.91473900  1
  O  O55  1  0.46888750  0.21892450  0.24404800  1
  O  O56  1  0.96269650  0.27310050  0.58603600  1
  O  O57  1  0.96888750  0.28107550  0.24404800  1
  O  O58  1  0.96848500  0.27990800  0.91473900  1
  O  O59  1  0.03151500  0.27990800  0.08526100  1
  O  O60  1  0.03730350  0.27310050  0.41396400  1
  O  O61  1  0.03111250  0.28107550  0.75595200  1
  O  O62  1  0.25017100  0.50000000  0.47150900  1
  O  O63  1  0.25299500  0.50000000  0.14488500  1
  O  O64  1  0.24878100  0.50000000  0.81940000  1
  O  O65  1  0.77532600  0.50000000  0.65824000  1
  O  O66  1  0.24652900  0.50000000  0.69363200  1
  O  O67  1  0.23568600  0.50000000  0.01692600  1
  O  O68  1  0.22467400  0.50000000  0.34176000  1
  O  O69  1  0.74982900  0.50000000  0.52849100  1
  O  O70  1  0.75347100  0.50000000  0.30636800  1
  O  O71  1  0.75121900  0.50000000  0.18060000  1
  O  O72  1  0.76431400  0.50000000  0.98307400  1
  O  O73  1  0.74700500  0.50000000  0.85511500  1
  O  O74  1  0.03730350  0.72689950  0.41396400  1
  O  O75  1  0.03111250  0.71892450  0.75595200  1
  O  O76  1  0.03151500  0.72009200  0.08526100  1
  O  O77  1  0.96269650  0.72689950  0.58603600  1
  O  O78  1  0.96848500  0.72009200  0.91473900  1
  O  O79  1  0.96888750  0.71892450  0.24404800  1
