# generated using pymatgen
data_Cd(AgO2)2
_symmetry_space_group_name_H-M   'P 1'
_cell_length_a   6.01280200
_cell_length_b   6.01280200
_cell_length_c   11.78753400
_cell_angle_alpha   90.00000000
_cell_angle_beta   90.00000000
_cell_angle_gamma   90.00000000
_symmetry_Int_Tables_number   1
_chemical_formula_structural   Cd(AgO2)2
_chemical_formula_sum   'Cd4 Ag8 O16'
_cell_volume   426.16400400
_cell_formula_units_Z   4
loop_
 _symmetry_equiv_pos_site_id
 _symmetry_equiv_pos_as_xyz
  1  'x, y, z'
loop_
 _atom_site_type_symbol
 _atom_site_label
 _atom_site_symmetry_multiplicity
 _atom_site_fract_x
 _atom_site_fract_y
 _atom_site_fract_z
 _atom_site_occupancy
  Cd  Cd0  1  0.00000000  0.00000000  0.00000000  1
  Cd  Cd1  1  0.00000000  0.50000000  0.25000000  1
  Cd  Cd2  1  0.50000000  0.50000000  0.50000000  1
  Cd  Cd3  1  0.50000000  0.00000000  0.75000000  1
  Ag  Ag4  1  0.50000000  0.25000000  0.12500000  1
  Ag  Ag5  1  0.50000000  0.75000000  0.12500000  1
  Ag  Ag6  1  0.75000000  0.00000000  0.37500000  1
  Ag  Ag7  1  0.25000000  0.00000000  0.37500000  1
  Ag  Ag8  1  0.00000000  0.75000000  0.62500000  1
  Ag  Ag9  1  0.00000000  0.25000000  0.62500000  1
  Ag  Ag10  1  0.25000000  0.50000000  0.87500000  1
  Ag  Ag11  1  0.75000000  0.50000000  0.87500000  1
  O  O12  1  0.26933500  0.00000000  0.13072400  1
  O  O13  1  0.26933500  0.50000000  0.11927600  1
  O  O14  1  0.50000000  0.23066500  0.36927600  1
  O  O15  1  0.50000000  0.76933500  0.36927600  1
  O  O16  1  0.73066500  0.50000000  0.11927600  1
  O  O17  1  0.73066500  0.00000000  0.13072400  1
  O  O18  1  0.00000000  0.76933500  0.38072400  1
  O  O19  1  0.00000000  0.23066500  0.38072400  1
  O  O20  1  0.76933500  0.50000000  0.63072400  1
  O  O21  1  0.76933500  0.00000000  0.61927600  1
  O  O22  1  0.00000000  0.73066500  0.86927600  1
  O  O23  1  0.00000000  0.26933500  0.86927600  1
  O  O24  1  0.23066500  0.00000000  0.61927600  1
  O  O25  1  0.23066500  0.50000000  0.63072400  1
  O  O26  1  0.50000000  0.26933500  0.88072400  1
  O  O27  1  0.50000000  0.73066500  0.88072400  1
