# generated using pymatgen
data_Li2PdO2
_symmetry_space_group_name_H-M   'P 1'
_cell_length_a   3.03405600
_cell_length_b   3.82746800
_cell_length_c   9.31631800
_cell_angle_alpha   90.00000000
_cell_angle_beta   90.00000000
_cell_angle_gamma   90.00000000
_symmetry_Int_Tables_number   1
_chemical_formula_structural   Li2PdO2
_chemical_formula_sum   'Li4 Pd2 O4'
_cell_volume   108.18809282
_cell_formula_units_Z   2
loop_
 _symmetry_equiv_pos_site_id
 _symmetry_equiv_pos_as_xyz
  1  'x, y, z'
loop_
 _atom_site_type_symbol
 _atom_site_label
 _atom_site_symmetry_multiplicity
 _atom_site_fract_x
 _atom_site_fract_y
 _atom_site_fract_z
 _atom_site_occupancy
  Li  Li0  1  0.00000000  0.00000000  0.69704900  1
  Li  Li1  1  0.50000000  0.50000000  0.80295100  1
  Li  Li2  1  0.50000000  0.50000000  0.19704900  1
  Li  Li3  1  0.00000000  0.00000000  0.30295100  1
  Pd  Pd4  1  0.00000000  0.00000000  0.00000000  1
  Pd  Pd5  1  0.50000000  0.50000000  0.50000000  1
  O  O6  1  0.00000000  0.50000000  0.65034100  1
  O  O7  1  0.50000000  0.00000000  0.84965900  1
  O  O8  1  0.50000000  0.00000000  0.15034100  1
  O  O9  1  0.00000000  0.50000000  0.34965900  1
