# generated using pymatgen
data_Li3SbN3(O3F)3
_symmetry_space_group_name_H-M   'P 1'
_cell_length_a   10.42671800
_cell_length_b   14.14909400
_cell_length_c   7.00017200
_cell_angle_alpha   90.00000000
_cell_angle_beta   90.00000000
_cell_angle_gamma   90.00000000
_symmetry_Int_Tables_number   1
_chemical_formula_structural   Li3SbN3(O3F)3
_chemical_formula_sum   'Li12 Sb4 N12 O36 F12'
_cell_volume   1032.72566658
_cell_formula_units_Z   4
loop_
 _symmetry_equiv_pos_site_id
 _symmetry_equiv_pos_as_xyz
  1  'x, y, z'
loop_
 _atom_site_type_symbol
 _atom_site_label
 _atom_site_symmetry_multiplicity
 _atom_site_fract_x
 _atom_site_fract_y
 _atom_site_fract_z
 _atom_site_occupancy
  Li  Li0  1  0.71362550  0.74389950  0.72192000  1
  Li  Li1  1  0.71362550  0.25610050  0.22192000  1
  Li  Li2  1  0.50000000  0.09397000  0.10674600  1
  Li  Li3  1  0.50000000  0.90603000  0.60674600  1
  Li  Li4  1  0.28637450  0.74389950  0.72192000  1
  Li  Li5  1  0.28637450  0.25610050  0.22192000  1
  Li  Li6  1  0.21362550  0.24389950  0.72192000  1
  Li  Li7  1  0.21362550  0.75610050  0.22192000  1
  Li  Li8  1  0.00000000  0.59397000  0.10674600  1
  Li  Li9  1  0.00000000  0.40603000  0.60674600  1
  Li  Li10  1  0.78637450  0.24389950  0.72192000  1
  Li  Li11  1  0.78637450  0.75610050  0.22192000  1
  Sb  Sb12  1  0.50000000  0.36786600  0.85731600  1
  Sb  Sb13  1  0.50000000  0.63213400  0.35731600  1
  Sb  Sb14  1  0.00000000  0.86786600  0.85731600  1
  Sb  Sb15  1  0.00000000  0.13213400  0.35731600  1
  N  N16  1  0.26922250  0.95103950  0.75400200  1
  N  N17  1  0.26922250  0.04896050  0.25400200  1
  N  N18  1  0.50000000  0.79542800  0.97488900  1
  N  N19  1  0.50000000  0.20457200  0.47488900  1
  N  N20  1  0.73077750  0.95103950  0.75400200  1
  N  N21  1  0.73077750  0.04896050  0.25400200  1
  N  N22  1  0.76922250  0.45103950  0.75400200  1
  N  N23  1  0.76922250  0.54896050  0.25400200  1
  N  N24  1  0.00000000  0.29542800  0.97488900  1
  N  N25  1  0.00000000  0.70457200  0.47488900  1
  N  N26  1  0.23077750  0.45103950  0.75400200  1
  N  N27  1  0.23077750  0.54896050  0.25400200  1
  O  O28  1  0.18256450  0.98089150  0.86602700  1
  O  O29  1  0.18256450  0.01910850  0.36602700  1
  O  O30  1  0.25067100  0.87675600  0.65586800  1
  O  O31  1  0.25067100  0.12324400  0.15586800  1
  O  O32  1  0.37390650  0.00518750  0.23956500  1
  O  O33  1  0.37390650  0.99481250  0.73956500  1
  O  O34  1  0.39459400  0.79927900  0.06023300  1
  O  O35  1  0.39459400  0.20072100  0.56023300  1
  O  O36  1  0.50000000  0.21487800  0.29059900  1
  O  O37  1  0.50000000  0.78512200  0.79059900  1
  O  O38  1  0.60540600  0.20072100  0.56023300  1
  O  O39  1  0.60540600  0.79927900  0.06023300  1
  O  O40  1  0.62609350  0.99481250  0.73956500  1
  O  O41  1  0.62609350  0.00518750  0.23956500  1
  O  O42  1  0.74932900  0.12324400  0.15586800  1
  O  O43  1  0.74932900  0.87675600  0.65586800  1
  O  O44  1  0.81743550  0.98089150  0.86602700  1
  O  O45  1  0.81743550  0.01910850  0.36602700  1
  O  O46  1  0.68256450  0.48089150  0.86602700  1
  O  O47  1  0.68256450  0.51910850  0.36602700  1
  O  O48  1  0.75067100  0.37675600  0.65586800  1
  O  O49  1  0.75067100  0.62324400  0.15586800  1
  O  O50  1  0.87390650  0.50518750  0.23956500  1
  O  O51  1  0.87390650  0.49481250  0.73956500  1
  O  O52  1  0.89459400  0.29927900  0.06023300  1
  O  O53  1  0.89459400  0.70072100  0.56023300  1
  O  O54  1  0.00000000  0.71487800  0.29059900  1
  O  O55  1  0.00000000  0.28512200  0.79059900  1
  O  O56  1  0.10540600  0.70072100  0.56023300  1
  O  O57  1  0.10540600  0.29927900  0.06023300  1
  O  O58  1  0.12609350  0.49481250  0.73956500  1
  O  O59  1  0.12609350  0.50518750  0.23956500  1
  O  O60  1  0.24932900  0.62324400  0.15586800  1
  O  O61  1  0.24932900  0.37675600  0.65586800  1
  O  O62  1  0.31743550  0.48089150  0.86602700  1
  O  O63  1  0.31743550  0.51910850  0.36602700  1
  F  F64  1  0.36585650  0.72735150  0.45937100  1
  F  F65  1  0.36585650  0.27264850  0.95937100  1
  F  F66  1  0.50000000  0.41689300  0.11679600  1
  F  F67  1  0.50000000  0.58310700  0.61679600  1
  F  F68  1  0.63414350  0.27264850  0.95937100  1
  F  F69  1  0.63414350  0.72735150  0.45937100  1
  F  F70  1  0.86585650  0.22735150  0.45937100  1
  F  F71  1  0.86585650  0.77264850  0.95937100  1
  F  F72  1  0.00000000  0.91689300  0.11679600  1
  F  F73  1  0.00000000  0.08310700  0.61679600  1
  F  F74  1  0.13414350  0.77264850  0.95937100  1
  F  F75  1  0.13414350  0.22735150  0.45937100  1
