# generated using pymatgen
data_Li2FeSi3O8
_symmetry_space_group_name_H-M   'P 1'
_cell_length_a   5.09598062
_cell_length_b   10.04201200
_cell_length_c   6.92768379
_cell_angle_alpha   90.00000000
_cell_angle_beta   91.00753793
_cell_angle_gamma   90.00000000
_symmetry_Int_Tables_number   1
_chemical_formula_structural   Li2FeSi3O8
_chemical_formula_sum   'Li4 Fe2 Si6 O16'
_cell_volume   354.46177570
_cell_formula_units_Z   2
loop_
 _symmetry_equiv_pos_site_id
 _symmetry_equiv_pos_as_xyz
  1  'x, y, z'
loop_
 _atom_site_type_symbol
 _atom_site_label
 _atom_site_symmetry_multiplicity
 _atom_site_fract_x
 _atom_site_fract_y
 _atom_site_fract_z
 _atom_site_occupancy
  Li  Li0  1  0.05898900  0.13596800  0.25064050  1
  Li  Li1  1  0.94101100  0.63596800  0.74935950  1
  Li  Li2  1  0.59096800  0.34498400  0.73931750  1
  Li  Li3  1  0.40903200  0.84498400  0.26068250  1
  Fe  Fe4  1  0.09105500  0.16842300  0.74724450  1
  Fe  Fe5  1  0.90894500  0.66842300  0.25275550  1
  Si  Si6  1  0.52261800  0.33304000  0.27526150  1
  Si  Si7  1  0.99032100  0.91123700  0.97355350  1
  Si  Si8  1  0.00967900  0.41123700  0.02644650  1
  Si  Si9  1  0.47738200  0.83304000  0.72473850  1
  Si  Si10  1  0.40390900  0.59507700  0.47105950  1
  Si  Si11  1  0.59609100  0.09507700  0.52894050  1
  O  O12  1  0.05025300  0.84787600  0.18288350  1
  O  O13  1  0.82352500  0.33969800  0.19711250  1
  O  O14  1  0.68575300  0.87213600  0.89678050  1
  O  O15  1  0.96324100  0.56868700  0.00934150  1
  O  O16  1  0.31424700  0.37213600  0.10321950  1
  O  O17  1  0.03675900  0.06868700  0.99065850  1
  O  O18  1  0.17647500  0.83969800  0.80288750  1
  O  O19  1  0.94974700  0.34787600  0.81711650  1
  O  O20  1  0.54673400  0.67657500  0.66233850  1
  O  O21  1  0.48436800  0.16526100  0.71879050  1
  O  O22  1  0.50335200  0.93201100  0.52968750  1
  O  O23  1  0.09280600  0.60900700  0.50022150  1
  O  O24  1  0.49664800  0.43201100  0.47031250  1
  O  O25  1  0.90719400  0.10900700  0.49977850  1
  O  O26  1  0.51563200  0.66526100  0.28120950  1
  O  O27  1  0.45326600  0.17657500  0.33766150  1
