# generated using pymatgen
data_K3Cu3P2
_symmetry_space_group_name_H-M   'P 1'
_cell_length_a   5.72513604
_cell_length_b   5.72513604
_cell_length_c   19.96216099
_cell_angle_alpha   90.00000000
_cell_angle_beta   90.00000000
_cell_angle_gamma   120.00000000
_symmetry_Int_Tables_number   1
_chemical_formula_structural   K3Cu3P2
_chemical_formula_sum   'K9 Cu9 P6'
_cell_volume   566.64336457
_cell_formula_units_Z   3
loop_
 _symmetry_equiv_pos_site_id
 _symmetry_equiv_pos_as_xyz
  1  'x, y, z'
loop_
 _atom_site_type_symbol
 _atom_site_label
 _atom_site_symmetry_multiplicity
 _atom_site_fract_x
 _atom_site_fract_y
 _atom_site_fract_z
 _atom_site_occupancy
  K  K0  1  0.00000000  0.00000000  0.09191600  1
  K  K1  1  0.33333333  0.66666667  0.16666667  1
  K  K2  1  0.66666667  0.33333333  0.24141733  1
  K  K3  1  0.66666667  0.33333333  0.42524933  1
  K  K4  1  1.00000000  1.00000000  0.50000000  1
  K  K5  1  0.33333333  0.66666667  0.57475067  1
  K  K6  1  0.33333333  0.66666667  0.75858267  1
  K  K7  1  0.66666667  0.33333333  0.83333333  1
  K  K8  1  0.00000000  0.00000000  0.90808400  1
  Cu  Cu9  1  0.50000000  0.50000000  0.00000000  1
  Cu  Cu10  1  0.50000000  0.00000000  0.00000000  1
  Cu  Cu11  1  0.00000000  0.50000000  0.00000000  1
  Cu  Cu12  1  0.16666667  0.83333333  0.33333333  1
  Cu  Cu13  1  0.16666667  0.33333333  0.33333333  1
  Cu  Cu14  1  0.66666667  0.83333333  0.33333333  1
  Cu  Cu15  1  0.83333333  0.16666667  0.66666667  1
  Cu  Cu16  1  0.83333333  0.66666667  0.66666667  1
  Cu  Cu17  1  0.33333333  0.16666667  0.66666667  1
  P  P18  1  0.66666667  0.33333333  0.07690533  1
  P  P19  1  0.00000000  0.00000000  0.25642800  1
  P  P20  1  0.33333333  0.66666667  0.41023867  1
  P  P21  1  0.66666667  0.33333333  0.58976133  1
  P  P22  1  0.00000000  0.00000000  0.74357200  1
  P  P23  1  0.33333333  0.66666667  0.92309467  1
