# generated using pymatgen
data_Nb2O5
_symmetry_space_group_name_H-M   'P 1'
_cell_length_a   5.34330600
_cell_length_b   9.70188400
_cell_length_c   9.97851800
_cell_angle_alpha   90.00000000
_cell_angle_beta   90.00000000
_cell_angle_gamma   90.00000000
_symmetry_Int_Tables_number   1
_chemical_formula_structural   Nb2O5
_chemical_formula_sum   'Nb8 O20'
_cell_volume   517.28772011
_cell_formula_units_Z   4
loop_
 _symmetry_equiv_pos_site_id
 _symmetry_equiv_pos_as_xyz
  1  'x, y, z'
loop_
 _atom_site_type_symbol
 _atom_site_label
 _atom_site_symmetry_multiplicity
 _atom_site_fract_x
 _atom_site_fract_y
 _atom_site_fract_z
 _atom_site_occupancy
  Nb  Nb0  1  0.88654500  0.03066600  0.71678800  1
  Nb  Nb1  1  0.61884000  0.34540100  0.59788500  1
  Nb  Nb2  1  0.11884000  0.15459900  0.40211500  1
  Nb  Nb3  1  0.38654500  0.46933400  0.28321200  1
  Nb  Nb4  1  0.61345500  0.96933400  0.21678800  1
  Nb  Nb5  1  0.88116000  0.65459900  0.09788500  1
  Nb  Nb6  1  0.38116000  0.84540100  0.90211500  1
  Nb  Nb7  1  0.11345500  0.53066600  0.78321200  1
  O  O8  1  0.77268300  0.21371200  0.73290300  1
  O  O9  1  0.63624800  0.90414400  0.76199300  1
  O  O10  1  0.83462900  0.50198700  0.67482800  1
  O  O11  1  0.39237300  0.20529800  0.52762100  1
  O  O12  1  0.97461300  0.01779100  0.53424600  1
  O  O13  1  0.47461300  0.48220900  0.46575400  1
  O  O14  1  0.89237300  0.29470200  0.47237900  1
  O  O15  1  0.33462900  0.99801300  0.32517200  1
  O  O16  1  0.13624800  0.59585600  0.23800700  1
  O  O17  1  0.27268300  0.28628800  0.26709700  1
  O  O18  1  0.72731700  0.78628800  0.23290300  1
  O  O19  1  0.86375200  0.09585600  0.26199300  1
  O  O20  1  0.66537100  0.49801300  0.17482800  1
  O  O21  1  0.10762700  0.79470200  0.02762100  1
  O  O22  1  0.52538700  0.98220900  0.03424600  1
  O  O23  1  0.02538700  0.51779100  0.96575400  1
  O  O24  1  0.60762700  0.70529800  0.97237900  1
  O  O25  1  0.16537100  0.00198700  0.82517200  1
  O  O26  1  0.36375200  0.40414400  0.73800700  1
  O  O27  1  0.22731700  0.71371200  0.76709700  1
