# generated using pymatgen
data_Li4Mn7(OF7)2
_symmetry_space_group_name_H-M   'P 1'
_cell_length_a   10.62135800
_cell_length_b   6.42080000
_cell_length_c   11.13634521
_cell_angle_alpha   90.00000000
_cell_angle_beta   110.19951240
_cell_angle_gamma   90.00000000
_symmetry_Int_Tables_number   1
_chemical_formula_structural   Li4Mn7(OF7)2
_chemical_formula_sum   'Li8 Mn14 O4 F28'
_cell_volume   712.76158104
_cell_formula_units_Z   2
loop_
 _symmetry_equiv_pos_site_id
 _symmetry_equiv_pos_as_xyz
  1  'x, y, z'
loop_
 _atom_site_type_symbol
 _atom_site_label
 _atom_site_symmetry_multiplicity
 _atom_site_fract_x
 _atom_site_fract_y
 _atom_site_fract_z
 _atom_site_occupancy
  Li  Li0  1  0.07917400  0.50000000  0.71269050  1
  Li  Li1  1  0.92025700  0.00000000  0.79716650  1
  Li  Li2  1  0.57974300  0.50000000  0.20283350  1
  Li  Li3  1  0.42082600  0.00000000  0.28730950  1
  Li  Li4  1  0.57917400  0.00000000  0.71269050  1
  Li  Li5  1  0.42025700  0.50000000  0.79716650  1
  Li  Li6  1  0.07974300  0.00000000  0.20283350  1
  Li  Li7  1  0.92082600  0.50000000  0.28730950  1
  Mn  Mn8  1  0.72938600  0.50000000  0.73933450  1
  Mn  Mn9  1  0.75000000  0.25000000  0.50000000  1
  Mn  Mn10  1  0.75000000  0.75000000  0.50000000  1
  Mn  Mn11  1  0.00000000  0.50000000  0.00000000  1
  Mn  Mn12  1  0.77061400  0.00000000  0.26066550  1
  Mn  Mn13  1  0.75000000  0.75000000  0.00000000  1
  Mn  Mn14  1  0.25000000  0.75000000  0.00000000  1
  Mn  Mn15  1  0.22938600  0.00000000  0.73933450  1
  Mn  Mn16  1  0.25000000  0.75000000  0.50000000  1
  Mn  Mn17  1  0.25000000  0.25000000  0.50000000  1
  Mn  Mn18  1  0.50000000  0.00000000  0.00000000  1
  Mn  Mn19  1  0.27061400  0.50000000  0.26066550  1
  Mn  Mn20  1  0.25000000  0.25000000  0.00000000  1
  Mn  Mn21  1  0.75000000  0.25000000  0.00000000  1
  O  O22  1  0.36176100  0.00000000  0.09061550  1
  O  O23  1  0.13823900  0.50000000  0.90938450  1
  O  O24  1  0.86176100  0.50000000  0.09061550  1
  O  O25  1  0.63823900  0.00000000  0.90938450  1
  F  F26  1  0.63913250  0.75904950  0.62981150  1
  F  F27  1  0.13913250  0.74095050  0.62981150  1
  F  F28  1  0.63369200  0.00000000  0.37407350  1
  F  F29  1  0.86630800  0.50000000  0.62592650  1
  F  F30  1  0.64066900  0.50000000  0.38694250  1
  F  F31  1  0.85933100  0.00000000  0.61305750  1
  F  F32  1  0.36086750  0.75904950  0.37018850  1
  F  F33  1  0.86086750  0.74095050  0.37018850  1
  F  F34  1  0.63441950  0.23890750  0.13878150  1
  F  F35  1  0.63441950  0.76109250  0.13878150  1
  F  F36  1  0.88525300  0.00000000  0.13752950  1
  F  F37  1  0.61474700  0.50000000  0.86247050  1
  F  F38  1  0.86558050  0.73890750  0.86121850  1
  F  F39  1  0.86558050  0.26109250  0.86121850  1
  F  F40  1  0.13913250  0.25904950  0.62981150  1
  F  F41  1  0.63913250  0.24095050  0.62981150  1
  F  F42  1  0.13369200  0.50000000  0.37407350  1
  F  F43  1  0.36630800  0.00000000  0.62592650  1
  F  F44  1  0.14066900  0.00000000  0.38694250  1
  F  F45  1  0.35933100  0.50000000  0.61305750  1
  F  F46  1  0.86086750  0.25904950  0.37018850  1
  F  F47  1  0.36086750  0.24095050  0.37018850  1
  F  F48  1  0.13441950  0.73890750  0.13878150  1
  F  F49  1  0.13441950  0.26109250  0.13878150  1
  F  F50  1  0.38525300  0.50000000  0.13752950  1
  F  F51  1  0.11474700  0.00000000  0.86247050  1
  F  F52  1  0.36558050  0.23890750  0.86121850  1
  F  F53  1  0.36558050  0.76109250  0.86121850  1
