# generated using pymatgen
data_Li2VOF4
_symmetry_space_group_name_H-M   'P 1'
_cell_length_a   3.62845000
_cell_length_b   10.33780400
_cell_length_c   10.25672700
_cell_angle_alpha   90.00000000
_cell_angle_beta   90.00000000
_cell_angle_gamma   90.00000000
_symmetry_Int_Tables_number   1
_chemical_formula_structural   Li2VOF4
_chemical_formula_sum   'Li8 V4 O4 F16'
_cell_volume   384.73193162
_cell_formula_units_Z   4
loop_
 _symmetry_equiv_pos_site_id
 _symmetry_equiv_pos_as_xyz
  1  'x, y, z'
loop_
 _atom_site_type_symbol
 _atom_site_label
 _atom_site_symmetry_multiplicity
 _atom_site_fract_x
 _atom_site_fract_y
 _atom_site_fract_z
 _atom_site_occupancy
  Li  Li0  1  0.00000000  0.12440900  0.56324800  1
  Li  Li1  1  0.00000000  0.12440900  0.93675200  1
  Li  Li2  1  0.50000000  0.37559100  0.43675200  1
  Li  Li3  1  0.50000000  0.37559100  0.06324800  1
  Li  Li4  1  0.50000000  0.62440900  0.56324800  1
  Li  Li5  1  0.50000000  0.62440900  0.93675200  1
  Li  Li6  1  0.00000000  0.87559100  0.43675200  1
  Li  Li7  1  0.00000000  0.87559100  0.06324800  1
  V  V8  1  0.50000000  0.31263800  0.75000000  1
  V  V9  1  0.00000000  0.18736200  0.25000000  1
  V  V10  1  0.00000000  0.81263800  0.75000000  1
  V  V11  1  0.50000000  0.68736200  0.25000000  1
  O  O12  1  0.00000000  0.29295750  0.75000000  1
  O  O13  1  0.50000000  0.20704250  0.25000000  1
  O  O14  1  0.50000000  0.79295750  0.75000000  1
  O  O15  1  0.00000000  0.70704250  0.25000000  1
  F  F16  1  0.00000000  0.31500850  0.10232100  1
  F  F17  1  0.00000000  0.31500850  0.39767900  1
  F  F18  1  0.50000000  0.18499150  0.60232100  1
  F  F19  1  0.50000000  0.18499150  0.89767900  1
  F  F20  1  0.00000000  0.05662350  0.11645200  1
  F  F21  1  0.00000000  0.05662350  0.38354800  1
  F  F22  1  0.50000000  0.44337650  0.88354800  1
  F  F23  1  0.50000000  0.44337650  0.61645200  1
  F  F24  1  0.50000000  0.81500850  0.10232100  1
  F  F25  1  0.50000000  0.81500850  0.39767900  1
  F  F26  1  0.00000000  0.68499150  0.60232100  1
  F  F27  1  0.00000000  0.68499150  0.89767900  1
  F  F28  1  0.50000000  0.55662350  0.11645200  1
  F  F29  1  0.50000000  0.55662350  0.38354800  1
  F  F30  1  0.00000000  0.94337650  0.88354800  1
  F  F31  1  0.00000000  0.94337650  0.61645200  1
