# generated using pymatgen
data_Li4Ti15O32
_symmetry_space_group_name_H-M   'P 1'
_cell_length_a   5.97087988
_cell_length_b   5.97087988
_cell_length_c   58.39415016
_cell_angle_alpha   90.00000000
_cell_angle_beta   90.00000000
_cell_angle_gamma   120.00000000
_symmetry_Int_Tables_number   1
_chemical_formula_structural   Li4Ti15O32
_chemical_formula_sum   'Li12 Ti45 O96'
_cell_volume   1802.92077185
_cell_formula_units_Z   3
loop_
 _symmetry_equiv_pos_site_id
 _symmetry_equiv_pos_as_xyz
  1  'x, y, z'
loop_
 _atom_site_type_symbol
 _atom_site_label
 _atom_site_symmetry_multiplicity
 _atom_site_fract_x
 _atom_site_fract_y
 _atom_site_fract_z
 _atom_site_occupancy
  Li  Li0  1  0.00000000  0.00000000  0.18766700  1
  Li  Li1  1  0.66666667  0.33333333  0.17660733  1
  Li  Li2  1  0.00000000  0.00000000  0.24993700  1
  Li  Li3  1  0.33333333  0.66666667  0.16542467  1
  Li  Li4  1  0.66666667  0.33333333  0.52100033  1
  Li  Li5  1  0.33333333  0.66666667  0.50994067  1
  Li  Li6  1  0.66666667  0.33333333  0.58327033  1
  Li  Li7  1  0.00000000  0.00000000  0.49875800  1
  Li  Li8  1  0.33333333  0.66666667  0.85433367  1
  Li  Li9  1  0.00000000  0.00000000  0.84327400  1
  Li  Li10  1  0.33333333  0.66666667  0.91660367  1
  Li  Li11  1  0.66666667  0.33333333  0.83209133  1
  Ti  Ti12  1  0.67109733  0.83554867  0.05272867  1
  Ti  Ti13  1  0.33333333  0.66666667  0.01201767  1
  Ti  Ti14  1  0.16445133  0.83554867  0.05272867  1
  Ti  Ti15  1  0.16445133  0.32890267  0.05272867  1
  Ti  Ti16  1  0.00000000  0.00000000  0.09572000  1
  Ti  Ti17  1  0.50377967  0.49622033  0.21787033  1
  Ti  Ti18  1  0.82916267  0.17083733  0.13627133  1
  Ti  Ti19  1  0.82916267  0.65832533  0.13627133  1
  Ti  Ti20  1  0.34167467  0.17083733  0.13627133  1
  Ti  Ti21  1  0.99244067  0.49622033  0.21787033  1
  Ti  Ti22  1  0.50377967  0.00755933  0.21787033  1
  Ti  Ti23  1  0.16646400  0.33292800  0.30266900  1
  Ti  Ti24  1  0.66707200  0.83353600  0.30266900  1
  Ti  Ti25  1  0.33333333  0.66666667  0.26096067  1
  Ti  Ti26  1  0.16646400  0.83353600  0.30266900  1
  Ti  Ti27  1  0.33776400  0.16888200  0.38606200  1
  Ti  Ti28  1  0.00000000  0.00000000  0.34535100  1
  Ti  Ti29  1  0.83111800  0.16888200  0.38606200  1
  Ti  Ti30  1  0.83111800  0.66223600  0.38606200  1
  Ti  Ti31  1  0.66666667  0.33333333  0.42905333  1
  Ti  Ti32  1  0.17044633  0.82955367  0.55120367  1
  Ti  Ti33  1  0.49582933  0.50417067  0.46960467  1
  Ti  Ti34  1  0.49582933  0.99165867  0.46960467  1
  Ti  Ti35  1  0.00834133  0.50417067  0.46960467  1
  Ti  Ti36  1  0.65910733  0.82955367  0.55120367  1
  Ti  Ti37  1  0.17044633  0.34089267  0.55120367  1
  Ti  Ti38  1  0.83313067  0.66626133  0.63600233  1
  Ti  Ti39  1  0.33373867  0.16686933  0.63600233  1
  Ti  Ti40  1  0.00000000  0.00000000  0.59429400  1
  Ti  Ti41  1  0.83313067  0.16686933  0.63600233  1
  Ti  Ti42  1  0.00443067  0.50221533  0.71939533  1
  Ti  Ti43  1  0.66666667  0.33333333  0.67868433  1
  Ti  Ti44  1  0.49778467  0.50221533  0.71939533  1
  Ti  Ti45  1  0.49778467  0.99556933  0.71939533  1
  Ti  Ti46  1  0.33333333  0.66666667  0.76238667  1
  Ti  Ti47  1  0.83711300  0.16288700  0.88453700  1
  Ti  Ti48  1  0.16249600  0.83750400  0.80293800  1
  Ti  Ti49  1  0.16249600  0.32499200  0.80293800  1
  Ti  Ti50  1  0.67500800  0.83750400  0.80293800  1
  Ti  Ti51  1  0.32577400  0.16288700  0.88453700  1
  Ti  Ti52  1  0.83711300  0.67422600  0.88453700  1
  Ti  Ti53  1  0.49979733  0.99959467  0.96933567  1
  Ti  Ti54  1  0.00040533  0.50020267  0.96933567  1
  Ti  Ti55  1  0.66666667  0.33333333  0.92762733  1
  Ti  Ti56  1  0.49979733  0.50020267  0.96933567  1
  O  O57  1  0.47869067  0.52130933  0.03205433  1
  O  O58  1  0.04261867  0.52130933  0.03205433  1
  O  O59  1  0.33333333  0.66666667  0.06891867  1
  O  O60  1  0.00000000  0.00000000  0.03506300  1
  O  O61  1  0.51102033  0.48897967  0.15323267  1
  O  O62  1  0.85292633  0.70585267  0.07108367  1
  O  O63  1  0.85292633  0.14707367  0.07108367  1
  O  O64  1  0.14419233  0.28838467  0.11577767  1
  O  O65  1  0.47869067  0.95738133  0.03205433  1
  O  O66  1  0.35461800  0.17730900  0.20108700  1
  O  O67  1  0.71161533  0.85580767  0.11577767  1
  O  O68  1  0.00000000  0.00000000  0.15378600  1
  O  O69  1  0.66666667  0.33333333  0.11873933  1
  O  O70  1  0.97795933  0.48897967  0.15323267  1
  O  O71  1  0.29414733  0.14707367  0.07108367  1
  O  O72  1  0.18625867  0.37251733  0.23847533  1
  O  O73  1  0.51102033  0.02204067  0.15323267  1
  O  O74  1  0.82269100  0.64538200  0.20108700  1
  O  O75  1  0.14419233  0.85580767  0.11577767  1
  O  O76  1  0.82269100  0.17730900  0.20108700  1
  O  O77  1  0.66666667  0.33333333  0.23553833  1
  O  O78  1  0.62748267  0.81374133  0.23847533  1
  O  O79  1  0.33333333  0.66666667  0.20058967  1
  O  O80  1  0.29238067  0.14619033  0.32082533  1
  O  O81  1  0.00000000  0.00000000  0.28401900  1
  O  O82  1  0.85380967  0.70761933  0.32082533  1
  O  O83  1  0.18625867  0.81374133  0.23847533  1
  O  O84  1  0.85380967  0.14619033  0.32082533  1
  O  O85  1  0.47874267  0.52125733  0.28238733  1
  O  O86  1  0.47874267  0.95748533  0.28238733  1
  O  O87  1  0.33333333  0.66666667  0.31912867  1
  O  O88  1  0.04251467  0.52125733  0.28238733  1
  O  O89  1  0.14535733  0.85464267  0.36538767  1
  O  O90  1  0.70928533  0.85464267  0.36538767  1
  O  O91  1  0.00000000  0.00000000  0.40225200  1
  O  O92  1  0.66666667  0.33333333  0.36839633  1
  O  O93  1  0.17768700  0.82231300  0.48656600  1
  O  O94  1  0.51959300  0.03918600  0.40441700  1
  O  O95  1  0.51959300  0.48040700  0.40441700  1
  O  O96  1  0.81085900  0.62171800  0.44911100  1
  O  O97  1  0.14535733  0.29071467  0.36538767  1
  O  O98  1  0.02128467  0.51064233  0.53442033  1
  O  O99  1  0.37828200  0.18914100  0.44911100  1
  O  O100  1  0.66666667  0.33333333  0.48711933  1
  O  O101  1  0.33333333  0.66666667  0.45207267  1
  O  O102  1  0.64462600  0.82231300  0.48656600  1
  O  O103  1  0.96081400  0.48040700  0.40441700  1
  O  O104  1  0.85292533  0.70585067  0.57180867  1
  O  O105  1  0.17768700  0.35537400  0.48656600  1
  O  O106  1  0.48935767  0.97871533  0.53442033  1
  O  O107  1  0.81085900  0.18914100  0.44911100  1
  O  O108  1  0.48935767  0.51064233  0.53442033  1
  O  O109  1  0.33333333  0.66666667  0.56887167  1
  O  O110  1  0.29414933  0.14707467  0.57180867  1
  O  O111  1  0.00000000  0.00000000  0.53392300  1
  O  O112  1  0.95904733  0.47952367  0.65415867  1
  O  O113  1  0.66666667  0.33333333  0.61735233  1
  O  O114  1  0.52047633  0.04095267  0.65415867  1
  O  O115  1  0.85292533  0.14707467  0.57180867  1
  O  O116  1  0.52047633  0.47952367  0.65415867  1
  O  O117  1  0.14540933  0.85459067  0.61572067  1
  O  O118  1  0.14540933  0.29081867  0.61572067  1
  O  O119  1  0.00000000  0.00000000  0.65246200  1
  O  O120  1  0.70918133  0.85459067  0.61572067  1
  O  O121  1  0.81202400  0.18797600  0.69872100  1
  O  O122  1  0.37595200  0.18797600  0.69872100  1
  O  O123  1  0.66666667  0.33333333  0.73558533  1
  O  O124  1  0.33333333  0.66666667  0.70172967  1
  O  O125  1  0.84435367  0.15564633  0.81989933  1
  O  O126  1  0.18625967  0.37251933  0.73775033  1
  O  O127  1  0.18625967  0.81374033  0.73775033  1
  O  O128  1  0.47752567  0.95505133  0.78244433  1
  O  O129  1  0.81202400  0.62404800  0.69872100  1
  O  O130  1  0.68795133  0.84397567  0.86775367  1
  O  O131  1  0.04494867  0.52247433  0.78244433  1
  O  O132  1  0.33333333  0.66666667  0.82045267  1
  O  O133  1  0.00000000  0.00000000  0.78540600  1
  O  O134  1  0.31129267  0.15564633  0.81989933  1
  O  O135  1  0.62748067  0.81374033  0.73775033  1
  O  O136  1  0.51959200  0.03918400  0.90514200  1
  O  O137  1  0.84435367  0.68870733  0.81989933  1
  O  O138  1  0.15602433  0.31204867  0.86775367  1
  O  O139  1  0.47752567  0.52247433  0.78244433  1
  O  O140  1  0.15602433  0.84397567  0.86775367  1
  O  O141  1  0.00000000  0.00000000  0.90220500  1
  O  O142  1  0.96081600  0.48040800  0.90514200  1
  O  O143  1  0.66666667  0.33333333  0.86725633  1
  O  O144  1  0.62571400  0.81285700  0.98749200  1
  O  O145  1  0.33333333  0.66666667  0.95068567  1
  O  O146  1  0.18714300  0.37428600  0.98749200  1
  O  O147  1  0.51959200  0.48040800  0.90514200  1
  O  O148  1  0.18714300  0.81285700  0.98749200  1
  O  O149  1  0.81207600  0.18792400  0.94905400  1
  O  O150  1  0.81207600  0.62415200  0.94905400  1
  O  O151  1  0.66666667  0.33333333  0.98579533  1
  O  O152  1  0.37584800  0.18792400  0.94905400  1
