# generated using pymatgen
data_Ti3MnV2(PO4)6
_symmetry_space_group_name_H-M   'P 1'
_cell_length_a   8.70613451
_cell_length_b   8.70613451
_cell_length_c   20.90110898
_cell_angle_alpha   90.00000000
_cell_angle_beta   90.00000000
_cell_angle_gamma   120.00000000
_symmetry_Int_Tables_number   1
_chemical_formula_structural   Ti3MnV2(PO4)6
_chemical_formula_sum   'Ti9 Mn3 V6 P18 O72'
_cell_volume   1371.98924528
_cell_formula_units_Z   3
loop_
 _symmetry_equiv_pos_site_id
 _symmetry_equiv_pos_as_xyz
  1  'x, y, z'
loop_
 _atom_site_type_symbol
 _atom_site_label
 _atom_site_symmetry_multiplicity
 _atom_site_fract_x
 _atom_site_fract_y
 _atom_site_fract_z
 _atom_site_occupancy
  Ti  Ti0  1  0.33333333  0.66666667  0.31251267  1
  Ti  Ti1  1  0.33333333  0.66666667  0.52337067  1
  Ti  Ti2  1  0.33333333  0.66666667  0.02079967  1
  Ti  Ti3  1  0.00000000  0.00000000  0.64584600  1
  Ti  Ti4  1  0.00000000  0.00000000  0.85670400  1
  Ti  Ti5  1  0.00000000  0.00000000  0.35413300  1
  Ti  Ti6  1  0.66666667  0.33333333  0.97917933  1
  Ti  Ti7  1  0.66666667  0.33333333  0.19003733  1
  Ti  Ti8  1  0.66666667  0.33333333  0.68746633  1
  Mn  Mn9  1  0.33333333  0.66666667  0.81141367  1
  Mn  Mn10  1  0.00000000  0.00000000  0.14474700  1
  Mn  Mn11  1  0.66666667  0.33333333  0.47808033  1
  V  V12  1  0.33333333  0.66666667  0.66746067  1
  V  V13  1  0.33333333  0.66666667  0.16823867  1
  V  V14  1  0.00000000  0.00000000  0.00079400  1
  V  V15  1  0.00000000  0.00000000  0.50157200  1
  V  V16  1  0.66666667  0.33333333  0.33412733  1
  V  V17  1  0.66666667  0.33333333  0.83490533  1
  P  P18  1  0.70285300  0.70214800  0.24926100  1
  P  P19  1  0.29785200  0.00070500  0.24926100  1
  P  P20  1  0.99929500  0.29714700  0.24926100  1
  P  P21  1  0.66323733  0.03838367  0.08300567  1
  P  P22  1  0.37514633  0.33676267  0.08300567  1
  P  P23  1  0.96161633  0.62485367  0.08300567  1
  P  P24  1  0.36951967  0.03548133  0.58259433  1
  P  P25  1  0.96451867  0.33403833  0.58259433  1
  P  P26  1  0.66596167  0.63048033  0.58259433  1
  P  P27  1  0.32990400  0.37171700  0.41633900  1
  P  P28  1  0.04181300  0.67009600  0.41633900  1
  P  P29  1  0.62828300  0.95818700  0.41633900  1
  P  P30  1  0.03618633  0.36881467  0.91592767  1
  P  P31  1  0.63118533  0.66737167  0.91592767  1
  P  P32  1  0.33262833  0.96381367  0.91592767  1
  P  P33  1  0.99657067  0.70505033  0.74967233  1
  P  P34  1  0.70847967  0.00342933  0.74967233  1
  P  P35  1  0.29494967  0.29152033  0.74967233  1
  O  O36  1  0.52102700  0.66496600  0.97585100  1
  O  O37  1  0.33503400  0.85606100  0.97585100  1
  O  O38  1  0.14393900  0.47897300  0.97585100  1
  O  O39  1  0.68201700  0.51378100  0.25839900  1
  O  O40  1  0.79044467  0.78757633  0.18783433  1
  O  O41  1  0.51088033  0.67557367  0.24747867  1
  O  O42  1  0.48621900  0.16823600  0.25839900  1
  O  O43  1  0.32442633  0.83530667  0.24747867  1
  O  O44  1  0.33620967  0.47829833  0.47720233  1
  O  O45  1  0.16469333  0.48911967  0.24747867  1
  O  O46  1  0.82689100  0.02164900  0.07136200  1
  O  O47  1  0.14208867  0.66379033  0.47720233  1
  O  O48  1  0.21242367  0.00286833  0.18783433  1
  O  O49  1  0.83176400  0.31798300  0.25839900  1
  O  O50  1  0.49469467  0.85100933  0.09043333  1
  O  O51  1  0.99713167  0.20955533  0.18783433  1
  O  O52  1  0.35631467  0.50530533  0.09043333  1
  O  O53  1  0.19475800  0.17310900  0.07136200  1
  O  O54  1  0.14899067  0.64368533  0.09043333  1
  O  O55  1  0.52170167  0.85791133  0.47720233  1
  O  O56  1  0.97835100  0.80524200  0.07136200  1
  O  O57  1  0.53051633  0.84005667  0.35791067  1
  O  O58  1  0.30954033  0.46948367  0.35791067  1
  O  O59  1  0.15994333  0.69045967  0.35791067  1
  O  O60  1  0.18769367  0.99829933  0.30918433  1
  O  O61  1  0.00170067  0.18939433  0.30918433  1
  O  O62  1  0.81060567  0.81230633  0.30918433  1
  O  O63  1  0.34868367  0.84711433  0.59173233  1
  O  O64  1  0.45711133  0.12090967  0.52116767  1
  O  O65  1  0.17754700  0.00890700  0.58081200  1
  O  O66  1  0.15288567  0.50156933  0.59173233  1
  O  O67  1  0.99109300  0.16864000  0.58081200  1
  O  O68  1  0.00287633  0.81163167  0.81053567  1
  O  O69  1  0.83136000  0.82245300  0.58081200  1
  O  O70  1  0.49355767  0.35498233  0.40469533  1
  O  O71  1  0.80875533  0.99712367  0.81053567  1
  O  O72  1  0.87909033  0.33620167  0.52116767  1
  O  O73  1  0.49843067  0.65131633  0.59173233  1
  O  O74  1  0.16136133  0.18434267  0.42376667  1
  O  O75  1  0.66379833  0.54288867  0.52116767  1
  O  O76  1  0.02298133  0.83863867  0.42376667  1
  O  O77  1  0.86142467  0.50644233  0.40469533  1
  O  O78  1  0.81565733  0.97701867  0.42376667  1
  O  O79  1  0.18836833  0.19124467  0.81053567  1
  O  O80  1  0.64501767  0.13857533  0.40469533  1
  O  O81  1  0.19718300  0.17339000  0.69124400  1
  O  O82  1  0.97620700  0.80281700  0.69124400  1
  O  O83  1  0.82661000  0.02379300  0.69124400  1
  O  O84  1  0.85436033  0.33163267  0.64251767  1
  O  O85  1  0.66836733  0.52272767  0.64251767  1
  O  O86  1  0.47727233  0.14563967  0.64251767  1
  O  O87  1  0.01535033  0.18044767  0.92506567  1
  O  O88  1  0.12377800  0.45424300  0.85450100  1
  O  O89  1  0.84421367  0.34224033  0.91414533  1
  O  O90  1  0.81955233  0.83490267  0.92506567  1
  O  O91  1  0.65775967  0.50197333  0.91414533  1
  O  O92  1  0.66954300  0.14496500  0.14386900  1
  O  O93  1  0.49802667  0.15578633  0.91414533  1
  O  O94  1  0.16022433  0.68831567  0.73802867  1
  O  O95  1  0.47542200  0.33045700  0.14386900  1
  O  O96  1  0.54575700  0.66953500  0.85450100  1
  O  O97  1  0.16509733  0.98464967  0.92506567  1
  O  O98  1  0.82802800  0.51767600  0.75710000  1
  O  O99  1  0.33046500  0.87622200  0.85450100  1
  O  O100  1  0.68964800  0.17197200  0.75710000  1
  O  O101  1  0.52809133  0.83977567  0.73802867  1
  O  O102  1  0.48232400  0.31035200  0.75710000  1
  O  O103  1  0.85503500  0.52457800  0.14386900  1
  O  O104  1  0.31168433  0.47190867  0.73802867  1
  O  O105  1  0.86384967  0.50672333  0.02457733  1
  O  O106  1  0.64287367  0.13615033  0.02457733  1
  O  O107  1  0.49327667  0.35712633  0.02457733  1
