# generated using pymatgen
data_Li3VF6
_symmetry_space_group_name_H-M   'P 1'
_cell_length_a   17.50192200
_cell_length_b   5.33457800
_cell_length_c   9.43202723
_cell_angle_alpha   90.00000000
_cell_angle_beta   91.90469494
_cell_angle_gamma   90.00000000
_symmetry_Int_Tables_number   1
_chemical_formula_structural   Li3VF6
_chemical_formula_sum   'Li24 V8 F48'
_cell_volume   880.13814546
_cell_formula_units_Z   8
loop_
 _symmetry_equiv_pos_site_id
 _symmetry_equiv_pos_as_xyz
  1  'x, y, z'
loop_
 _atom_site_type_symbol
 _atom_site_label
 _atom_site_symmetry_multiplicity
 _atom_site_fract_x
 _atom_site_fract_y
 _atom_site_fract_z
 _atom_site_occupancy
  Li  Li0  1  0.91993650  0.78140150  0.04988500  1
  Li  Li1  1  0.91993650  0.21859850  0.54988500  1
  Li  Li2  1  0.82347400  0.21566200  0.18013300  1
  Li  Li3  1  0.89126800  0.71250500  0.39929200  1
  Li  Li4  1  0.82347400  0.78433800  0.68013300  1
  Li  Li5  1  0.89126800  0.28749500  0.89929200  1
  Li  Li6  1  0.60873200  0.21250500  0.10070800  1
  Li  Li7  1  0.67652600  0.71566200  0.31986700  1
  Li  Li8  1  0.60873200  0.78749500  0.60070800  1
  Li  Li9  1  0.67652600  0.28433800  0.81986700  1
  Li  Li10  1  0.58006350  0.28140150  0.45011500  1
  Li  Li11  1  0.58006350  0.71859850  0.95011500  1
  Li  Li12  1  0.41993650  0.28140150  0.04988500  1
  Li  Li13  1  0.41993650  0.71859850  0.54988500  1
  Li  Li14  1  0.32347400  0.71566200  0.18013300  1
  Li  Li15  1  0.39126800  0.21250500  0.39929200  1
  Li  Li16  1  0.32347400  0.28433800  0.68013300  1
  Li  Li17  1  0.39126800  0.78749500  0.89929200  1
  Li  Li18  1  0.10873200  0.71250500  0.10070800  1
  Li  Li19  1  0.17652600  0.21566200  0.31986700  1
  Li  Li20  1  0.10873200  0.28749500  0.60070800  1
  Li  Li21  1  0.17652600  0.78433800  0.81986700  1
  Li  Li22  1  0.08006350  0.78140150  0.45011500  1
  Li  Li23  1  0.08006350  0.21859850  0.95011500  1
  V  V24  1  0.75000000  0.25000000  0.50000000  1
  V  V25  1  0.75000000  0.75000000  0.00000000  1
  V  V26  1  0.00000000  0.20366200  0.25000000  1
  V  V27  1  0.00000000  0.79633800  0.75000000  1
  V  V28  1  0.25000000  0.75000000  0.50000000  1
  V  V29  1  0.25000000  0.25000000  0.00000000  1
  V  V30  1  0.50000000  0.70366200  0.25000000  1
  V  V31  1  0.50000000  0.29633800  0.75000000  1
  F  F32  1  0.98212400  0.23357900  0.03813000  1
  F  F33  1  0.92388800  0.92539400  0.23953800  1
  F  F34  1  0.91221950  0.41097050  0.28577000  1
  F  F35  1  0.98212400  0.76642100  0.53813000  1
  F  F36  1  0.92388800  0.07460600  0.73953800  1
  F  F37  1  0.91221950  0.58902950  0.78577000  1
  F  F38  1  0.83558100  0.51307300  0.03985200  1
  F  F39  1  0.83558100  0.48692700  0.53985200  1
  F  F40  1  0.83510700  0.98927200  0.48486800  1
  F  F41  1  0.83510700  0.01072800  0.98486800  1
  F  F42  1  0.75113350  0.85879150  0.19535700  1
  F  F43  1  0.74886650  0.35879150  0.30464300  1
  F  F44  1  0.75113350  0.14120850  0.69535700  1
  F  F45  1  0.74886650  0.64120850  0.80464300  1
  F  F46  1  0.66489300  0.48927200  0.01513200  1
  F  F47  1  0.66489300  0.51072800  0.51513200  1
  F  F48  1  0.66441900  0.01307300  0.46014800  1
  F  F49  1  0.66441900  0.98692700  0.96014800  1
  F  F50  1  0.58778050  0.91097050  0.21423000  1
  F  F51  1  0.57611200  0.42539400  0.26046200  1
  F  F52  1  0.51787600  0.73357900  0.46187000  1
  F  F53  1  0.58778050  0.08902950  0.71423000  1
  F  F54  1  0.57611200  0.57460600  0.76046200  1
  F  F55  1  0.51787600  0.26642100  0.96187000  1
  F  F56  1  0.48212400  0.73357900  0.03813000  1
  F  F57  1  0.42388800  0.42539400  0.23953800  1
  F  F58  1  0.41221950  0.91097050  0.28577000  1
  F  F59  1  0.48212400  0.26642100  0.53813000  1
  F  F60  1  0.42388800  0.57460600  0.73953800  1
  F  F61  1  0.41221950  0.08902950  0.78577000  1
  F  F62  1  0.33558100  0.01307300  0.03985200  1
  F  F63  1  0.33558100  0.98692700  0.53985200  1
  F  F64  1  0.33510700  0.48927200  0.48486800  1
  F  F65  1  0.33510700  0.51072800  0.98486800  1
  F  F66  1  0.25113350  0.35879150  0.19535700  1
  F  F67  1  0.24886650  0.85879150  0.30464300  1
  F  F68  1  0.25113350  0.64120850  0.69535700  1
  F  F69  1  0.24886650  0.14120850  0.80464300  1
  F  F70  1  0.16489300  0.98927200  0.01513200  1
  F  F71  1  0.16489300  0.01072800  0.51513200  1
  F  F72  1  0.16441900  0.51307300  0.46014800  1
  F  F73  1  0.16441900  0.48692700  0.96014800  1
  F  F74  1  0.08778050  0.41097050  0.21423000  1
  F  F75  1  0.07611200  0.92539400  0.26046200  1
  F  F76  1  0.01787600  0.23357900  0.46187000  1
  F  F77  1  0.08778050  0.58902950  0.71423000  1
  F  F78  1  0.07611200  0.07460600  0.76046200  1
  F  F79  1  0.01787600  0.76642100  0.96187000  1
