# generated using pymatgen
data_Ba3(BO3)2
_symmetry_space_group_name_H-M   'P 1'
_cell_length_a   9.59792400
_cell_length_b   9.59792400
_cell_length_c   13.91754598
_cell_angle_alpha   90.00000000
_cell_angle_beta   90.00000000
_cell_angle_gamma   120.00000000
_symmetry_Int_Tables_number   1
_chemical_formula_structural   Ba3(BO3)2
_chemical_formula_sum   'Ba18 B12 O36'
_cell_volume   1110.31935358
_cell_formula_units_Z   6
loop_
 _symmetry_equiv_pos_site_id
 _symmetry_equiv_pos_as_xyz
  1  'x, y, z'
loop_
 _atom_site_type_symbol
 _atom_site_label
 _atom_site_symmetry_multiplicity
 _atom_site_fract_x
 _atom_site_fract_y
 _atom_site_fract_z
 _atom_site_occupancy
  Ba  Ba0  1  0.01515367  0.33333333  0.08333333  1
  Ba  Ba1  1  0.00000000  0.65151300  0.25000000  1
  Ba  Ba2  1  0.34848700  0.34848700  0.25000000  1
  Ba  Ba3  1  0.31817967  0.98484633  0.08333333  1
  Ba  Ba4  1  0.66666667  0.68182033  0.08333333  1
  Ba  Ba5  1  0.65151300  0.00000000  0.25000000  1
  Ba  Ba6  1  0.68182033  0.66666667  0.41666667  1
  Ba  Ba7  1  0.66666667  0.98484633  0.58333333  1
  Ba  Ba8  1  0.01515367  0.68182033  0.58333333  1
  Ba  Ba9  1  0.98484633  0.31817967  0.41666667  1
  Ba  Ba10  1  0.33333333  0.01515367  0.41666667  1
  Ba  Ba11  1  0.31817967  0.33333333  0.58333333  1
  Ba  Ba12  1  0.34848700  0.00000000  0.75000000  1
  Ba  Ba13  1  0.33333333  0.31817967  0.91666667  1
  Ba  Ba14  1  0.68182033  0.01515367  0.91666667  1
  Ba  Ba15  1  0.65151300  0.65151300  0.75000000  1
  Ba  Ba16  1  0.00000000  0.34848700  0.75000000  1
  Ba  Ba17  1  0.98484633  0.66666667  0.91666667  1
  B  B18  1  0.33333333  0.66666667  0.55126267  1
  B  B19  1  0.33333333  0.66666667  0.28207067  1
  B  B20  1  0.33333333  0.66666667  0.78207067  1
  B  B21  1  0.33333333  0.66666667  0.05126267  1
  B  B22  1  0.00000000  0.00000000  0.88459600  1
  B  B23  1  1.00000000  0.00000000  0.61540400  1
  B  B24  1  0.00000000  0.00000000  0.11540400  1
  B  B25  1  0.00000000  0.00000000  0.38459600  1
  B  B26  1  0.66666667  0.33333333  0.21792933  1
  B  B27  1  0.66666667  0.33333333  0.94873733  1
  B  B28  1  0.66666667  0.33333333  0.44873733  1
  B  B29  1  0.66666667  0.33333333  0.71792933  1
  O  O30  1  0.80950067  0.32697233  0.21840833  1
  O  O31  1  0.14919500  0.14283400  0.11492500  1
  O  O32  1  0.19049933  0.51747167  0.28159167  1
  O  O33  1  0.18413833  0.66030567  0.05174167  1
  O  O34  1  0.99363900  0.85080500  0.11492500  1
  O  O35  1  0.33969433  0.52383267  0.05174167  1
  O  O36  1  0.32697233  0.80950067  0.28159167  1
  O  O37  1  0.48252833  0.67302767  0.28159167  1
  O  O38  1  0.67302767  0.48252833  0.21840833  1
  O  O39  1  0.47616733  0.81586167  0.05174167  1
  O  O40  1  0.51747167  0.19049933  0.21840833  1
  O  O41  1  0.85716600  0.00636100  0.11492500  1
  O  O42  1  0.47616733  0.66030567  0.55174167  1
  O  O43  1  0.81586167  0.47616733  0.44825833  1
  O  O44  1  0.85716600  0.85080500  0.61492500  1
  O  O45  1  0.85080500  0.99363900  0.38507500  1
  O  O46  1  0.66030567  0.18413833  0.44825833  1
  O  O47  1  0.00636100  0.85716600  0.38507500  1
  O  O48  1  0.99363900  0.14283400  0.61492500  1
  O  O49  1  0.14919500  0.00636100  0.61492500  1
  O  O50  1  0.33969433  0.81586167  0.55174167  1
  O  O51  1  0.14283400  0.14919500  0.38507500  1
  O  O52  1  0.18413833  0.52383267  0.55174167  1
  O  O53  1  0.52383267  0.33969433  0.44825833  1
  O  O54  1  0.14283400  0.99363900  0.88507500  1
  O  O55  1  0.48252833  0.80950067  0.78159167  1
  O  O56  1  0.52383267  0.18413833  0.94825833  1
  O  O57  1  0.51747167  0.32697233  0.71840833  1
  O  O58  1  0.32697233  0.51747167  0.78159167  1
  O  O59  1  0.67302767  0.19049933  0.71840833  1
  O  O60  1  0.66030567  0.47616733  0.94825833  1
  O  O61  1  0.81586167  0.33969433  0.94825833  1
  O  O62  1  0.00636100  0.14919500  0.88507500  1
  O  O63  1  0.80950067  0.48252833  0.71840833  1
  O  O64  1  0.85080500  0.85716600  0.88507500  1
  O  O65  1  0.19049933  0.67302767  0.78159167  1
