# generated using pymatgen
data_CaLaI5
_symmetry_space_group_name_H-M   'P 1'
_cell_length_a   4.47549200
_cell_length_b   14.91005600
_cell_length_c   18.30986000
_cell_angle_alpha   90.00000000
_cell_angle_beta   90.00000000
_cell_angle_gamma   90.00000000
_symmetry_Int_Tables_number   1
_chemical_formula_structural   CaLaI5
_chemical_formula_sum   'Ca4 La4 I20'
_cell_volume   1221.81396135
_cell_formula_units_Z   4
loop_
 _symmetry_equiv_pos_site_id
 _symmetry_equiv_pos_as_xyz
  1  'x, y, z'
loop_
 _atom_site_type_symbol
 _atom_site_label
 _atom_site_symmetry_multiplicity
 _atom_site_fract_x
 _atom_site_fract_y
 _atom_site_fract_z
 _atom_site_occupancy
  Ca  Ca0  1  0.00000000  0.00000000  0.50000000  1
  Ca  Ca1  1  0.00000000  0.00000000  0.00000000  1
  Ca  Ca2  1  0.50000000  0.50000000  0.50000000  1
  Ca  Ca3  1  0.50000000  0.50000000  0.00000000  1
  La  La4  1  0.00000000  0.48518200  0.75000000  1
  La  La5  1  0.50000000  0.01481800  0.25000000  1
  La  La6  1  0.50000000  0.98518200  0.75000000  1
  La  La7  1  0.00000000  0.51481800  0.25000000  1
  I  I8  1  0.00000000  0.10090700  0.65011500  1
  I  I9  1  0.00000000  0.10090700  0.84988500  1
  I  I10  1  0.00000000  0.38635500  0.57457200  1
  I  I11  1  0.00000000  0.16442950  0.25000000  1
  I  I12  1  0.00000000  0.38635500  0.92542800  1
  I  I13  1  0.50000000  0.11364500  0.07457200  1
  I  I14  1  0.50000000  0.11364500  0.42542800  1
  I  I15  1  0.50000000  0.33557050  0.75000000  1
  I  I16  1  0.50000000  0.39909300  0.15011500  1
  I  I17  1  0.50000000  0.39909300  0.34988500  1
  I  I18  1  0.50000000  0.60090700  0.65011500  1
  I  I19  1  0.50000000  0.60090700  0.84988500  1
  I  I20  1  0.50000000  0.88635500  0.57457200  1
  I  I21  1  0.50000000  0.66442950  0.25000000  1
  I  I22  1  0.50000000  0.88635500  0.92542800  1
  I  I23  1  0.00000000  0.61364500  0.07457200  1
  I  I24  1  0.00000000  0.61364500  0.42542800  1
  I  I25  1  0.00000000  0.83557050  0.75000000  1
  I  I26  1  0.00000000  0.89909300  0.15011500  1
  I  I27  1  0.00000000  0.89909300  0.34988500  1
