# generated using pymatgen
data_RbP(HO2)2
_symmetry_space_group_name_H-M   'P 1'
_cell_length_a   7.66796700
_cell_length_b   6.27470700
_cell_length_c   9.68220197
_cell_angle_alpha   90.00000000
_cell_angle_beta   108.43585267
_cell_angle_gamma   90.00000000
_symmetry_Int_Tables_number   1
_chemical_formula_structural   RbP(HO2)2
_chemical_formula_sum   'Rb4 P4 H8 O16'
_cell_volume   441.94354515
_cell_formula_units_Z   4
loop_
 _symmetry_equiv_pos_site_id
 _symmetry_equiv_pos_as_xyz
  1  'x, y, z'
loop_
 _atom_site_type_symbol
 _atom_site_label
 _atom_site_symmetry_multiplicity
 _atom_site_fract_x
 _atom_site_fract_y
 _atom_site_fract_z
 _atom_site_occupancy
  Rb  Rb0  1  0.26310700  0.24282400  0.78106400  1
  Rb  Rb1  1  0.73689300  0.74282400  0.71893600  1
  Rb  Rb2  1  0.73689300  0.75717600  0.21893600  1
  Rb  Rb3  1  0.26310700  0.25717600  0.28106400  1
  P  P4  1  0.24178900  0.75422900  0.01941400  1
  P  P5  1  0.75821100  0.25422900  0.48058600  1
  P  P6  1  0.75821100  0.24577100  0.98058600  1
  P  P7  1  0.24178900  0.74577100  0.51941400  1
  H  H8  1  0.36419400  0.73637300  0.83674600  1
  H  H9  1  0.63580600  0.23637300  0.66325400  1
  H  H10  1  0.63580600  0.26362700  0.16325400  1
  H  H11  1  0.36419400  0.76362700  0.33674600  1
  H  H12  1  0.00000000  0.00000000  0.00000000  1
  H  H13  1  0.00000000  0.50000000  0.50000000  1
  H  H14  1  0.00000000  0.50000000  0.00000000  1
  H  H15  1  0.00000000  0.00000000  0.50000000  1
  O  O16  1  0.40136100  0.75937900  0.94737700  1
  O  O17  1  0.59863900  0.25937900  0.55262300  1
  O  O18  1  0.59863900  0.24062100  0.05262300  1
  O  O19  1  0.40136100  0.74062100  0.44737700  1
  O  O20  1  0.33171100  0.80944300  0.17867700  1
  O  O21  1  0.66828900  0.30944300  0.32132300  1
  O  O22  1  0.66828900  0.19055700  0.82132300  1
  O  O23  1  0.33171100  0.69055700  0.67867700  1
  O  O24  1  0.09655600  0.92212300  0.93652100  1
  O  O25  1  0.90344400  0.42212300  0.56347900  1
  O  O26  1  0.90344400  0.07787700  0.06347900  1
  O  O27  1  0.09655600  0.57787700  0.43652100  1
  O  O28  1  0.15474300  0.52690700  0.99460400  1
  O  O29  1  0.84525700  0.02690700  0.50539600  1
  O  O30  1  0.84525700  0.47309300  0.00539600  1
  O  O31  1  0.15474300  0.97309300  0.49460400  1
