# generated using pymatgen
data_H16PdC4S4(N4Cl)2
_symmetry_space_group_name_H-M   'P 1'
_cell_length_a   17.13836200
_cell_length_b   11.37202800
_cell_length_c   8.96802844
_cell_angle_alpha   90.00000000
_cell_angle_beta   92.34629967
_cell_angle_gamma   90.00000000
_symmetry_Int_Tables_number   1
_chemical_formula_structural   H16PdC4S4(N4Cl)2
_chemical_formula_sum   'H64 Pd4 C16 S16 N32 Cl8'
_cell_volume   1746.38487349
_cell_formula_units_Z   4
loop_
 _symmetry_equiv_pos_site_id
 _symmetry_equiv_pos_as_xyz
  1  'x, y, z'
loop_
 _atom_site_type_symbol
 _atom_site_label
 _atom_site_symmetry_multiplicity
 _atom_site_fract_x
 _atom_site_fract_y
 _atom_site_fract_z
 _atom_site_occupancy
  H  H0  1  0.19540100  0.86599200  0.63488300  1
  H  H1  1  0.19540100  0.13400800  0.13488300  1
  H  H2  1  0.25882750  0.12747650  0.82994100  1
  H  H3  1  0.27424400  0.93251400  0.73116600  1
  H  H4  1  0.25882750  0.87252350  0.32994100  1
  H  H5  1  0.27424400  0.06748600  0.23116600  1
  H  H6  1  0.33578150  0.68774750  0.67965200  1
  H  H7  1  0.33578150  0.31225250  0.17965200  1
  H  H8  1  0.40376300  0.99558000  0.55083100  1
  H  H9  1  0.40612300  0.07506800  0.72045300  1
  H  H10  1  0.40376300  0.00442000  0.05083100  1
  H  H11  1  0.40612300  0.92493200  0.22045300  1
  H  H12  1  0.42953700  0.27356900  0.72481400  1
  H  H13  1  0.43747050  0.35096550  0.55508300  1
  H  H14  1  0.42953700  0.72643100  0.22481400  1
  H  H15  1  0.43747050  0.64903450  0.05508300  1
  H  H16  1  0.56252950  0.35096550  0.94491700  1
  H  H17  1  0.57046300  0.27356900  0.77518600  1
  H  H18  1  0.56252950  0.64903450  0.44491700  1
  H  H19  1  0.57046300  0.72643100  0.27518600  1
  H  H20  1  0.59387700  0.07506800  0.77954700  1
  H  H21  1  0.59623700  0.99558000  0.94916900  1
  H  H22  1  0.59387700  0.92493200  0.27954700  1
  H  H23  1  0.59623700  0.00442000  0.44916900  1
  H  H24  1  0.66421850  0.68774750  0.82034800  1
  H  H25  1  0.66421850  0.31225250  0.32034800  1
  H  H26  1  0.72575600  0.93251400  0.76883400  1
  H  H27  1  0.74117250  0.12747650  0.67005900  1
  H  H28  1  0.72575600  0.06748600  0.26883400  1
  H  H29  1  0.74117250  0.87252350  0.17005900  1
  H  H30  1  0.80459900  0.86599200  0.86511700  1
  H  H31  1  0.80459900  0.13400800  0.36511700  1
  H  H32  1  0.69540100  0.36599200  0.63488300  1
  H  H33  1  0.69540100  0.63400800  0.13488300  1
  H  H34  1  0.75882750  0.62747650  0.82994100  1
  H  H35  1  0.77424400  0.43251400  0.73116600  1
  H  H36  1  0.75882750  0.37252350  0.32994100  1
  H  H37  1  0.77424400  0.56748600  0.23116600  1
  H  H38  1  0.83578150  0.18774750  0.67965200  1
  H  H39  1  0.83578150  0.81225250  0.17965200  1
  H  H40  1  0.90376300  0.49558000  0.55083100  1
  H  H41  1  0.90612300  0.57506800  0.72045300  1
  H  H42  1  0.90376300  0.50442000  0.05083100  1
  H  H43  1  0.90612300  0.42493200  0.22045300  1
  H  H44  1  0.92953700  0.77356900  0.72481400  1
  H  H45  1  0.93747050  0.85096550  0.55508300  1
  H  H46  1  0.92953700  0.22643100  0.22481400  1
  H  H47  1  0.93747050  0.14903450  0.05508300  1
  H  H48  1  0.06252950  0.85096550  0.94491700  1
  H  H49  1  0.07046300  0.77356900  0.77518600  1
  H  H50  1  0.06252950  0.14903450  0.44491700  1
  H  H51  1  0.07046300  0.22643100  0.27518600  1
  H  H52  1  0.09387700  0.57506800  0.77954700  1
  H  H53  1  0.09623700  0.49558000  0.94916900  1
  H  H54  1  0.09387700  0.42493200  0.27954700  1
  H  H55  1  0.09623700  0.50442000  0.44916900  1
  H  H56  1  0.16421850  0.18774750  0.82034800  1
  H  H57  1  0.16421850  0.81225250  0.32034800  1
  H  H58  1  0.22575600  0.43251400  0.76883400  1
  H  H59  1  0.24117250  0.62747650  0.67005900  1
  H  H60  1  0.22575600  0.56748600  0.26883400  1
  H  H61  1  0.24117250  0.37252350  0.17005900  1
  H  H62  1  0.30459900  0.36599200  0.86511700  1
  H  H63  1  0.30459900  0.63400800  0.36511700  1
  Pd  Pd64  1  0.50000000  0.67691400  0.75000000  1
  Pd  Pd65  1  0.50000000  0.32308600  0.25000000  1
  Pd  Pd66  1  0.00000000  0.17691400  0.75000000  1
  Pd  Pd67  1  0.00000000  0.82308600  0.25000000  1
  C  C68  1  0.17236900  0.02984100  0.71745200  1
  C  C69  1  0.17236900  0.97015900  0.21745200  1
  C  C70  1  0.42043250  0.17452850  0.53361300  1
  C  C71  1  0.42043250  0.82547150  0.03361300  1
  C  C72  1  0.57956750  0.17452850  0.96638700  1
  C  C73  1  0.57956750  0.82547150  0.46638700  1
  C  C74  1  0.82763100  0.02984100  0.78254800  1
  C  C75  1  0.82763100  0.97015900  0.28254800  1
  C  C76  1  0.67236900  0.52984100  0.71745200  1
  C  C77  1  0.67236900  0.47015900  0.21745200  1
  C  C78  1  0.92043250  0.67452850  0.53361300  1
  C  C79  1  0.92043250  0.32547150  0.03361300  1
  C  C80  1  0.07956750  0.67452850  0.96638700  1
  C  C81  1  0.07956750  0.32547150  0.46638700  1
  C  C82  1  0.32763100  0.52984100  0.78254800  1
  C  C83  1  0.32763100  0.47015900  0.28254800  1
  S  S84  1  0.07488500  0.02079300  0.65581900  1
  S  S85  1  0.07488500  0.97920700  0.15581900  1
  S  S86  1  0.42176500  0.83219300  0.84033700  1
  S  S87  1  0.42176500  0.16780700  0.34033700  1
  S  S88  1  0.57823500  0.83219300  0.65966300  1
  S  S89  1  0.57823500  0.16780700  0.15966300  1
  S  S90  1  0.92511500  0.02079300  0.84418100  1
  S  S91  1  0.92511500  0.97920700  0.34418100  1
  S  S92  1  0.57488500  0.52079300  0.65581900  1
  S  S93  1  0.57488500  0.47920700  0.15581900  1
  S  S94  1  0.92176500  0.33219300  0.84033700  1
  S  S95  1  0.92176500  0.66780700  0.34033700  1
  S  S96  1  0.07823500  0.33219300  0.65966300  1
  S  S97  1  0.07823500  0.66780700  0.15966300  1
  S  S98  1  0.42511500  0.52079300  0.84418100  1
  S  S99  1  0.42511500  0.47920700  0.34418100  1
  N  N100  1  0.20092600  0.12132700  0.79340600  1
  N  N101  1  0.20092600  0.87867300  0.29340600  1
  N  N102  1  0.21860500  0.93891600  0.68710200  1
  N  N103  1  0.21860500  0.06108400  0.18710200  1
  N  N104  1  0.40853750  0.07416650  0.60654600  1
  N  N105  1  0.40853750  0.92583350  0.10654600  1
  N  N106  1  0.43059150  0.27371050  0.61071700  1
  N  N107  1  0.43059150  0.72628950  0.11071700  1
  N  N108  1  0.56940850  0.27371050  0.88928300  1
  N  N109  1  0.56940850  0.72628950  0.38928300  1
  N  N110  1  0.59146250  0.07416650  0.89345400  1
  N  N111  1  0.59146250  0.92583350  0.39345400  1
  N  N112  1  0.78139500  0.93891600  0.81289800  1
  N  N113  1  0.78139500  0.06108400  0.31289800  1
  N  N114  1  0.79907400  0.12132700  0.70659400  1
  N  N115  1  0.79907400  0.87867300  0.20659400  1
  N  N116  1  0.70092600  0.62132700  0.79340600  1
  N  N117  1  0.70092600  0.37867300  0.29340600  1
  N  N118  1  0.71860500  0.43891600  0.68710200  1
  N  N119  1  0.71860500  0.56108400  0.18710200  1
  N  N120  1  0.90853750  0.57416650  0.60654600  1
  N  N121  1  0.90853750  0.42583350  0.10654600  1
  N  N122  1  0.93059150  0.77371050  0.61071700  1
  N  N123  1  0.93059150  0.22628950  0.11071700  1
  N  N124  1  0.06940850  0.77371050  0.88928300  1
  N  N125  1  0.06940850  0.22628950  0.38928300  1
  N  N126  1  0.09146250  0.57416650  0.89345400  1
  N  N127  1  0.09146250  0.42583350  0.39345400  1
  N  N128  1  0.28139500  0.43891600  0.81289800  1
  N  N129  1  0.28139500  0.56108400  0.31289800  1
  N  N130  1  0.29907400  0.62132700  0.70659400  1
  N  N131  1  0.29907400  0.37867300  0.20659400  1
  Cl  Cl132  1  0.36745800  0.18335300  0.94207300  1
  Cl  Cl133  1  0.36745800  0.81664700  0.44207300  1
  Cl  Cl134  1  0.63254200  0.18335300  0.55792700  1
  Cl  Cl135  1  0.63254200  0.81664700  0.05792700  1
  Cl  Cl136  1  0.86745800  0.68335300  0.94207300  1
  Cl  Cl137  1  0.86745800  0.31664700  0.44207300  1
  Cl  Cl138  1  0.13254200  0.68335300  0.55792700  1
  Cl  Cl139  1  0.13254200  0.31664700  0.05792700  1
