# generated using pymatgen
data_YbCO3
_symmetry_space_group_name_H-M   'P 1'
_cell_length_a   4.37097400
_cell_length_b   6.27881700
_cell_length_c   8.63539900
_cell_angle_alpha   90.00000000
_cell_angle_beta   90.00000000
_cell_angle_gamma   90.00000000
_symmetry_Int_Tables_number   1
_chemical_formula_structural   YbCO3
_chemical_formula_sum   'Yb4 C4 O12'
_cell_volume   236.99460386
_cell_formula_units_Z   4
loop_
 _symmetry_equiv_pos_site_id
 _symmetry_equiv_pos_as_xyz
  1  'x, y, z'
loop_
 _atom_site_type_symbol
 _atom_site_label
 _atom_site_symmetry_multiplicity
 _atom_site_fract_x
 _atom_site_fract_y
 _atom_site_fract_z
 _atom_site_occupancy
  Yb  Yb0  1  0.00000000  0.00000000  0.00000000  1
  Yb  Yb1  1  0.00000000  0.00000000  0.50000000  1
  Yb  Yb2  1  0.50000000  0.50000000  0.00000000  1
  Yb  Yb3  1  0.50000000  0.50000000  0.50000000  1
  C  C4  1  0.11139700  0.64541300  0.25000000  1
  C  C5  1  0.38860300  0.14541300  0.25000000  1
  C  C6  1  0.61139700  0.85458700  0.75000000  1
  C  C7  1  0.88860300  0.35458700  0.75000000  1
  O  O8  1  0.97574800  0.66160500  0.11634600  1
  O  O9  1  0.02425200  0.33839500  0.61634600  1
  O  O10  1  0.97574800  0.66160500  0.38365400  1
  O  O11  1  0.02425200  0.33839500  0.88365400  1
  O  O12  1  0.09647000  0.11177800  0.25000000  1
  O  O13  1  0.40353000  0.61177800  0.25000000  1
  O  O14  1  0.52425200  0.16160500  0.38365400  1
  O  O15  1  0.52425200  0.16160500  0.11634600  1
  O  O16  1  0.47574800  0.83839500  0.61634600  1
  O  O17  1  0.47574800  0.83839500  0.88365400  1
  O  O18  1  0.59647000  0.38822200  0.75000000  1
  O  O19  1  0.90353000  0.88822200  0.75000000  1
