# generated using pymatgen
data_Fe4OF7
_symmetry_space_group_name_H-M   'P 1'
_cell_length_a   6.34752200
_cell_length_b   6.84675800
_cell_length_c   6.91237800
_cell_angle_alpha   90.00000000
_cell_angle_beta   90.00000000
_cell_angle_gamma   90.00000000
_symmetry_Int_Tables_number   1
_chemical_formula_structural   Fe4OF7
_chemical_formula_sum   'Fe8 O2 F14'
_cell_volume   300.41158176
_cell_formula_units_Z   2
loop_
 _symmetry_equiv_pos_site_id
 _symmetry_equiv_pos_as_xyz
  1  'x, y, z'
loop_
 _atom_site_type_symbol
 _atom_site_label
 _atom_site_symmetry_multiplicity
 _atom_site_fract_x
 _atom_site_fract_y
 _atom_site_fract_z
 _atom_site_occupancy
  Fe  Fe0  1  0.00000000  0.24130900  0.00000000  1
  Fe  Fe1  1  0.00000000  0.77193800  0.50000000  1
  Fe  Fe2  1  0.27025400  0.74127300  0.00000000  1
  Fe  Fe3  1  0.72974600  0.74127300  0.00000000  1
  Fe  Fe4  1  0.50000000  0.74130900  0.50000000  1
  Fe  Fe5  1  0.50000000  0.27193800  0.00000000  1
  Fe  Fe6  1  0.77025400  0.24127300  0.50000000  1
  Fe  Fe7  1  0.22974600  0.24127300  0.50000000  1
  O  O8  1  0.50000000  0.55554700  0.00000000  1
  O  O9  1  0.00000000  0.05554700  0.50000000  1
  F  F10  1  0.00000000  0.55052300  0.00000000  1
  F  F11  1  0.25369150  0.74916250  0.70680050  1
  F  F12  1  0.24630850  0.24916250  0.20680050  1
  F  F13  1  0.24630850  0.24916250  0.79319950  1
  F  F14  1  0.25369150  0.74916250  0.29319950  1
  F  F15  1  0.50000000  0.96641000  0.00000000  1
  F  F16  1  0.00000000  0.93507500  0.00000000  1
  F  F17  1  0.50000000  0.05052300  0.50000000  1
  F  F18  1  0.75369150  0.24916250  0.20680050  1
  F  F19  1  0.74630850  0.74916250  0.70680050  1
  F  F20  1  0.74630850  0.74916250  0.29319950  1
  F  F21  1  0.75369150  0.24916250  0.79319950  1
  F  F22  1  0.00000000  0.46641000  0.50000000  1
  F  F23  1  0.50000000  0.43507500  0.50000000  1
