# generated using pymatgen
data_LiV3O8
_symmetry_space_group_name_H-M   'P 1'
_cell_length_a   12.48878000
_cell_length_b   3.50366000
_cell_length_c   7.20275131
_cell_angle_alpha   90.00000000
_cell_angle_beta   109.79370996
_cell_angle_gamma   90.00000000
_symmetry_Int_Tables_number   1
_chemical_formula_structural   LiV3O8
_chemical_formula_sum   'Li2 V6 O16'
_cell_volume   296.54605044
_cell_formula_units_Z   2
loop_
 _symmetry_equiv_pos_site_id
 _symmetry_equiv_pos_as_xyz
  1  'x, y, z'
loop_
 _atom_site_type_symbol
 _atom_site_label
 _atom_site_symmetry_multiplicity
 _atom_site_fract_x
 _atom_site_fract_y
 _atom_site_fract_z
 _atom_site_occupancy
  Li  Li0  1  0.18551900  0.50000000  0.27825400  1
  Li  Li1  1  0.68551900  0.00000000  0.27825400  1
  V  V2  1  0.10322900  0.50000000  0.74871300  1
  V  V3  1  0.30349600  0.00000000  0.66957100  1
  V  V4  1  0.40293300  0.00000000  0.23505900  1
  V  V5  1  0.60322900  0.00000000  0.74871300  1
  V  V6  1  0.80349600  0.50000000  0.66957100  1
  V  V7  1  0.90293300  0.50000000  0.23505900  1
  O  O8  1  0.04430700  0.50000000  0.34197300  1
  O  O9  1  0.13822200  0.50000000  0.98708000  1
  O  O10  1  0.12638900  0.00000000  0.68690200  1
  O  O11  1  0.26662600  0.50000000  0.71447900  1
  O  O12  1  0.24479900  0.00000000  0.42297700  1
  O  O13  1  0.36162700  0.50000000  0.28368200  1
  O  O14  1  0.44866600  0.00000000  0.67409000  1
  O  O15  1  0.37121100  0.00000000  0.98754500  1
  O  O16  1  0.54430700  0.00000000  0.34197300  1
  O  O17  1  0.63822200  0.00000000  0.98708000  1
  O  O18  1  0.62638900  0.50000000  0.68690200  1
  O  O19  1  0.76662600  0.00000000  0.71447900  1
  O  O20  1  0.74479900  0.50000000  0.42297700  1
  O  O21  1  0.86162700  0.00000000  0.28368200  1
  O  O22  1  0.94866600  0.50000000  0.67409000  1
  O  O23  1  0.87121100  0.50000000  0.98754500  1
