# generated using pymatgen
data_SrLaI5
_symmetry_space_group_name_H-M   'P 1'
_cell_length_a   6.41181200
_cell_length_b   21.98275600
_cell_length_c   7.98041286
_cell_angle_alpha   90.00000000
_cell_angle_beta   95.42409289
_cell_angle_gamma   90.00000000
_symmetry_Int_Tables_number   1
_chemical_formula_structural   SrLaI5
_chemical_formula_sum   'Sr4 La4 I20'
_cell_volume   1119.79693356
_cell_formula_units_Z   4
loop_
 _symmetry_equiv_pos_site_id
 _symmetry_equiv_pos_as_xyz
  1  'x, y, z'
loop_
 _atom_site_type_symbol
 _atom_site_label
 _atom_site_symmetry_multiplicity
 _atom_site_fract_x
 _atom_site_fract_y
 _atom_site_fract_z
 _atom_site_occupancy
  Sr  Sr0  1  0.00129800  0.32310100  0.25637300  1
  Sr  Sr1  1  0.50129800  0.17689900  0.75637300  1
  Sr  Sr2  1  0.50129800  0.82310100  0.25637300  1
  Sr  Sr3  1  0.00129800  0.67689900  0.75637300  1
  La  La4  1  0.99998250  0.07974850  0.24939200  1
  La  La5  1  0.49998250  0.42025150  0.74939200  1
  La  La6  1  0.49998250  0.57974850  0.24939200  1
  La  La7  1  0.99998250  0.92025150  0.74939200  1
  I  I8  1  0.74948050  0.46201050  0.10652900  1
  I  I9  1  0.99730050  0.19688850  0.99284800  1
  I  I10  1  0.00067500  0.37022800  0.74437500  1
  I  I11  1  0.00706350  0.19722550  0.50575100  1
  I  I12  1  0.24948050  0.03798950  0.60652900  1
  I  I13  1  0.25407000  0.46191800  0.39205100  1
  I  I14  1  0.49730050  0.30311150  0.49284800  1
  I  I15  1  0.50067500  0.12977200  0.24437500  1
  I  I16  1  0.50706350  0.30277450  0.00575100  1
  I  I17  1  0.75407000  0.03808200  0.89205100  1
  I  I18  1  0.24948050  0.96201050  0.10652900  1
  I  I19  1  0.49730050  0.69688850  0.99284800  1
  I  I20  1  0.50067500  0.87022800  0.74437500  1
  I  I21  1  0.50706350  0.69722550  0.50575100  1
  I  I22  1  0.74948050  0.53798950  0.60652900  1
  I  I23  1  0.75407000  0.96191800  0.39205100  1
  I  I24  1  0.99730050  0.80311150  0.49284800  1
  I  I25  1  0.00067500  0.62977200  0.24437500  1
  I  I26  1  0.00706350  0.80277450  0.00575100  1
  I  I27  1  0.25407000  0.53808200  0.89205100  1
