# generated using pymatgen
data_NaHoO2
_symmetry_space_group_name_H-M   'P 1'
_cell_length_a   6.65772200
_cell_length_b   13.24627000
_cell_length_c   5.96043418
_cell_angle_alpha   90.00000000
_cell_angle_beta   122.52759854
_cell_angle_gamma   90.00000000
_symmetry_Int_Tables_number   1
_chemical_formula_structural   NaHoO2
_chemical_formula_sum   'Na8 Ho8 O16'
_cell_volume   443.19311640
_cell_formula_units_Z   8
loop_
 _symmetry_equiv_pos_site_id
 _symmetry_equiv_pos_as_xyz
  1  'x, y, z'
loop_
 _atom_site_type_symbol
 _atom_site_label
 _atom_site_symmetry_multiplicity
 _atom_site_fract_x
 _atom_site_fract_y
 _atom_site_fract_z
 _atom_site_occupancy
  Na  Na0  1  0.50000000  0.44426200  0.75000000  1
  Na  Na1  1  0.00000000  0.18008900  0.75000000  1
  Na  Na2  1  0.50000000  0.31991100  0.25000000  1
  Na  Na3  1  0.00000000  0.05573800  0.25000000  1
  Na  Na4  1  0.00000000  0.94426200  0.75000000  1
  Na  Na5  1  0.50000000  0.68008900  0.75000000  1
  Na  Na6  1  0.00000000  0.81991100  0.25000000  1
  Na  Na7  1  0.50000000  0.55573800  0.25000000  1
  Ho  Ho8  1  0.00000000  0.43284700  0.75000000  1
  Ho  Ho9  1  0.50000000  0.19319800  0.75000000  1
  Ho  Ho10  1  0.50000000  0.06715300  0.25000000  1
  Ho  Ho11  1  0.00000000  0.30680200  0.25000000  1
  Ho  Ho12  1  0.50000000  0.93284700  0.75000000  1
  Ho  Ho13  1  0.00000000  0.69319800  0.75000000  1
  Ho  Ho14  1  0.00000000  0.56715300  0.25000000  1
  Ho  Ho15  1  0.50000000  0.80680200  0.25000000  1
  O  O16  1  0.72762600  0.18810500  0.20578200  1
  O  O17  1  0.79633950  0.43650950  0.29622500  1
  O  O18  1  0.22762600  0.31189500  0.70578200  1
  O  O19  1  0.29633950  0.06349050  0.79622500  1
  O  O20  1  0.20366050  0.43650950  0.20377500  1
  O  O21  1  0.27237400  0.18810500  0.29421800  1
  O  O22  1  0.70366050  0.06349050  0.70377500  1
  O  O23  1  0.77237400  0.31189500  0.79421800  1
  O  O24  1  0.22762600  0.68810500  0.20578200  1
  O  O25  1  0.29633950  0.93650950  0.29622500  1
  O  O26  1  0.72762600  0.81189500  0.70578200  1
  O  O27  1  0.79633950  0.56349050  0.79622500  1
  O  O28  1  0.70366050  0.93650950  0.20377500  1
  O  O29  1  0.77237400  0.68810500  0.29421800  1
  O  O30  1  0.20366050  0.56349050  0.70377500  1
  O  O31  1  0.27237400  0.81189500  0.79421800  1
