# generated using pymatgen
data_Li3V4O7F5
_symmetry_space_group_name_H-M   'P 1'
_cell_length_a   5.13096907
_cell_length_b   5.35381541
_cell_length_c   8.89140923
_cell_angle_alpha   106.65234298
_cell_angle_beta   88.77666346
_cell_angle_gamma   116.93787688
_symmetry_Int_Tables_number   1
_chemical_formula_structural   Li3V4O7F5
_chemical_formula_sum   'Li3 V4 O7 F5'
_cell_volume   206.92658405
_cell_formula_units_Z   1
loop_
 _symmetry_equiv_pos_site_id
 _symmetry_equiv_pos_as_xyz
  1  'x, y, z'
loop_
 _atom_site_type_symbol
 _atom_site_label
 _atom_site_symmetry_multiplicity
 _atom_site_fract_x
 _atom_site_fract_y
 _atom_site_fract_z
 _atom_site_occupancy
  Li  Li0  1  0.46430493  0.76140204  0.15407269  1
  Li  Li1  1  0.93494380  0.21682205  0.65563743  1
  Li  Li2  1  0.70589015  0.49432875  0.89845072  1
  V  V3  1  0.49249084  0.51202477  0.50358464  1
  V  V4  1  0.06997516  0.04546445  0.00089258  1
  V  V5  1  0.79513232  0.32563806  0.26373722  1
  V  V6  1  0.23825541  0.73389530  0.76031075  1
  O  O7  1  0.06611294  0.92329905  0.81777614  1
  O  O8  1  0.57245249  0.44498173  0.31302373  1
  O  O9  1  0.43731623  0.18314084  0.06681625  1
  O  O10  1  0.99555981  0.36327498  0.86916173  1
  O  O11  1  0.99190940  0.62350978  0.12522694  1
  O  O12  1  0.05114727  0.32566911  0.42970041  1
  O  O13  1  0.41530576  0.57863306  0.68238682  1
  F  F14  1  0.51934703  0.89085509  0.35936806  1
  F  F15  1  0.93353294  0.68149393  0.57097737  1
  F  F16  1  0.55936899  0.79341597  0.94420627  1
  F  F17  1  0.90315193  0.06360260  0.17437119  1
  F  F18  1  0.51117856  0.13417344  0.62942505  1
