# generated using pymatgen
data_Li2MnFe(BO3)2
_symmetry_space_group_name_H-M   'P 1'
_cell_length_a   8.26731800
_cell_length_b   3.16491300
_cell_length_c   14.27712626
_cell_angle_alpha   90.00000000
_cell_angle_beta   90.03222132
_cell_angle_gamma   90.00000000
_symmetry_Int_Tables_number   1
_chemical_formula_structural   Li2MnFe(BO3)2
_chemical_formula_sum   'Li6 Mn3 Fe3 B6 O18'
_cell_volume   373.56583528
_cell_formula_units_Z   3
loop_
 _symmetry_equiv_pos_site_id
 _symmetry_equiv_pos_as_xyz
  1  'x, y, z'
loop_
 _atom_site_type_symbol
 _atom_site_label
 _atom_site_symmetry_multiplicity
 _atom_site_fract_x
 _atom_site_fract_y
 _atom_site_fract_z
 _atom_site_occupancy
  Li  Li0  1  0.29198500  0.50000000  0.01003500  1
  Li  Li1  1  0.33999600  0.50000000  0.64155000  1
  Li  Li2  1  0.36498400  0.50000000  0.34918400  1
  Li  Li3  1  0.79293200  0.50000000  0.50812500  1
  Li  Li4  1  0.84097100  0.50000000  0.14239100  1
  Li  Li5  1  0.86594800  0.50000000  0.85003000  1
  Mn  Mn6  1  0.19224100  0.00000000  0.81992300  1
  Mn  Mn7  1  0.67416700  0.00000000  0.68588300  1
  Mn  Mn8  1  0.69227700  0.00000000  0.32001300  1
  Fe  Fe9  1  0.13754300  0.00000000  0.49571600  1
  Fe  Fe10  1  0.17607300  0.00000000  0.18382800  1
  Fe  Fe11  1  0.63554400  0.00000000  0.99613900  1
  B  B12  1  0.00282100  0.50000000  0.33361700  1
  B  B13  1  0.99753900  0.00000000  0.00024100  1
  B  B14  1  0.00118900  0.50000000  0.66554700  1
  B  B15  1  0.50053100  0.50000000  0.83493900  1
  B  B16  1  0.49870500  0.00000000  0.49907200  1
  B  B17  1  0.49932300  0.50000000  0.16568600  1
  O  O18  1  0.01183700  0.50000000  0.56831400  1
  O  O19  1  0.01946500  0.50000000  0.23643100  1
  O  O20  1  0.13859000  0.50000000  0.39115300  1
  O  O21  1  0.14082000  0.50000000  0.71947300  1
  O  O22  1  0.15029000  0.00000000  0.04208300  1
  O  O23  1  0.34749400  0.50000000  0.87587600  1
  O  O24  1  0.34783900  0.50000000  0.20827400  1
  O  O25  1  0.36105400  0.00000000  0.55592500  1
  O  O26  1  0.48132700  0.00000000  0.40223000  1
  O  O27  1  0.51115200  0.50000000  0.06849900  1
  O  O28  1  0.51436800  0.50000000  0.73753200  1
  O  O29  1  0.63805500  0.50000000  0.89098200  1
  O  O30  1  0.63864300  0.50000000  0.21976900  1
  O  O31  1  0.65226000  0.00000000  0.53925200  1
  O  O32  1  0.84899200  0.50000000  0.37385100  1
  O  O33  1  0.85093200  0.50000000  0.70906100  1
  O  O34  1  0.85914300  0.00000000  0.05600100  1
  O  O35  1  0.98297400  0.00000000  0.90337200  1
