# generated using pymatgen
data_Li6Fe3Sb3O16
_symmetry_space_group_name_H-M   'P 1'
_cell_length_a   10.51552200
_cell_length_b   6.11935600
_cell_length_c   10.04007075
_cell_angle_alpha   90.00000000
_cell_angle_beta   90.49305448
_cell_angle_gamma   90.00000000
_symmetry_Int_Tables_number   1
_chemical_formula_structural   Li6Fe3Sb3O16
_chemical_formula_sum   'Li12 Fe6 Sb6 O32'
_cell_volume   646.03678653
_cell_formula_units_Z   2
loop_
 _symmetry_equiv_pos_site_id
 _symmetry_equiv_pos_as_xyz
  1  'x, y, z'
loop_
 _atom_site_type_symbol
 _atom_site_label
 _atom_site_symmetry_multiplicity
 _atom_site_fract_x
 _atom_site_fract_y
 _atom_site_fract_z
 _atom_site_occupancy
  Li  Li0  1  0.66492800  0.00000000  0.49877400  1
  Li  Li1  1  0.66775000  0.00000000  0.12482100  1
  Li  Li2  1  0.99096600  0.00000000  0.00087900  1
  Li  Li3  1  0.99292300  0.00000000  0.49541500  1
  Li  Li4  1  0.34202700  0.00000000  0.99981000  1
  Li  Li5  1  0.32669500  0.00000000  0.61077800  1
  Li  Li6  1  0.16492800  0.50000000  0.49877400  1
  Li  Li7  1  0.16775000  0.50000000  0.12482100  1
  Li  Li8  1  0.49096600  0.50000000  0.00087900  1
  Li  Li9  1  0.49292300  0.50000000  0.49541500  1
  Li  Li10  1  0.84202700  0.50000000  0.99981000  1
  Li  Li11  1  0.82669500  0.50000000  0.61077800  1
  Fe  Fe12  1  0.83235800  0.00000000  0.78210400  1
  Fe  Fe13  1  0.41731100  0.75227400  0.28365400  1
  Fe  Fe14  1  0.41731100  0.24772600  0.28365400  1
  Fe  Fe15  1  0.33235800  0.50000000  0.78210400  1
  Fe  Fe16  1  0.91731100  0.25227400  0.28365400  1
  Fe  Fe17  1  0.91731100  0.74772600  0.28365400  1
  Sb  Sb18  1  0.58510100  0.75324000  0.78462100  1
  Sb  Sb19  1  0.58510100  0.24676000  0.78462100  1
  Sb  Sb20  1  0.17062000  0.00000000  0.28535100  1
  Sb  Sb21  1  0.08510100  0.25324000  0.78462100  1
  Sb  Sb22  1  0.08510100  0.74676000  0.78462100  1
  Sb  Sb23  1  0.67062000  0.50000000  0.28535100  1
  O  O24  1  0.57325050  0.73057250  0.39049600  1
  O  O25  1  0.51173300  0.00000000  0.67308800  1
  O  O26  1  0.66517700  0.00000000  0.89978600  1
  O  O27  1  0.00302700  0.00000000  0.67676500  1
  O  O28  1  0.00867200  0.00000000  0.17795500  1
  O  O29  1  0.57325050  0.26942750  0.39049600  1
  O  O30  1  0.73868450  0.76973550  0.67512200  1
  O  O31  1  0.73868450  0.23026450  0.67512200  1
  O  O32  1  0.15540600  0.00000000  0.89571800  1
  O  O33  1  0.84913500  0.00000000  0.37824200  1
  O  O34  1  0.26221650  0.77117450  0.17759500  1
  O  O35  1  0.26221650  0.22882550  0.17759500  1
  O  O36  1  0.32734000  0.00000000  0.40172900  1
  O  O37  1  0.42770650  0.73369950  0.89055900  1
  O  O38  1  0.48192700  0.00000000  0.18683700  1
  O  O39  1  0.42770650  0.26630050  0.89055900  1
  O  O40  1  0.07325050  0.23057250  0.39049600  1
  O  O41  1  0.01173300  0.50000000  0.67308800  1
  O  O42  1  0.16517700  0.50000000  0.89978600  1
  O  O43  1  0.50302700  0.50000000  0.67676500  1
  O  O44  1  0.50867200  0.50000000  0.17795500  1
  O  O45  1  0.07325050  0.76942750  0.39049600  1
  O  O46  1  0.23868450  0.26973550  0.67512200  1
  O  O47  1  0.23868450  0.73026450  0.67512200  1
  O  O48  1  0.65540600  0.50000000  0.89571800  1
  O  O49  1  0.34913500  0.50000000  0.37824200  1
  O  O50  1  0.76221650  0.27117450  0.17759500  1
  O  O51  1  0.76221650  0.72882550  0.17759500  1
  O  O52  1  0.82734000  0.50000000  0.40172900  1
  O  O53  1  0.92770650  0.23369950  0.89055900  1
  O  O54  1  0.98192700  0.50000000  0.18683700  1
  O  O55  1  0.92770650  0.76630050  0.89055900  1
