# generated using pymatgen
data_Sr3Nd10Al12Si18(N2O)18
_symmetry_space_group_name_H-M   'P 1'
_cell_length_a   13.50397800
_cell_length_b   19.08808000
_cell_length_c   11.69476286
_cell_angle_alpha   90.00000000
_cell_angle_beta   125.18470523
_cell_angle_gamma   90.00000000
_symmetry_Int_Tables_number   1
_chemical_formula_structural   Sr3Nd10Al12Si18(N2O)18
_chemical_formula_sum   'Sr6 Nd20 Al24 Si36 N72 O36'
_cell_volume   2463.74763133
_cell_formula_units_Z   2
loop_
 _symmetry_equiv_pos_site_id
 _symmetry_equiv_pos_as_xyz
  1  'x, y, z'
loop_
 _atom_site_type_symbol
 _atom_site_label
 _atom_site_symmetry_multiplicity
 _atom_site_fract_x
 _atom_site_fract_y
 _atom_site_fract_z
 _atom_site_occupancy
  Sr  Sr0  1  0.71248150  0.28748950  0.68005000  1
  Sr  Sr1  1  0.71248150  0.71251050  0.68005000  1
  Sr  Sr2  1  0.99958700  0.00000000  0.99792800  1
  Sr  Sr3  1  0.21248150  0.78748950  0.68005000  1
  Sr  Sr4  1  0.21248150  0.21251050  0.68005000  1
  Sr  Sr5  1  0.49958700  0.50000000  0.99792800  1
  Nd  Nd6  1  0.57914000  0.00000000  0.25219600  1
  Nd  Nd7  1  0.53871700  0.78806300  0.33198100  1
  Nd  Nd8  1  0.53871700  0.21193700  0.33198100  1
  Nd  Nd9  1  0.33877600  0.33598600  0.42262600  1
  Nd  Nd10  1  0.33877600  0.66401400  0.42262600  1
  Nd  Nd11  1  0.41255200  0.83702200  0.58029800  1
  Nd  Nd12  1  0.41255200  0.16297800  0.58029800  1
  Nd  Nd13  1  0.32647000  0.00000000  0.74706400  1
  Nd  Nd14  1  0.54712550  0.87392750  0.99778700  1
  Nd  Nd15  1  0.54712550  0.12607250  0.99778700  1
  Nd  Nd16  1  0.07914000  0.50000000  0.25219600  1
  Nd  Nd17  1  0.03871700  0.28806300  0.33198100  1
  Nd  Nd18  1  0.03871700  0.71193700  0.33198100  1
  Nd  Nd19  1  0.83877600  0.83598600  0.42262600  1
  Nd  Nd20  1  0.83877600  0.16401400  0.42262600  1
  Nd  Nd21  1  0.91255200  0.33702200  0.58029800  1
  Nd  Nd22  1  0.91255200  0.66297800  0.58029800  1
  Nd  Nd23  1  0.82647000  0.50000000  0.74706400  1
  Nd  Nd24  1  0.04712550  0.37392750  0.99778700  1
  Nd  Nd25  1  0.04712550  0.62607250  0.99778700  1
  Al  Al26  1  0.87678500  0.87692200  0.16244600  1
  Al  Al27  1  0.45752500  0.70440600  0.99972700  1
  Al  Al28  1  0.45752500  0.29559400  0.99972700  1
  Al  Al29  1  0.87678500  0.12307800  0.16244600  1
  Al  Al30  1  0.83765400  0.00000000  0.59054800  1
  Al  Al31  1  0.32867050  0.08128750  0.24707300  1
  Al  Al32  1  0.32867050  0.91871250  0.24707300  1
  Al  Al33  1  0.24639700  0.00000000  0.40827700  1
  Al  Al34  1  0.71446600  0.12342100  0.83755200  1
  Al  Al35  1  0.71446600  0.87657900  0.83755200  1
  Al  Al36  1  0.08156050  0.08110550  0.75380800  1
  Al  Al37  1  0.08156050  0.91889450  0.75380800  1
  Al  Al38  1  0.37678500  0.37692200  0.16244600  1
  Al  Al39  1  0.95752500  0.20440600  0.99972700  1
  Al  Al40  1  0.95752500  0.79559400  0.99972700  1
  Al  Al41  1  0.37678500  0.62307800  0.16244600  1
  Al  Al42  1  0.33765400  0.50000000  0.59054800  1
  Al  Al43  1  0.82867050  0.58128750  0.24707300  1
  Al  Al44  1  0.82867050  0.41871250  0.24707300  1
  Al  Al45  1  0.74639700  0.50000000  0.40827700  1
  Al  Al46  1  0.21446600  0.62342100  0.83755200  1
  Al  Al47  1  0.21446600  0.37657900  0.83755200  1
  Al  Al48  1  0.58156050  0.58110550  0.75380800  1
  Al  Al49  1  0.58156050  0.41889450  0.75380800  1
  Si  Si50  1  0.69909800  0.00000000  0.00015700  1
  Si  Si51  1  0.84003800  0.00000000  0.30143400  1
  Si  Si52  1  0.31129900  0.15043000  0.00172700  1
  Si  Si53  1  0.64965850  0.65013850  0.30021600  1
  Si  Si54  1  0.73045950  0.73092450  0.16093000  1
  Si  Si55  1  0.73045950  0.26907550  0.16093000  1
  Si  Si56  1  0.61908450  0.92000150  0.53862300  1
  Si  Si57  1  0.61908450  0.07999850  0.53862300  1
  Si  Si58  1  0.64965850  0.34986150  0.30021600  1
  Si  Si59  1  0.53871700  0.00000000  0.69941500  1
  Si  Si60  1  0.08090800  0.08047900  0.46237000  1
  Si  Si61  1  0.08090800  0.91952100  0.46237000  1
  Si  Si62  1  0.57150550  0.72978450  0.84076100  1
  Si  Si63  1  0.57150550  0.27021550  0.84076100  1
  Si  Si64  1  0.34987250  0.65020450  0.69895900  1
  Si  Si65  1  0.34987250  0.34979550  0.69895900  1
  Si  Si66  1  0.31129900  0.84957000  0.00172700  1
  Si  Si67  1  0.30141600  0.00000000  0.99995800  1
  Si  Si68  1  0.19909800  0.50000000  0.00015700  1
  Si  Si69  1  0.34003800  0.50000000  0.30143400  1
  Si  Si70  1  0.81129900  0.65043000  0.00172700  1
  Si  Si71  1  0.14965850  0.15013850  0.30021600  1
  Si  Si72  1  0.23045950  0.23092450  0.16093000  1
  Si  Si73  1  0.23045950  0.76907550  0.16093000  1
  Si  Si74  1  0.11908450  0.42000150  0.53862300  1
  Si  Si75  1  0.11908450  0.57999850  0.53862300  1
  Si  Si76  1  0.14965850  0.84986150  0.30021600  1
  Si  Si77  1  0.03871700  0.50000000  0.69941500  1
  Si  Si78  1  0.58090800  0.58047900  0.46237000  1
  Si  Si79  1  0.58090800  0.41952100  0.46237000  1
  Si  Si80  1  0.07150550  0.22978450  0.84076100  1
  Si  Si81  1  0.07150550  0.77021550  0.84076100  1
  Si  Si82  1  0.84987250  0.15020450  0.69895900  1
  Si  Si83  1  0.84987250  0.84979550  0.69895900  1
  Si  Si84  1  0.81129900  0.34957000  0.00172700  1
  Si  Si85  1  0.80141600  0.50000000  0.99995800  1
  N  N86  1  0.76568100  0.07682500  0.00017300  1
  N  N87  1  0.76568100  0.92317500  0.00017300  1
  N  N88  1  0.69552000  0.00000000  0.14630600  1
  N  N89  1  0.37874450  0.07301750  0.00092300  1
  N  N90  1  0.50137850  0.65476750  0.15631600  1
  N  N91  1  0.50137850  0.34523250  0.15631600  1
  N  N92  1  0.31574500  0.83554500  0.15290500  1
  N  N93  1  0.31574500  0.16445500  0.15290500  1
  N  N94  1  0.31181000  0.00000000  0.15375600  1
  N  N95  1  0.15204300  0.15194700  0.44917300  1
  N  N96  1  0.42497400  0.42492900  0.32747100  1
  N  N97  1  0.42497400  0.57507100  0.32747100  1
  N  N98  1  0.92133750  0.07827750  0.68890700  1
  N  N99  1  0.67266600  0.00000000  0.52233300  1
  N  N100  1  0.70237550  0.84864350  0.54865800  1
  N  N101  1  0.70237550  0.15135650  0.54865800  1
  N  N102  1  0.23207450  0.07859450  0.30972600  1
  N  N103  1  0.23207450  0.92140550  0.30972600  1
  N  N104  1  0.72256400  0.72582700  0.30328600  1
  N  N105  1  0.72256400  0.27417300  0.30328600  1
  N  N106  1  0.59700400  0.07523500  0.67215800  1
  N  N107  1  0.59700400  0.92476500  0.67215800  1
  N  N108  1  0.34645150  0.34644750  0.84380400  1
  N  N109  1  0.15204300  0.84805300  0.44917300  1
  N  N110  1  0.15061700  0.00000000  0.47732500  1
  N  N111  1  0.92133750  0.92172250  0.68890700  1
  N  N112  1  0.42305600  0.72418200  0.69513500  1
  N  N113  1  0.42305600  0.27581800  0.69513500  1
  N  N114  1  0.55047200  0.00000000  0.85490400  1
  N  N115  1  0.58858550  0.73955050  0.00062800  1
  N  N116  1  0.58858550  0.26044950  0.00062800  1
  N  N117  1  0.34645150  0.65355250  0.84380400  1
  N  N118  1  0.15831200  0.00000000  0.84733400  1
  N  N119  1  0.16363700  0.16180300  0.85598800  1
  N  N120  1  0.16363700  0.83819700  0.85598800  1
  N  N121  1  0.37874450  0.92698250  0.00092300  1
  N  N122  1  0.26568100  0.57682500  0.00017300  1
  N  N123  1  0.26568100  0.42317500  0.00017300  1
  N  N124  1  0.19552000  0.50000000  0.14630600  1
  N  N125  1  0.87874450  0.57301750  0.00092300  1
  N  N126  1  0.00137850  0.15476750  0.15631600  1
  N  N127  1  0.00137850  0.84523250  0.15631600  1
  N  N128  1  0.81574500  0.33554500  0.15290500  1
  N  N129  1  0.81574500  0.66445500  0.15290500  1
  N  N130  1  0.81181000  0.50000000  0.15375600  1
  N  N131  1  0.65204300  0.65194700  0.44917300  1
  N  N132  1  0.92497400  0.92492900  0.32747100  1
  N  N133  1  0.92497400  0.07507100  0.32747100  1
  N  N134  1  0.42133750  0.57827750  0.68890700  1
  N  N135  1  0.17266600  0.50000000  0.52233300  1
  N  N136  1  0.20237550  0.34864350  0.54865800  1
  N  N137  1  0.20237550  0.65135650  0.54865800  1
  N  N138  1  0.73207450  0.57859450  0.30972600  1
  N  N139  1  0.73207450  0.42140550  0.30972600  1
  N  N140  1  0.22256400  0.22582700  0.30328600  1
  N  N141  1  0.22256400  0.77417300  0.30328600  1
  N  N142  1  0.09700400  0.57523500  0.67215800  1
  N  N143  1  0.09700400  0.42476500  0.67215800  1
  N  N144  1  0.84645150  0.84644750  0.84380400  1
  N  N145  1  0.65204300  0.34805300  0.44917300  1
  N  N146  1  0.65061700  0.50000000  0.47732500  1
  N  N147  1  0.42133750  0.42172250  0.68890700  1
  N  N148  1  0.92305600  0.22418200  0.69513500  1
  N  N149  1  0.92305600  0.77581800  0.69513500  1
  N  N150  1  0.05047200  0.50000000  0.85490400  1
  N  N151  1  0.08858550  0.23955050  0.00062800  1
  N  N152  1  0.08858550  0.76044950  0.00062800  1
  N  N153  1  0.84645150  0.15355250  0.84380400  1
  N  N154  1  0.65831200  0.50000000  0.84733400  1
  N  N155  1  0.66363700  0.66180300  0.85598800  1
  N  N156  1  0.66363700  0.33819700  0.85598800  1
  N  N157  1  0.87874450  0.42698250  0.00092300  1
  O  O158  1  0.62552950  0.87563350  0.25081400  1
  O  O159  1  0.62552950  0.12436650  0.25081400  1
  O  O160  1  0.81154600  0.00000000  0.42163300  1
  O  O161  1  0.80496700  0.80527700  0.18742900  1
  O  O162  1  0.80496700  0.19472300  0.18742900  1
  O  O163  1  0.48429200  0.09289600  0.38967800  1
  O  O164  1  0.48429200  0.90710400  0.38967800  1
  O  O165  1  0.48695750  0.24632050  0.48789500  1
  O  O166  1  0.48695750  0.75367950  0.48789500  1
  O  O167  1  0.59083800  0.59154100  0.60857600  1
  O  O168  1  0.38987800  0.00000000  0.57692300  1
  O  O169  1  0.61821950  0.19521250  0.81390300  1
  O  O170  1  0.61821950  0.80478750  0.81390300  1
  O  O171  1  0.38636300  0.87977400  0.75555600  1
  O  O172  1  0.38636300  0.12022600  0.75555600  1
  O  O173  1  0.59083800  0.40845900  0.60857600  1
  O  O174  1  0.39882450  0.21124350  0.00025900  1
  O  O175  1  0.39882450  0.78875650  0.00025900  1
  O  O176  1  0.12552950  0.37563350  0.25081400  1
  O  O177  1  0.12552950  0.62436650  0.25081400  1
  O  O178  1  0.31154600  0.50000000  0.42163300  1
  O  O179  1  0.30496700  0.30527700  0.18742900  1
  O  O180  1  0.30496700  0.69472300  0.18742900  1
  O  O181  1  0.98429200  0.59289600  0.38967800  1
  O  O182  1  0.98429200  0.40710400  0.38967800  1
  O  O183  1  0.98695750  0.74632050  0.48789500  1
  O  O184  1  0.98695750  0.25367950  0.48789500  1
  O  O185  1  0.09083800  0.09154100  0.60857600  1
  O  O186  1  0.88987800  0.50000000  0.57692300  1
  O  O187  1  0.11821950  0.69521250  0.81390300  1
  O  O188  1  0.11821950  0.30478750  0.81390300  1
  O  O189  1  0.88636300  0.37977400  0.75555600  1
  O  O190  1  0.88636300  0.62022600  0.75555600  1
  O  O191  1  0.09083800  0.90845900  0.60857600  1
  O  O192  1  0.89882450  0.71124350  0.00025900  1
  O  O193  1  0.89882450  0.28875650  0.00025900  1
