# generated using pymatgen
data_LiMnF3
_symmetry_space_group_name_H-M   'P 1'
_cell_length_a   4.77668000
_cell_length_b   8.98726200
_cell_length_c   11.89059800
_cell_angle_alpha   90.00000000
_cell_angle_beta   90.00000000
_cell_angle_gamma   90.00000000
_symmetry_Int_Tables_number   1
_chemical_formula_structural   LiMnF3
_chemical_formula_sum   'Li8 Mn8 F24'
_cell_volume   510.45474730
_cell_formula_units_Z   8
loop_
 _symmetry_equiv_pos_site_id
 _symmetry_equiv_pos_as_xyz
  1  'x, y, z'
loop_
 _atom_site_type_symbol
 _atom_site_label
 _atom_site_symmetry_multiplicity
 _atom_site_fract_x
 _atom_site_fract_y
 _atom_site_fract_z
 _atom_site_occupancy
  Li  Li0  1  0.75000000  0.50000000  0.63604000  1
  Li  Li1  1  0.25000000  0.50000000  0.63604000  1
  Li  Li2  1  0.75000000  0.50000000  0.36396000  1
  Li  Li3  1  0.25000000  0.50000000  0.36396000  1
  Li  Li4  1  0.25000000  0.00000000  0.13604000  1
  Li  Li5  1  0.75000000  0.00000000  0.13604000  1
  Li  Li6  1  0.25000000  0.00000000  0.86396000  1
  Li  Li7  1  0.75000000  0.00000000  0.86396000  1
  Mn  Mn8  1  0.00000000  0.35735900  0.89483600  1
  Mn  Mn9  1  0.50000000  0.64264100  0.89483600  1
  Mn  Mn10  1  0.50000000  0.35735900  0.10516400  1
  Mn  Mn11  1  0.00000000  0.64264100  0.10516400  1
  Mn  Mn12  1  0.50000000  0.85735900  0.39483600  1
  Mn  Mn13  1  0.00000000  0.14264100  0.39483600  1
  Mn  Mn14  1  0.00000000  0.85735900  0.60516400  1
  Mn  Mn15  1  0.50000000  0.14264100  0.60516400  1
  F  F16  1  0.00000000  0.39190700  0.72678100  1
  F  F17  1  0.50000000  0.60809300  0.72678100  1
  F  F18  1  0.50000000  0.39780200  0.92035100  1
  F  F19  1  0.00000000  0.60219800  0.92035100  1
  F  F20  1  0.50000000  0.13604100  0.07346500  1
  F  F21  1  0.00000000  0.86395900  0.07346500  1
  F  F22  1  0.50000000  0.86395900  0.92653500  1
  F  F23  1  0.00000000  0.13604100  0.92653500  1
  F  F24  1  0.50000000  0.60219800  0.07964900  1
  F  F25  1  0.00000000  0.39780200  0.07964900  1
  F  F26  1  0.00000000  0.60809300  0.27321900  1
  F  F27  1  0.50000000  0.39190700  0.27321900  1
  F  F28  1  0.50000000  0.89190700  0.22678100  1
  F  F29  1  0.00000000  0.10809300  0.22678100  1
  F  F30  1  0.00000000  0.89780200  0.42035100  1
  F  F31  1  0.50000000  0.10219800  0.42035100  1
  F  F32  1  0.00000000  0.63604100  0.57346500  1
  F  F33  1  0.50000000  0.36395900  0.57346500  1
  F  F34  1  0.00000000  0.36395900  0.42653500  1
  F  F35  1  0.50000000  0.63604100  0.42653500  1
  F  F36  1  0.00000000  0.10219800  0.57964900  1
  F  F37  1  0.50000000  0.89780200  0.57964900  1
  F  F38  1  0.50000000  0.10809300  0.77321900  1
  F  F39  1  0.00000000  0.89190700  0.77321900  1
