# generated using pymatgen
data_CaV2P3HO12
_symmetry_space_group_name_H-M   'P 1'
_cell_length_a   6.47966600
_cell_length_b   20.31129300
_cell_length_c   9.08745921
_cell_angle_alpha   90.00000000
_cell_angle_beta   134.08240678
_cell_angle_gamma   90.00000000
_symmetry_Int_Tables_number   1
_chemical_formula_structural   CaV2P3HO12
_chemical_formula_sum   'Ca4 V8 P12 H4 O48'
_cell_volume   859.13752120
_cell_formula_units_Z   4
loop_
 _symmetry_equiv_pos_site_id
 _symmetry_equiv_pos_as_xyz
  1  'x, y, z'
loop_
 _atom_site_type_symbol
 _atom_site_label
 _atom_site_symmetry_multiplicity
 _atom_site_fract_x
 _atom_site_fract_y
 _atom_site_fract_z
 _atom_site_occupancy
  Ca  Ca0  1  0.79469100  0.07914700  0.94064400  1
  Ca  Ca1  1  0.79469100  0.42085300  0.44064400  1
  Ca  Ca2  1  0.20530900  0.92085300  0.05935600  1
  Ca  Ca3  1  0.20530900  0.57914700  0.55935600  1
  V  V4  1  0.67252500  0.09695300  0.26761100  1
  V  V5  1  0.67252500  0.40304700  0.76761100  1
  V  V6  1  0.32747500  0.90304700  0.73238900  1
  V  V7  1  0.32747500  0.59695300  0.23238900  1
  V  V8  1  0.34898700  0.21071600  0.91386900  1
  V  V9  1  0.34898700  0.28928400  0.41386900  1
  V  V10  1  0.65101300  0.78928400  0.08613100  1
  V  V11  1  0.65101300  0.71071600  0.58613100  1
  P  P12  1  0.29879400  0.12185400  0.38288800  1
  P  P13  1  0.29879400  0.37814600  0.88288800  1
  P  P14  1  0.70120600  0.87814600  0.61711200  1
  P  P15  1  0.70120600  0.62185400  0.11711200  1
  P  P16  1  0.85767200  0.25202100  0.41920800  1
  P  P17  1  0.85767200  0.24797900  0.91920800  1
  P  P18  1  0.14232800  0.74797900  0.58079200  1
  P  P19  1  0.14232800  0.75202100  0.08079200  1
  P  P20  1  0.16357400  0.05049000  0.78151200  1
  P  P21  1  0.16357400  0.44951000  0.28151200  1
  P  P22  1  0.83642600  0.94951000  0.21848800  1
  P  P23  1  0.83642600  0.55049000  0.71848800  1
  H  H24  1  0.65895800  0.05629600  0.59302200  1
  H  H25  1  0.65895800  0.44370400  0.09302200  1
  H  H26  1  0.34104200  0.94370400  0.40697800  1
  H  H27  1  0.34104200  0.55629600  0.90697800  1
  O  O28  1  0.98982300  0.10585700  0.27622900  1
  O  O29  1  0.98982300  0.39414300  0.77622900  1
  O  O30  1  0.01017700  0.89414300  0.72377100  1
  O  O31  1  0.01017700  0.60585700  0.22377100  1
  O  O32  1  0.49805100  0.07258500  0.57579200  1
  O  O33  1  0.49805100  0.42741500  0.07579200  1
  O  O34  1  0.50194900  0.92741500  0.42420800  1
  O  O35  1  0.50194900  0.57258500  0.92420800  1
  O  O36  1  0.32130200  0.10007700  0.23069200  1
  O  O37  1  0.32130200  0.39992300  0.73069200  1
  O  O38  1  0.67869800  0.89992300  0.76930800  1
  O  O39  1  0.67869800  0.60007700  0.26930800  1
  O  O40  1  0.39159200  0.19126600  0.45845700  1
  O  O41  1  0.39159200  0.30873400  0.95845700  1
  O  O42  1  0.60840800  0.80873400  0.54154300  1
  O  O43  1  0.60840800  0.69126600  0.04154300  1
  O  O44  1  0.65043400  0.20008800  0.23888900  1
  O  O45  1  0.65043400  0.29991200  0.73888900  1
  O  O46  1  0.34956600  0.79991200  0.76111100  1
  O  O47  1  0.34956600  0.70008800  0.26111100  1
  O  O48  1  0.07528600  0.21134200  0.61419400  1
  O  O49  1  0.07528600  0.28865800  0.11419400  1
  O  O50  1  0.92471400  0.78865800  0.38580600  1
  O  O51  1  0.92471400  0.71134200  0.88580600  1
  O  O52  1  0.01225800  0.29713800  0.38438800  1
  O  O53  1  0.01225800  0.20286200  0.88438800  1
  O  O54  1  0.98774200  0.70286200  0.61561200  1
  O  O55  1  0.98774200  0.79713800  0.11561200  1
  O  O56  1  0.67614100  0.29895000  0.42719400  1
  O  O57  1  0.67614100  0.20105000  0.92719400  1
  O  O58  1  0.32385900  0.70105000  0.57280600  1
  O  O59  1  0.32385900  0.79895000  0.07280600  1
  O  O60  1  0.91639500  0.07972400  0.56870200  1
  O  O61  1  0.91639500  0.42027600  0.06870200  1
  O  O62  1  0.08360500  0.92027600  0.43129800  1
  O  O63  1  0.08360500  0.57972400  0.93129800  1
  O  O64  1  0.39254100  0.10585600  0.93666600  1
  O  O65  1  0.39254100  0.39414400  0.43666600  1
  O  O66  1  0.60745900  0.89414400  0.06333400  1
  O  O67  1  0.60745900  0.60585600  0.56333400  1
  O  O68  1  0.04021900  0.02184900  0.86428800  1
  O  O69  1  0.04021900  0.47815100  0.36428800  1
  O  O70  1  0.95978100  0.97815100  0.13571200  1
  O  O71  1  0.95978100  0.52184900  0.63571200  1
  O  O72  1  0.34389500  0.00119700  0.77818600  1
  O  O73  1  0.34389500  0.49880300  0.27818600  1
  O  O74  1  0.65610500  0.99880300  0.22181400  1
  O  O75  1  0.65610500  0.50119700  0.72181400  1
