# generated using pymatgen
data_Cd(BO2)2
_symmetry_space_group_name_H-M   'P 1'
_cell_length_a   11.66169281
_cell_length_b   11.66169281
_cell_length_c   11.82344803
_cell_angle_alpha   90.00000000
_cell_angle_beta   90.00000000
_cell_angle_gamma   120.00000000
_symmetry_Int_Tables_number   1
_chemical_formula_structural   Cd(BO2)2
_chemical_formula_sum   'Cd18 B36 O72'
_cell_volume   1392.50887919
_cell_formula_units_Z   18
loop_
 _symmetry_equiv_pos_site_id
 _symmetry_equiv_pos_as_xyz
  1  'x, y, z'
loop_
 _atom_site_type_symbol
 _atom_site_label
 _atom_site_symmetry_multiplicity
 _atom_site_fract_x
 _atom_site_fract_y
 _atom_site_fract_z
 _atom_site_occupancy
  Cd  Cd0  1  0.68812367  0.67291433  0.50349833  1
  Cd  Cd1  1  0.66041900  0.97854300  0.67016500  1
  Cd  Cd2  1  0.02145700  0.68187600  0.67016500  1
  Cd  Cd3  1  0.98479067  0.31187633  0.50349833  1
  Cd  Cd4  1  0.32708567  0.01520933  0.50349833  1
  Cd  Cd5  1  0.31812400  0.33958100  0.67016500  1
  Cd  Cd6  1  0.35479033  0.00624767  0.83683167  1
  Cd  Cd7  1  0.32708567  0.31187633  0.00349833  1
  Cd  Cd8  1  0.68812367  0.01520933  0.00349833  1
  Cd  Cd9  1  0.65145733  0.64520967  0.83683167  1
  Cd  Cd10  1  0.99375233  0.34854267  0.83683167  1
  Cd  Cd11  1  0.98479067  0.67291433  0.00349833  1
  Cd  Cd12  1  0.02145700  0.33958100  0.17016500  1
  Cd  Cd13  1  0.99375233  0.64520967  0.33683167  1
  Cd  Cd14  1  0.35479033  0.34854267  0.33683167  1
  Cd  Cd15  1  0.31812400  0.97854300  0.17016500  1
  Cd  Cd16  1  0.66041900  0.68187600  0.17016500  1
  Cd  Cd17  1  0.65145733  0.00624767  0.33683167  1
  B  B18  1  0.71216933  0.47324567  0.29128067  1
  B  B19  1  0.86760000  0.89029400  0.69720600  1
  B  B20  1  0.86008767  0.95449733  0.45794733  1
  B  B21  1  0.86760000  0.97730600  0.19720600  1
  B  B22  1  0.02269400  0.89029400  0.19720600  1
  B  B23  1  0.04550267  0.90559033  0.45794733  1
  B  B24  1  0.76107633  0.28783067  0.29128067  1
  B  B25  1  0.10970600  0.97730600  0.69720600  1
  B  B26  1  0.02269400  0.13240000  0.69720600  1
  B  B27  1  0.09440967  0.13991233  0.45794733  1
  B  B28  1  0.10970600  0.13240000  0.19720600  1
  B  B29  1  0.52675433  0.23892367  0.29128067  1
  B  B30  1  0.37883600  0.80657900  0.62461400  1
  B  B31  1  0.53426667  0.22362733  0.03053933  1
  B  B32  1  0.52675433  0.28783067  0.79128067  1
  B  B33  1  0.53426667  0.31063933  0.53053933  1
  B  B34  1  0.68936067  0.22362733  0.53053933  1
  B  B35  1  0.71216933  0.23892367  0.79128067  1
  B  B36  1  0.42774300  0.62116400  0.62461400  1
  B  B37  1  0.77637267  0.31063933  0.03053933  1
  B  B38  1  0.68936067  0.46573333  0.03053933  1
  B  B39  1  0.76107633  0.47324567  0.79128067  1
  B  B40  1  0.77637267  0.46573333  0.53053933  1
  B  B41  1  0.19342100  0.57225700  0.62461400  1
  B  B42  1  0.04550267  0.13991233  0.95794733  1
  B  B43  1  0.20093333  0.55696067  0.36387267  1
  B  B44  1  0.19342100  0.62116400  0.12461400  1
  B  B45  1  0.20093333  0.64397267  0.86387267  1
  B  B46  1  0.35602733  0.55696067  0.86387267  1
  B  B47  1  0.37883600  0.57225700  0.12461400  1
  B  B48  1  0.09440967  0.95449733  0.95794733  1
  B  B49  1  0.44303933  0.64397267  0.36387267  1
  B  B50  1  0.35602733  0.79906667  0.36387267  1
  B  B51  1  0.42774300  0.80657900  0.12461400  1
  B  B52  1  0.44303933  0.79906667  0.86387267  1
  B  B53  1  0.86008767  0.90559033  0.95794733  1
  O  O54  1  0.46784233  0.75669467  0.62406067  1
  O  O55  1  0.76336333  0.60340867  0.29369867  1
  O  O56  1  0.87450700  0.59100200  0.52323800  1
  O  O57  1  0.74233133  0.79215967  0.68990467  1
  O  O58  1  0.72992467  0.90330333  0.46036533  1
  O  O59  1  0.89344500  0.87231700  0.19766700  1
  O  O60  1  0.90997200  0.86549100  0.45739400  1
  O  O61  1  0.71649500  0.12549300  0.52323800  1
  O  O62  1  0.97887200  0.87231700  0.69766700  1
  O  O63  1  0.09669667  0.82662133  0.46036533  1
  O  O64  1  0.89344500  0.02112800  0.69766700  1
  O  O65  1  0.24330533  0.71114767  0.62406067  1
  O  O66  1  0.95551900  0.09002800  0.45739400  1
  O  O67  1  0.97887200  0.10655500  0.19766700  1
  O  O68  1  0.84004533  0.23663667  0.29369867  1
  O  O69  1  0.12768300  0.02112800  0.19766700  1
  O  O70  1  0.20784033  0.95017167  0.68990467  1
  O  O71  1  0.13450900  0.04448100  0.45739400  1
  O  O72  1  0.12768300  0.10655500  0.69766700  1
  O  O73  1  0.04982833  0.25766867  0.68990467  1
  O  O74  1  0.17337867  0.27007533  0.46036533  1
  O  O75  1  0.39659133  0.15995467  0.29369867  1
  O  O76  1  0.40899800  0.28350500  0.52323800  1
  O  O77  1  0.28885233  0.53215767  0.62406067  1
  O  O78  1  0.13450900  0.09002800  0.95739400  1
  O  O79  1  0.43003000  0.93674200  0.62703200  1
  O  O80  1  0.54117367  0.92433533  0.85657133  1
  O  O81  1  0.40899800  0.12549300  0.02323800  1
  O  O82  1  0.39659133  0.23663667  0.79369867  1
  O  O83  1  0.56011167  0.20565033  0.53100033  1
  O  O84  1  0.57663867  0.19882433  0.79072733  1
  O  O85  1  0.38316167  0.45882633  0.85657133  1
  O  O86  1  0.64553867  0.20565033  0.03100033  1
  O  O87  1  0.76336333  0.15995467  0.79369867  1
  O  O88  1  0.56011167  0.35446133  0.03100033  1
  O  O89  1  0.90997200  0.04448100  0.95739400  1
  O  O90  1  0.62218567  0.42336133  0.79072733  1
  O  O91  1  0.64553867  0.43988833  0.53100033  1
  O  O92  1  0.50671200  0.56997000  0.62703200  1
  O  O93  1  0.79434967  0.35446133  0.53100033  1
  O  O94  1  0.87450700  0.28350500  0.02323800  1
  O  O95  1  0.80117567  0.37781433  0.79072733  1
  O  O96  1  0.79434967  0.43988833  0.03100033  1
  O  O97  1  0.71649500  0.59100200  0.02323800  1
  O  O98  1  0.84004533  0.60340867  0.79369867  1
  O  O99  1  0.06325800  0.49328800  0.62703200  1
  O  O100  1  0.07566467  0.61683833  0.85657133  1
  O  O101  1  0.95551900  0.86549100  0.95739400  1
  O  O102  1  0.80117567  0.42336133  0.29072733  1
  O  O103  1  0.09669667  0.27007533  0.96036533  1
  O  O104  1  0.20784033  0.25766867  0.18990467  1
  O  O105  1  0.07566467  0.45882633  0.35657133  1
  O  O106  1  0.06325800  0.56997000  0.12703200  1
  O  O107  1  0.22677833  0.53898367  0.86433367  1
  O  O108  1  0.24330533  0.53215767  0.12406067  1
  O  O109  1  0.04982833  0.79215967  0.18990467  1
  O  O110  1  0.31220533  0.53898367  0.36433367  1
  O  O111  1  0.43003000  0.49328800  0.12703200  1
  O  O112  1  0.22677833  0.68779467  0.36433367  1
  O  O113  1  0.57663867  0.37781433  0.29072733  1
  O  O114  1  0.28885233  0.75669467  0.12406067  1
  O  O115  1  0.31220533  0.77322167  0.86433367  1
  O  O116  1  0.17337867  0.90330333  0.96036533  1
  O  O117  1  0.46101633  0.68779467  0.86433367  1
  O  O118  1  0.54117367  0.61683833  0.35657133  1
  O  O119  1  0.46784233  0.71114767  0.12406067  1
  O  O120  1  0.46101633  0.77322167  0.36433367  1
  O  O121  1  0.38316167  0.92433533  0.35657133  1
  O  O122  1  0.50671200  0.93674200  0.12703200  1
  O  O123  1  0.72992467  0.82662133  0.96036533  1
  O  O124  1  0.74233133  0.95017167  0.18990467  1
  O  O125  1  0.62218567  0.19882433  0.29072733  1
