# generated using pymatgen
data_CdH24C4(BrN2)6
_symmetry_space_group_name_H-M   'P 1'
_cell_length_a   8.36206000
_cell_length_b   19.70182700
_cell_length_c   15.56711217
_cell_angle_alpha   90.00000000
_cell_angle_beta   108.36656753
_cell_angle_gamma   90.00000000
_symmetry_Int_Tables_number   1
_chemical_formula_structural   CdH24C4(BrN2)6
_chemical_formula_sum   'Cd4 H96 C16 Br24 N48'
_cell_volume   2434.00530475
_cell_formula_units_Z   4
loop_
 _symmetry_equiv_pos_site_id
 _symmetry_equiv_pos_as_xyz
  1  'x, y, z'
loop_
 _atom_site_type_symbol
 _atom_site_label
 _atom_site_symmetry_multiplicity
 _atom_site_fract_x
 _atom_site_fract_y
 _atom_site_fract_z
 _atom_site_occupancy
  Cd  Cd0  1  0.78851500  0.11531100  0.73392100  1
  Cd  Cd1  1  0.21148500  0.61531100  0.76607900  1
  Cd  Cd2  1  0.21148500  0.88468900  0.26607900  1
  Cd  Cd3  1  0.78851500  0.38468900  0.23392100  1
  H  H4  1  0.70396300  0.81149400  0.53815900  1
  H  H5  1  0.29603700  0.31149400  0.96184100  1
  H  H6  1  0.29603700  0.18850600  0.46184100  1
  H  H7  1  0.70396300  0.68850600  0.03815900  1
  H  H8  1  0.86738500  0.76852000  0.62048300  1
  H  H9  1  0.13261500  0.26852000  0.87951700  1
  H  H10  1  0.13261500  0.23148000  0.37951700  1
  H  H11  1  0.86738500  0.73148000  0.12048300  1
  H  H12  1  0.79606600  0.71386100  0.74176400  1
  H  H13  1  0.20393400  0.21386100  0.75823600  1
  H  H14  1  0.20393400  0.28613900  0.25823600  1
  H  H15  1  0.79606600  0.78613900  0.24176400  1
  H  H16  1  0.58594800  0.69373600  0.72272500  1
  H  H17  1  0.41405200  0.19373600  0.77727500  1
  H  H18  1  0.41405200  0.30626400  0.27727500  1
  H  H19  1  0.58594800  0.80626400  0.22272500  1
  H  H20  1  0.37456200  0.76318000  0.61936100  1
  H  H21  1  0.62543800  0.26318000  0.88063900  1
  H  H22  1  0.62543800  0.23682000  0.38063900  1
  H  H23  1  0.37456200  0.73682000  0.11936100  1
  H  H24  1  0.43309200  0.80237900  0.53257300  1
  H  H25  1  0.56690800  0.30237900  0.96742700  1
  H  H26  1  0.56690800  0.19762100  0.46742700  1
  H  H27  1  0.43309200  0.69762100  0.03257300  1
  H  H28  1  0.65232800  0.95182400  0.31146300  1
  H  H29  1  0.34767200  0.45182400  0.18853700  1
  H  H30  1  0.34767200  0.04817600  0.68853700  1
  H  H31  1  0.65232800  0.54817600  0.81146300  1
  H  H32  1  0.81634000  0.97701400  0.27283000  1
  H  H33  1  0.18366000  0.47701400  0.22717000  1
  H  H34  1  0.18366000  0.02298600  0.72717000  1
  H  H35  1  0.81634000  0.52298600  0.77283000  1
  H  H36  1  0.03190500  0.05037300  0.37144500  1
  H  H37  1  0.96809500  0.55037300  0.12855500  1
  H  H38  1  0.96809500  0.94962700  0.62855500  1
  H  H39  1  0.03190500  0.44962700  0.87144500  1
  H  H40  1  0.98284500  0.08934400  0.46095500  1
  H  H41  1  0.01715500  0.58934400  0.03904500  1
  H  H42  1  0.01715500  0.91065600  0.53904500  1
  H  H43  1  0.98284500  0.41065600  0.96095500  1
  H  H44  1  0.60206300  0.00614300  0.43438400  1
  H  H45  1  0.39793700  0.50614300  0.06561600  1
  H  H46  1  0.39793700  0.99385700  0.56561600  1
  H  H47  1  0.60206300  0.49385700  0.93438400  1
  H  H48  1  0.76102500  0.05892200  0.50297900  1
  H  H49  1  0.23897500  0.55892200  0.99702100  1
  H  H50  1  0.23897500  0.94107800  0.49702100  1
  H  H51  1  0.76102500  0.44107800  0.00297900  1
  H  H52  1  0.89816600  0.93945400  0.99031800  1
  H  H53  1  0.10183400  0.43945400  0.50968200  1
  H  H54  1  0.10183400  0.06054600  0.00968200  1
  H  H55  1  0.89816600  0.56054600  0.49031800  1
  H  H56  1  0.91479400  0.97212400  0.88822500  1
  H  H57  1  0.08520600  0.47212400  0.61177500  1
  H  H58  1  0.08520600  0.02787600  0.11177500  1
  H  H59  1  0.91479400  0.52787600  0.38822500  1
  H  H60  1  0.02097200  0.81718200  0.80832500  1
  H  H61  1  0.97902800  0.31718200  0.69167500  1
  H  H62  1  0.97902800  0.18281800  0.19167500  1
  H  H63  1  0.02097200  0.68281800  0.30832500  1
  H  H64  1  0.90248500  0.89123700  0.77351500  1
  H  H65  1  0.09751500  0.39123700  0.72648500  1
  H  H66  1  0.09751500  0.10876300  0.22648500  1
  H  H67  1  0.90248500  0.60876300  0.27351500  1
  H  H68  1  0.02485000  0.83147300  0.03763400  1
  H  H69  1  0.97515000  0.33147300  0.46236600  1
  H  H70  1  0.97515000  0.16852700  0.96236600  1
  H  H71  1  0.02485000  0.66852700  0.53763400  1
  H  H72  1  0.01090100  0.77171800  0.95136900  1
  H  H73  1  0.98909900  0.27171800  0.54863100  1
  H  H74  1  0.98909900  0.22828200  0.04863100  1
  H  H75  1  0.01090100  0.72828200  0.45136900  1
  H  H76  1  0.60226100  0.16674800  0.01344300  1
  H  H77  1  0.39773900  0.66674800  0.48655700  1
  H  H78  1  0.39773900  0.83325200  0.98655700  1
  H  H79  1  0.60226100  0.33325200  0.51344300  1
  H  H80  1  0.60117600  0.21740800  0.10568700  1
  H  H81  1  0.39882400  0.71740800  0.39431300  1
  H  H82  1  0.39882400  0.78259200  0.89431300  1
  H  H83  1  0.60117600  0.28259200  0.60568700  1
  H  H84  1  0.52208100  0.16952200  0.22159100  1
  H  H85  1  0.47791900  0.66952200  0.27840900  1
  H  H86  1  0.47791900  0.83047800  0.77840900  1
  H  H87  1  0.52208100  0.33047800  0.72159100  1
  H  H88  1  0.49924900  0.08237100  0.23132400  1
  H  H89  1  0.50075100  0.58237100  0.26867600  1
  H  H90  1  0.50075100  0.91762900  0.76867600  1
  H  H91  1  0.49924900  0.41762900  0.73132400  1
  H  H92  1  0.58830100  0.05199200  0.02246300  1
  H  H93  1  0.41169900  0.55199200  0.47753700  1
  H  H94  1  0.41169900  0.94800800  0.97753700  1
  H  H95  1  0.58830100  0.44800800  0.52246300  1
  H  H96  1  0.50997900  0.01266600  0.10354800  1
  H  H97  1  0.49002100  0.51266600  0.39645200  1
  H  H98  1  0.49002100  0.98733400  0.89645200  1
  H  H99  1  0.50997900  0.48733400  0.60354800  1
  C  C100  1  0.62836900  0.75995300  0.63184100  1
  C  C101  1  0.37163100  0.25995300  0.86815900  1
  C  C102  1  0.37163100  0.24004700  0.36815900  1
  C  C103  1  0.62836900  0.74004700  0.13184100  1
  C  C104  1  0.80282900  0.02477900  0.38810400  1
  C  C105  1  0.19717100  0.52477900  0.11189600  1
  C  C106  1  0.19717100  0.97522100  0.61189600  1
  C  C107  1  0.80282900  0.47522100  0.88810400  1
  C  C108  1  0.95678000  0.86959700  0.90812300  1
  C  C109  1  0.04322000  0.36959700  0.59187700  1
  C  C110  1  0.04322000  0.13040300  0.09187700  1
  C  C111  1  0.95678000  0.63040300  0.40812300  1
  C  C112  1  0.55005000  0.11603400  0.11611200  1
  C  C113  1  0.44995000  0.61603400  0.38388800  1
  C  C114  1  0.44995000  0.88396600  0.88388800  1
  C  C115  1  0.55005000  0.38396600  0.61611200  1
  Br  Br116  1  0.83574600  0.25211900  0.79884900  1
  Br  Br117  1  0.16425400  0.75211900  0.70115100  1
  Br  Br118  1  0.16425400  0.74788100  0.20115100  1
  Br  Br119  1  0.83574600  0.24788100  0.29884900  1
  Br  Br120  1  0.72492500  0.97764100  0.67487400  1
  Br  Br121  1  0.27507500  0.47764100  0.82512600  1
  Br  Br122  1  0.27507500  0.02235900  0.32512600  1
  Br  Br123  1  0.72492500  0.52235900  0.17487400  1
  Br  Br124  1  0.62746900  0.09106100  0.87244600  1
  Br  Br125  1  0.37253100  0.59106100  0.62755400  1
  Br  Br126  1  0.37253100  0.90893900  0.12755400  1
  Br  Br127  1  0.62746900  0.40893900  0.37244600  1
  Br  Br128  1  0.93616200  0.15578900  0.59818300  1
  Br  Br129  1  0.06383800  0.65578900  0.90181700  1
  Br  Br130  1  0.06383800  0.84421100  0.40181700  1
  Br  Br131  1  0.93616200  0.34421100  0.09818300  1
  Br  Br132  1  0.09430100  0.07645500  0.85135400  1
  Br  Br133  1  0.90569900  0.57645500  0.64864600  1
  Br  Br134  1  0.90569900  0.92354500  0.14864600  1
  Br  Br135  1  0.09430100  0.42354500  0.35135400  1
  Br  Br136  1  0.47191100  0.14801900  0.61428700  1
  Br  Br137  1  0.52808900  0.64801900  0.88571300  1
  Br  Br138  1  0.52808900  0.85198100  0.38571300  1
  Br  Br139  1  0.47191100  0.35198100  0.11428700  1
  N  N140  1  0.74423100  0.78416600  0.59709700  1
  N  N141  1  0.25576900  0.28416600  0.90290300  1
  N  N142  1  0.25576900  0.21583400  0.40290300  1
  N  N143  1  0.74423100  0.71583400  0.09709700  1
  N  N144  1  0.67286200  0.72526800  0.70995100  1
  N  N145  1  0.32713800  0.22526800  0.79004900  1
  N  N146  1  0.32713800  0.27473200  0.29004900  1
  N  N147  1  0.67286200  0.77473200  0.20995100  1
  N  N148  1  0.46487800  0.77268300  0.58900200  1
  N  N149  1  0.53512200  0.27268300  0.91099800  1
  N  N150  1  0.53512200  0.22731700  0.41099800  1
  N  N151  1  0.46487800  0.72731700  0.08900200  1
  N  N152  1  0.74340700  0.98678900  0.31318300  1
  N  N153  1  0.25659300  0.48678900  0.18681700  1
  N  N154  1  0.25659300  0.01321100  0.68681700  1
  N  N155  1  0.74340700  0.51321100  0.81318300  1
  N  N156  1  0.94413500  0.06150000  0.40277200  1
  N  N157  1  0.05586500  0.56150000  0.09722800  1
  N  N158  1  0.05586500  0.93850000  0.59722800  1
  N  N159  1  0.94413500  0.43850000  0.90277200  1
  N  N160  1  0.71661600  0.02878000  0.44717900  1
  N  N161  1  0.28338400  0.52878000  0.05282100  1
  N  N162  1  0.28338400  0.97122000  0.55282100  1
  N  N163  1  0.71661600  0.47122000  0.94717900  1
  N  N164  1  0.91260700  0.93136100  0.92838600  1
  N  N165  1  0.08739300  0.43136100  0.57161400  1
  N  N166  1  0.08739300  0.06863900  0.07161400  1
  N  N167  1  0.91260700  0.56863900  0.42838600  1
  N  N168  1  0.95726300  0.85705100  0.82358200  1
  N  N169  1  0.04273700  0.35705100  0.67641800  1
  N  N170  1  0.04273700  0.14294900  0.17641800  1
  N  N171  1  0.95726300  0.64294900  0.32358200  1
  N  N172  1  0.99549500  0.82034300  0.97048400  1
  N  N173  1  0.00450500  0.32034300  0.52951600  1
  N  N174  1  0.00450500  0.17965700  0.02951600  1
  N  N175  1  0.99549500  0.67965700  0.47048400  1
  N  N176  1  0.58271100  0.17132500  0.07459500  1
  N  N177  1  0.41728900  0.67132500  0.42540500  1
  N  N178  1  0.41728900  0.82867500  0.92540500  1
  N  N179  1  0.58271100  0.32867500  0.57459500  1
  N  N180  1  0.51806800  0.12262500  0.19467400  1
  N  N181  1  0.48193200  0.62262500  0.30532600  1
  N  N182  1  0.48193200  0.87737500  0.80532600  1
  N  N183  1  0.51806800  0.37737500  0.69467400  1
  N  N184  1  0.54848900  0.05533700  0.07792100  1
  N  N185  1  0.45151100  0.55533700  0.42207900  1
  N  N186  1  0.45151100  0.94466300  0.92207900  1
  N  N187  1  0.54848900  0.44466300  0.57792100  1
