# generated using pymatgen
data_BaTm2F8
_symmetry_space_group_name_H-M   'P 1'
_cell_length_a   6.96235000
_cell_length_b   10.50549000
_cell_length_c   4.27151866
_cell_angle_alpha   90.00000000
_cell_angle_beta   98.97167545
_cell_angle_gamma   90.00000000
_symmetry_Int_Tables_number   1
_chemical_formula_structural   BaTm2F8
_chemical_formula_sum   'Ba2 Tm4 F16'
_cell_volume   308.60883194
_cell_formula_units_Z   2
loop_
 _symmetry_equiv_pos_site_id
 _symmetry_equiv_pos_as_xyz
  1  'x, y, z'
loop_
 _atom_site_type_symbol
 _atom_site_label
 _atom_site_symmetry_multiplicity
 _atom_site_fract_x
 _atom_site_fract_y
 _atom_site_fract_z
 _atom_site_occupancy
  Ba  Ba0  1  0.00000000  0.00000000  0.00000000  1
  Ba  Ba1  1  0.50000000  0.50000000  0.00000000  1
  Tm  Tm2  1  0.50000000  0.17552400  0.50000000  1
  Tm  Tm3  1  0.50000000  0.82447600  0.50000000  1
  Tm  Tm4  1  0.00000000  0.67552400  0.50000000  1
  Tm  Tm5  1  0.00000000  0.32447600  0.50000000  1
  F  F6  1  0.50000000  0.76345000  0.00000000  1
  F  F7  1  0.50000000  0.23655000  0.00000000  1
  F  F8  1  0.39504400  0.00000000  0.23001200  1
  F  F9  1  0.81267450  0.14197150  0.43959400  1
  F  F10  1  0.18732550  0.14197150  0.56040600  1
  F  F11  1  0.18732550  0.85802850  0.56040600  1
  F  F12  1  0.81267450  0.85802850  0.43959400  1
  F  F13  1  0.60495600  0.00000000  0.76998800  1
  F  F14  1  0.00000000  0.26345000  0.00000000  1
  F  F15  1  0.00000000  0.73655000  0.00000000  1
  F  F16  1  0.89504400  0.50000000  0.23001200  1
  F  F17  1  0.31267450  0.64197150  0.43959400  1
  F  F18  1  0.68732550  0.64197150  0.56040600  1
  F  F19  1  0.68732550  0.35802850  0.56040600  1
  F  F20  1  0.31267450  0.35802850  0.43959400  1
  F  F21  1  0.10495600  0.50000000  0.76998800  1
