# generated using pymatgen
data_KLiMnO2
_symmetry_space_group_name_H-M   'P 1'
_cell_length_a   8.98777800
_cell_length_b   9.16636500
_cell_length_c   6.93531700
_cell_angle_alpha   90.00000000
_cell_angle_beta   90.00000000
_cell_angle_gamma   90.00000000
_symmetry_Int_Tables_number   1
_chemical_formula_structural   KLiMnO2
_chemical_formula_sum   'K8 Li8 Mn8 O16'
_cell_volume   571.36785045
_cell_formula_units_Z   8
loop_
 _symmetry_equiv_pos_site_id
 _symmetry_equiv_pos_as_xyz
  1  'x, y, z'
loop_
 _atom_site_type_symbol
 _atom_site_label
 _atom_site_symmetry_multiplicity
 _atom_site_fract_x
 _atom_site_fract_y
 _atom_site_fract_z
 _atom_site_occupancy
  K  K0  1  0.75000000  0.25000000  0.00000000  1
  K  K1  1  0.75000000  0.75000000  0.50000000  1
  K  K2  1  0.50000000  0.50000000  0.25000000  1
  K  K3  1  0.00000000  0.00000000  0.75000000  1
  K  K4  1  0.25000000  0.75000000  0.00000000  1
  K  K5  1  0.25000000  0.25000000  0.50000000  1
  K  K6  1  0.00000000  0.00000000  0.25000000  1
  K  K7  1  0.50000000  0.50000000  0.75000000  1
  Li  Li8  1  0.00000000  0.64018000  0.25000000  1
  Li  Li9  1  0.00000000  0.35982000  0.75000000  1
  Li  Li10  1  0.00000000  0.64018000  0.75000000  1
  Li  Li11  1  0.00000000  0.35982000  0.25000000  1
  Li  Li12  1  0.50000000  0.14018000  0.25000000  1
  Li  Li13  1  0.50000000  0.85982000  0.75000000  1
  Li  Li14  1  0.50000000  0.14018000  0.75000000  1
  Li  Li15  1  0.50000000  0.85982000  0.25000000  1
  Mn  Mn16  1  0.77454050  0.39222250  0.50000000  1
  Mn  Mn17  1  0.22545950  0.39222250  0.00000000  1
  Mn  Mn18  1  0.77454050  0.60777750  0.00000000  1
  Mn  Mn19  1  0.22545950  0.60777750  0.50000000  1
  Mn  Mn20  1  0.27454050  0.89222250  0.50000000  1
  Mn  Mn21  1  0.72545950  0.89222250  0.00000000  1
  Mn  Mn22  1  0.27454050  0.10777750  0.00000000  1
  Mn  Mn23  1  0.72545950  0.10777750  0.50000000  1
  O  O24  1  0.82225900  0.50000000  0.25000000  1
  O  O25  1  0.82225900  0.50000000  0.75000000  1
  O  O26  1  0.17774100  0.50000000  0.75000000  1
  O  O27  1  0.17774100  0.50000000  0.25000000  1
  O  O28  1  0.93248050  0.22705650  0.50000000  1
  O  O29  1  0.93248050  0.77294350  0.00000000  1
  O  O30  1  0.06751950  0.22705650  0.00000000  1
  O  O31  1  0.06751950  0.77294350  0.50000000  1
  O  O32  1  0.32225900  0.00000000  0.25000000  1
  O  O33  1  0.32225900  0.00000000  0.75000000  1
  O  O34  1  0.67774100  0.00000000  0.75000000  1
  O  O35  1  0.67774100  0.00000000  0.25000000  1
  O  O36  1  0.43248050  0.72705650  0.50000000  1
  O  O37  1  0.43248050  0.27294350  0.00000000  1
  O  O38  1  0.56751950  0.72705650  0.00000000  1
  O  O39  1  0.56751950  0.27294350  0.50000000  1
