# generated using pymatgen
data_ZnH18Ru2Br7N6
_symmetry_space_group_name_H-M   'P 1'
_cell_length_a   9.25010900
_cell_length_b   10.49522900
_cell_length_c   10.40312346
_cell_angle_alpha   90.00000000
_cell_angle_beta   96.09945024
_cell_angle_gamma   90.00000000
_symmetry_Int_Tables_number   1
_chemical_formula_structural   ZnH18Ru2Br7N6
_chemical_formula_sum   'Zn2 H36 Ru4 Br14 N12'
_cell_volume   1004.23876045
_cell_formula_units_Z   2
loop_
 _symmetry_equiv_pos_site_id
 _symmetry_equiv_pos_as_xyz
  1  'x, y, z'
loop_
 _atom_site_type_symbol
 _atom_site_label
 _atom_site_symmetry_multiplicity
 _atom_site_fract_x
 _atom_site_fract_y
 _atom_site_fract_z
 _atom_site_occupancy
  Zn  Zn0  1  0.73744600  0.75000000  0.50681300  1
  Zn  Zn1  1  0.26255400  0.25000000  0.49318700  1
  H  H2  1  0.41940300  0.13012500  0.14404600  1
  H  H3  1  0.58059700  0.63012500  0.85595400  1
  H  H4  1  0.58059700  0.86987500  0.85595400  1
  H  H5  1  0.41940300  0.36987500  0.14404600  1
  H  H6  1  0.54715700  0.01992200  0.14158000  1
  H  H7  1  0.45284300  0.51992200  0.85842000  1
  H  H8  1  0.45284300  0.98007800  0.85842000  1
  H  H9  1  0.54715700  0.48007800  0.14158000  1
  H  H10  1  0.53572900  0.10600000  0.27344000  1
  H  H11  1  0.46427100  0.60600000  0.72656000  1
  H  H12  1  0.46427100  0.89400000  0.72656000  1
  H  H13  1  0.53572900  0.39400000  0.27344000  1
  H  H14  1  0.80371900  0.17002500  0.34062100  1
  H  H15  1  0.19628100  0.67002500  0.65937900  1
  H  H16  1  0.19628100  0.82997500  0.65937900  1
  H  H17  1  0.80371900  0.32997500  0.34062100  1
  H  H18  1  0.91580400  0.25000000  0.25873800  1
  H  H19  1  0.08419600  0.75000000  0.74126200  1
  H  H20  1  0.06817000  0.25000000  0.77820700  1
  H  H21  1  0.93183000  0.75000000  0.22179300  1
  H  H22  1  0.07963400  0.17109800  0.91583000  1
  H  H23  1  0.92036600  0.67109800  0.08417000  1
  H  H24  1  0.92036600  0.82890200  0.08417000  1
  H  H25  1  0.07963400  0.32890200  0.91583000  1
  H  H26  1  0.90344000  0.08945900  0.69519400  1
  H  H27  1  0.09656000  0.58945900  0.30480600  1
  H  H28  1  0.09656000  0.91054100  0.30480600  1
  H  H29  1  0.90344000  0.41054100  0.69519400  1
  H  H30  1  0.75308700  0.02754900  0.73605100  1
  H  H31  1  0.24691300  0.52754900  0.26394900  1
  H  H32  1  0.24691300  0.97245100  0.26394900  1
  H  H33  1  0.75308700  0.47245100  0.73605100  1
  H  H34  1  0.74363500  0.14638000  0.63347800  1
  H  H35  1  0.25636500  0.64638000  0.36652200  1
  H  H36  1  0.25636500  0.85362000  0.36652200  1
  H  H37  1  0.74363500  0.35362000  0.63347800  1
  Ru  Ru38  1  0.66734800  0.25000000  0.10886400  1
  Ru  Ru39  1  0.33265200  0.75000000  0.89113600  1
  Ru  Ru40  1  0.80571300  0.25000000  0.86729500  1
  Ru  Ru41  1  0.19428700  0.75000000  0.13270500  1
  Br  Br42  1  0.52675800  0.25000000  0.88211000  1
  Br  Br43  1  0.47324200  0.75000000  0.11789000  1
  Br  Br44  1  0.82298900  0.42978100  0.03520500  1
  Br  Br45  1  0.17701100  0.92978100  0.96479500  1
  Br  Br46  1  0.17701100  0.57021900  0.96479500  1
  Br  Br47  1  0.82298900  0.07021900  0.03520500  1
  Br  Br48  1  0.47107500  0.75000000  0.50713000  1
  Br  Br49  1  0.52892500  0.25000000  0.49287000  1
  Br  Br50  1  0.81348300  0.75000000  0.74296700  1
  Br  Br51  1  0.18651700  0.25000000  0.25703300  1
  Br  Br52  1  0.82573700  0.93253200  0.39586300  1
  Br  Br53  1  0.17426300  0.43253200  0.60413700  1
  Br  Br54  1  0.17426300  0.06746800  0.60413700  1
  Br  Br55  1  0.82573700  0.56746800  0.39586300  1
  N  N56  1  0.52655300  0.10956700  0.17414600  1
  N  N57  1  0.47344700  0.60956700  0.82585400  1
  N  N58  1  0.47344700  0.89043300  0.82585400  1
  N  N59  1  0.52655300  0.39043300  0.17414600  1
  N  N60  1  0.81085000  0.25000000  0.28449600  1
  N  N61  1  0.18915000  0.75000000  0.71550400  1
  N  N62  1  0.03412900  0.25000000  0.86932000  1
  N  N63  1  0.96587100  0.75000000  0.13068000  1
  N  N64  1  0.80065400  0.11301700  0.71692500  1
  N  N65  1  0.19934600  0.61301700  0.28307500  1
  N  N66  1  0.19934600  0.88698300  0.28307500  1
  N  N67  1  0.80065400  0.38698300  0.71692500  1
