# generated using pymatgen
data_NaMgH4SO6F
_symmetry_space_group_name_H-M   'P 1'
_cell_length_a   5.75266200
_cell_length_b   7.26465700
_cell_length_c   7.27248068
_cell_angle_alpha   90.00000000
_cell_angle_beta   112.44569123
_cell_angle_gamma   90.00000000
_symmetry_Int_Tables_number   1
_chemical_formula_structural   NaMgH4SO6F
_chemical_formula_sum   'Na2 Mg2 H8 S2 O12 F2'
_cell_volume   280.90028351
_cell_formula_units_Z   2
loop_
 _symmetry_equiv_pos_site_id
 _symmetry_equiv_pos_as_xyz
  1  'x, y, z'
loop_
 _atom_site_type_symbol
 _atom_site_label
 _atom_site_symmetry_multiplicity
 _atom_site_fract_x
 _atom_site_fract_y
 _atom_site_fract_z
 _atom_site_occupancy
  Na  Na0  1  0.63538300  0.75000000  0.19898100  1
  Na  Na1  1  0.36461700  0.25000000  0.80101900  1
  Mg  Mg2  1  0.00000000  0.00000000  0.00000000  1
  Mg  Mg3  1  0.00000000  0.50000000  0.00000000  1
  H  H4  1  0.42879300  0.43165400  0.30127400  1
  H  H5  1  0.42879300  0.06834600  0.30127400  1
  H  H6  1  0.29462500  0.90460900  0.36661000  1
  H  H7  1  0.29462500  0.59539100  0.36661000  1
  H  H8  1  0.70537500  0.40460900  0.63339000  1
  H  H9  1  0.70537500  0.09539100  0.63339000  1
  H  H10  1  0.57120700  0.93165400  0.69872600  1
  H  H11  1  0.57120700  0.56834600  0.69872600  1
  S  S12  1  0.85457900  0.25000000  0.30899600  1
  S  S13  1  0.14542100  0.75000000  0.69100400  1
  O  O14  1  0.80300500  0.41725000  0.17877900  1
  O  O15  1  0.80300500  0.08275000  0.17877900  1
  O  O16  1  0.32837300  0.95459600  0.25317100  1
  O  O17  1  0.32837300  0.54540400  0.25317100  1
  O  O18  1  0.66391200  0.25000000  0.40806700  1
  O  O19  1  0.88936400  0.75000000  0.54069000  1
  O  O20  1  0.11063600  0.25000000  0.45931000  1
  O  O21  1  0.33608800  0.75000000  0.59193300  1
  O  O22  1  0.67162700  0.04540400  0.74682900  1
  O  O23  1  0.67162700  0.45459600  0.74682900  1
  O  O24  1  0.19699500  0.91725000  0.82122100  1
  O  O25  1  0.19699500  0.58275000  0.82122100  1
  F  F26  1  0.88223300  0.75000000  0.02122500  1
  F  F27  1  0.11776700  0.25000000  0.97877500  1
