# generated using pymatgen
data_Cr2Hg2H2O9
_symmetry_space_group_name_H-M   'P 1'
_cell_length_a   12.05714000
_cell_length_b   5.33026800
_cell_length_c   13.51529886
_cell_angle_alpha   90.00000000
_cell_angle_beta   108.88057316
_cell_angle_gamma   90.00000000
_symmetry_Int_Tables_number   1
_chemical_formula_structural   Cr2Hg2H2O9
_chemical_formula_sum   'Cr8 Hg8 H8 O36'
_cell_volume   821.86353618
_cell_formula_units_Z   4
loop_
 _symmetry_equiv_pos_site_id
 _symmetry_equiv_pos_as_xyz
  1  'x, y, z'
loop_
 _atom_site_type_symbol
 _atom_site_label
 _atom_site_symmetry_multiplicity
 _atom_site_fract_x
 _atom_site_fract_y
 _atom_site_fract_z
 _atom_site_occupancy
  Cr  Cr0  1  0.85105600  0.69018800  0.40172900  1
  Cr  Cr1  1  0.64894400  0.19018800  0.09827100  1
  Cr  Cr2  1  0.14894400  0.30981200  0.59827100  1
  Cr  Cr3  1  0.35105600  0.80981200  0.90172900  1
  Cr  Cr4  1  0.35105600  0.19018800  0.40172900  1
  Cr  Cr5  1  0.14894400  0.69018800  0.09827100  1
  Cr  Cr6  1  0.64894400  0.80981200  0.59827100  1
  Cr  Cr7  1  0.85105600  0.30981200  0.90172900  1
  Hg  Hg8  1  0.12387650  0.77804150  0.37535300  1
  Hg  Hg9  1  0.87612350  0.77804150  0.12464700  1
  Hg  Hg10  1  0.87612350  0.22195850  0.62464700  1
  Hg  Hg11  1  0.12387650  0.22195850  0.87535300  1
  Hg  Hg12  1  0.62387650  0.27804150  0.37535300  1
  Hg  Hg13  1  0.37612350  0.27804150  0.12464700  1
  Hg  Hg14  1  0.37612350  0.72195850  0.62464700  1
  Hg  Hg15  1  0.62387650  0.72195850  0.87535300  1
  H  H16  1  0.03530500  0.25885000  0.21134200  1
  H  H17  1  0.96469500  0.25885000  0.28865800  1
  H  H18  1  0.96469500  0.74115000  0.78865800  1
  H  H19  1  0.03530500  0.74115000  0.71134200  1
  H  H20  1  0.53530500  0.75885000  0.21134200  1
  H  H21  1  0.46469500  0.75885000  0.28865800  1
  H  H22  1  0.46469500  0.24115000  0.78865800  1
  H  H23  1  0.53530500  0.24115000  0.71134200  1
  O  O24  1  0.95054650  0.63956650  0.33479400  1
  O  O25  1  0.04945350  0.63956650  0.16520600  1
  O  O26  1  0.04945350  0.36043350  0.66520600  1
  O  O27  1  0.95054650  0.36043350  0.83479400  1
  O  O28  1  0.74524450  0.86692750  0.33224900  1
  O  O29  1  0.75475550  0.36692750  0.16775100  1
  O  O30  1  0.25475550  0.13307250  0.66775100  1
  O  O31  1  0.24524450  0.63307250  0.83224900  1
  O  O32  1  0.79873950  0.40301950  0.42651300  1
  O  O33  1  0.70126050  0.90301950  0.07348700  1
  O  O34  1  0.20126050  0.59698050  0.57348700  1
  O  O35  1  0.29873950  0.09698050  0.92651300  1
  O  O36  1  0.91501800  0.82314900  0.51334800  1
  O  O37  1  0.08498200  0.82314900  0.98665200  1
  O  O38  1  0.08498200  0.17685100  0.48665200  1
  O  O39  1  0.91501800  0.17685100  0.01334800  1
  O  O40  1  0.00000000  0.14537400  0.25000000  1
  O  O41  1  0.00000000  0.85462600  0.75000000  1
  O  O42  1  0.45054650  0.13956650  0.33479400  1
  O  O43  1  0.54945350  0.13956650  0.16520600  1
  O  O44  1  0.54945350  0.86043350  0.66520600  1
  O  O45  1  0.45054650  0.86043350  0.83479400  1
  O  O46  1  0.24524450  0.36692750  0.33224900  1
  O  O47  1  0.25475550  0.86692750  0.16775100  1
  O  O48  1  0.75475550  0.63307250  0.66775100  1
  O  O49  1  0.74524450  0.13307250  0.83224900  1
  O  O50  1  0.29873950  0.90301950  0.42651300  1
  O  O51  1  0.20126050  0.40301950  0.07348700  1
  O  O52  1  0.70126050  0.09698050  0.57348700  1
  O  O53  1  0.79873950  0.59698050  0.92651300  1
  O  O54  1  0.41501800  0.32314900  0.51334800  1
  O  O55  1  0.58498200  0.32314900  0.98665200  1
  O  O56  1  0.58498200  0.67685100  0.48665200  1
  O  O57  1  0.41501800  0.67685100  0.01334800  1
  O  O58  1  0.50000000  0.64537400  0.25000000  1
  O  O59  1  0.50000000  0.35462600  0.75000000  1
