# generated using pymatgen
data_Zr2N2O
_symmetry_space_group_name_H-M   'P 1'
_cell_length_a   9.66775000
_cell_length_b   5.56015400
_cell_length_c   14.79864744
_cell_angle_alpha   90.00000000
_cell_angle_beta   90.06119982
_cell_angle_gamma   90.00000000
_symmetry_Int_Tables_number   1
_chemical_formula_structural   Zr2N2O
_chemical_formula_sum   'Zr24 N24 O12'
_cell_volume   795.48868730
_cell_formula_units_Z   12
loop_
 _symmetry_equiv_pos_site_id
 _symmetry_equiv_pos_as_xyz
  1  'x, y, z'
loop_
 _atom_site_type_symbol
 _atom_site_label
 _atom_site_symmetry_multiplicity
 _atom_site_fract_x
 _atom_site_fract_y
 _atom_site_fract_z
 _atom_site_occupancy
  Zr  Zr0  1  0.99849350  0.00072850  0.35835600  1
  Zr  Zr1  1  0.99849350  0.99927150  0.85835600  1
  Zr  Zr2  1  0.67722450  0.99905450  0.19110300  1
  Zr  Zr3  1  0.67616200  0.99761900  0.47480900  1
  Zr  Zr4  1  0.67722450  0.00094550  0.69110300  1
  Zr  Zr5  1  0.67616200  0.00238100  0.97480900  1
  Zr  Zr6  1  0.82383800  0.49761900  0.02519100  1
  Zr  Zr7  1  0.82277550  0.49905450  0.30889700  1
  Zr  Zr8  1  0.82383800  0.50238100  0.52519100  1
  Zr  Zr9  1  0.82277550  0.50094550  0.80889700  1
  Zr  Zr10  1  0.50150650  0.50072850  0.14164400  1
  Zr  Zr11  1  0.50150650  0.49927150  0.64164400  1
  Zr  Zr12  1  0.49849350  0.50072850  0.35835600  1
  Zr  Zr13  1  0.49849350  0.49927150  0.85835600  1
  Zr  Zr14  1  0.17722450  0.49905450  0.19110300  1
  Zr  Zr15  1  0.17616200  0.49761900  0.47480900  1
  Zr  Zr16  1  0.17722450  0.50094550  0.69110300  1
  Zr  Zr17  1  0.17616200  0.50238100  0.97480900  1
  Zr  Zr18  1  0.32383800  0.99761900  0.02519100  1
  Zr  Zr19  1  0.32277550  0.99905450  0.30889700  1
  Zr  Zr20  1  0.32383800  0.00238100  0.52519100  1
  Zr  Zr21  1  0.32277550  0.00094550  0.80889700  1
  Zr  Zr22  1  0.00150650  0.00072850  0.14164400  1
  Zr  Zr23  1  0.00150650  0.99927150  0.64164400  1
  N  N24  1  0.64787300  0.64204600  0.24839200  1
  N  N25  1  0.64787300  0.35795400  0.74839200  1
  N  N26  1  0.66210550  0.29355850  0.08218200  1
  N  N27  1  0.66210550  0.70644150  0.58218200  1
  N  N28  1  0.68700600  0.34778200  0.41536400  1
  N  N29  1  0.68700600  0.65221800  0.91536400  1
  N  N30  1  0.81299400  0.84778200  0.08463600  1
  N  N31  1  0.81299400  0.15221800  0.58463600  1
  N  N32  1  0.83789450  0.79355850  0.41781800  1
  N  N33  1  0.83789450  0.20644150  0.91781800  1
  N  N34  1  0.85212700  0.14204600  0.25160800  1
  N  N35  1  0.85212700  0.85795400  0.75160800  1
  N  N36  1  0.14787300  0.14204600  0.24839200  1
  N  N37  1  0.14787300  0.85795400  0.74839200  1
  N  N38  1  0.16210550  0.79355850  0.08218200  1
  N  N39  1  0.16210550  0.20644150  0.58218200  1
  N  N40  1  0.18700600  0.84778200  0.41536400  1
  N  N41  1  0.18700600  0.15221800  0.91536400  1
  N  N42  1  0.31299400  0.34778200  0.08463600  1
  N  N43  1  0.31299400  0.65221800  0.58463600  1
  N  N44  1  0.33789450  0.29355850  0.41781800  1
  N  N45  1  0.33789450  0.70644150  0.91781800  1
  N  N46  1  0.35212700  0.64204600  0.25160800  1
  N  N47  1  0.35212700  0.35795400  0.75160800  1
  O  O48  1  0.51153500  0.84492700  0.08217700  1
  O  O49  1  0.51153500  0.15507300  0.58217700  1
  O  O50  1  0.98846500  0.34492700  0.41782300  1
  O  O51  1  0.98846500  0.65507300  0.91782300  1
  O  O52  1  0.00000000  0.68934700  0.25000000  1
  O  O53  1  0.00000000  0.31065300  0.75000000  1
  O  O54  1  0.01153500  0.34492700  0.08217700  1
  O  O55  1  0.01153500  0.65507300  0.58217700  1
  O  O56  1  0.48846500  0.84492700  0.41782300  1
  O  O57  1  0.48846500  0.15507300  0.91782300  1
  O  O58  1  0.50000000  0.18934700  0.25000000  1
  O  O59  1  0.50000000  0.81065300  0.75000000  1
