# generated using pymatgen
data_Li2Cr5B3O13
_symmetry_space_group_name_H-M   'P 1'
_cell_length_a   9.51532500
_cell_length_b   3.10342000
_cell_length_c   15.83720182
_cell_angle_alpha   90.00000000
_cell_angle_beta   105.68831718
_cell_angle_gamma   90.00000000
_symmetry_Int_Tables_number   1
_chemical_formula_structural   Li2Cr5B3O13
_chemical_formula_sum   'Li4 Cr10 B6 O26'
_cell_volume   450.25107902
_cell_formula_units_Z   2
loop_
 _symmetry_equiv_pos_site_id
 _symmetry_equiv_pos_as_xyz
  1  'x, y, z'
loop_
 _atom_site_type_symbol
 _atom_site_label
 _atom_site_symmetry_multiplicity
 _atom_site_fract_x
 _atom_site_fract_y
 _atom_site_fract_z
 _atom_site_occupancy
  Li  Li0  1  0.51782700  0.25000000  0.23816100  1
  Li  Li1  1  0.43508800  0.75000000  0.05075800  1
  Li  Li2  1  0.56491200  0.25000000  0.94924200  1
  Li  Li3  1  0.48217300  0.75000000  0.76183900  1
  Cr  Cr4  1  0.14859400  0.25000000  0.01458200  1
  Cr  Cr5  1  0.66596300  0.25000000  0.62259500  1
  Cr  Cr6  1  0.02145500  0.75000000  0.81690800  1
  Cr  Cr7  1  0.89449300  0.75000000  0.54546200  1
  Cr  Cr8  1  0.80474600  0.75000000  0.31314700  1
  Cr  Cr9  1  0.19525400  0.25000000  0.68685300  1
  Cr  Cr10  1  0.10550700  0.25000000  0.45453800  1
  Cr  Cr11  1  0.97854500  0.25000000  0.18309200  1
  Cr  Cr12  1  0.33403700  0.75000000  0.37740500  1
  Cr  Cr13  1  0.85140600  0.75000000  0.98541800  1
  B  B14  1  0.25341200  0.75000000  0.18730800  1
  B  B15  1  0.63011700  0.25000000  0.42163500  1
  B  B16  1  0.69666200  0.75000000  0.11900500  1
  B  B17  1  0.30333800  0.25000000  0.88099500  1
  B  B18  1  0.36988300  0.75000000  0.57836500  1
  B  B19  1  0.74658800  0.25000000  0.81269200  1
  O  O20  1  0.25918000  0.75000000  0.09781500  1
  O  O21  1  0.48518000  0.25000000  0.41596200  1
  O  O22  1  0.37641900  0.75000000  0.25497000  1
  O  O23  1  0.88154800  0.25000000  0.79704700  1
  O  O24  1  0.79932400  0.75000000  0.64207400  1
  O  O25  1  0.73415800  0.25000000  0.50428700  1
  O  O26  1  0.68101800  0.25000000  0.34749500  1
  O  O27  1  0.03343200  0.75000000  0.94651000  1
  O  O28  1  0.61954800  0.75000000  0.17990600  1
  O  O29  1  0.64331300  0.75000000  0.02783300  1
  O  O30  1  0.15272000  0.25000000  0.85353700  1
  O  O31  1  0.09166200  0.75000000  0.71285600  1
  O  O32  1  0.96158800  0.75000000  0.43028400  1
  O  O33  1  0.03841200  0.25000000  0.56971600  1
  O  O34  1  0.90833800  0.25000000  0.28714400  1
  O  O35  1  0.84728000  0.75000000  0.14646300  1
  O  O36  1  0.35668700  0.25000000  0.97216700  1
  O  O37  1  0.38045200  0.25000000  0.82009400  1
  O  O38  1  0.96656800  0.25000000  0.05349000  1
  O  O39  1  0.31898200  0.75000000  0.65250500  1
  O  O40  1  0.26584200  0.75000000  0.49571300  1
  O  O41  1  0.20067600  0.25000000  0.35792600  1
  O  O42  1  0.11845200  0.75000000  0.20295300  1
  O  O43  1  0.62358100  0.25000000  0.74503000  1
  O  O44  1  0.51482000  0.75000000  0.58403800  1
  O  O45  1  0.74082000  0.25000000  0.90218500  1
