# generated using pymatgen
data_NbNO
_symmetry_space_group_name_H-M   'P 1'
_cell_length_a   3.96919600
_cell_length_b   3.96919600
_cell_length_c   10.48500400
_cell_angle_alpha   90.00000000
_cell_angle_beta   90.00000000
_cell_angle_gamma   90.00000000
_symmetry_Int_Tables_number   1
_chemical_formula_structural   NbNO
_chemical_formula_sum   'Nb4 N4 O4'
_cell_volume   165.18617257
_cell_formula_units_Z   4
loop_
 _symmetry_equiv_pos_site_id
 _symmetry_equiv_pos_as_xyz
  1  'x, y, z'
loop_
 _atom_site_type_symbol
 _atom_site_label
 _atom_site_symmetry_multiplicity
 _atom_site_fract_x
 _atom_site_fract_y
 _atom_site_fract_z
 _atom_site_occupancy
  Nb  Nb0  1  0.00000000  0.00000000  0.76587000  1
  Nb  Nb1  1  0.00000000  0.50000000  0.01587000  1
  Nb  Nb2  1  0.50000000  0.50000000  0.26587000  1
  Nb  Nb3  1  0.50000000  0.00000000  0.51587000  1
  N  N4  1  0.00000000  0.50000000  0.20190400  1
  N  N5  1  0.00000000  0.00000000  0.95190400  1
  N  N6  1  0.50000000  0.00000000  0.70190400  1
  N  N7  1  0.50000000  0.50000000  0.45190400  1
  O  O8  1  0.50000000  0.50000000  0.03222200  1
  O  O9  1  0.00000000  0.50000000  0.78222200  1
  O  O10  1  0.00000000  0.00000000  0.53222200  1
  O  O11  1  0.50000000  0.00000000  0.28222200  1
