# generated using pymatgen
data_Li4Ti5V3O16
_symmetry_space_group_name_H-M   'P 1'
_cell_length_a   10.32753200
_cell_length_b   5.95152400
_cell_length_c   9.63991751
_cell_angle_alpha   90.00000000
_cell_angle_beta   90.08047632
_cell_angle_gamma   90.00000000
_symmetry_Int_Tables_number   1
_chemical_formula_structural   Li4Ti5V3O16
_chemical_formula_sum   'Li8 Ti10 V6 O32'
_cell_volume   592.51265121
_cell_formula_units_Z   2
loop_
 _symmetry_equiv_pos_site_id
 _symmetry_equiv_pos_as_xyz
  1  'x, y, z'
loop_
 _atom_site_type_symbol
 _atom_site_label
 _atom_site_symmetry_multiplicity
 _atom_site_fract_x
 _atom_site_fract_y
 _atom_site_fract_z
 _atom_site_occupancy
  Li  Li0  1  0.66444300  0.00000000  0.10405300  1
  Li  Li1  1  0.99884000  0.00000000  0.00585200  1
  Li  Li2  1  0.50527500  0.50000000  0.50643100  1
  Li  Li3  1  0.83309800  0.50000000  0.60269200  1
  Li  Li4  1  0.16444300  0.50000000  0.10405300  1
  Li  Li5  1  0.49884000  0.50000000  0.00585200  1
  Li  Li6  1  0.00527500  0.00000000  0.50643100  1
  Li  Li7  1  0.33309800  0.00000000  0.60269200  1
  Ti  Ti8  1  0.59248800  0.75563100  0.78002000  1
  Ti  Ti9  1  0.67003600  0.00000000  0.50030800  1
  Ti  Ti10  1  0.59248800  0.24436900  0.78002000  1
  Ti  Ti11  1  0.67478700  0.50000000  0.27278200  1
  Ti  Ti12  1  0.84444900  0.50000000  0.00329700  1
  Ti  Ti13  1  0.09248800  0.25563100  0.78002000  1
  Ti  Ti14  1  0.17003600  0.50000000  0.50030800  1
  Ti  Ti15  1  0.09248800  0.74436900  0.78002000  1
  Ti  Ti16  1  0.17478700  0.00000000  0.27278200  1
  Ti  Ti17  1  0.34444900  0.00000000  0.00329700  1
  V  V18  1  0.82601300  0.00000000  0.78978600  1
  V  V19  1  0.91502200  0.25743200  0.28862400  1
  V  V20  1  0.91502200  0.74256800  0.28862400  1
  V  V21  1  0.32601300  0.50000000  0.78978600  1
  V  V22  1  0.41502200  0.75743200  0.28862400  1
  V  V23  1  0.41502200  0.24256800  0.28862400  1
  O  O24  1  0.58704650  0.75585750  0.40576200  1
  O  O25  1  0.51904200  0.00000000  0.66526700  1
  O  O26  1  0.65482600  0.00000000  0.89866300  1
  O  O27  1  0.50377000  0.50000000  0.69502400  1
  O  O28  1  0.50239400  0.50000000  0.19414900  1
  O  O29  1  0.58704650  0.24414250  0.40576200  1
  O  O30  1  0.73302750  0.77313250  0.65478400  1
  O  O31  1  0.73302750  0.22686750  0.65478400  1
  O  O32  1  0.66801800  0.50000000  0.90099000  1
  O  O33  1  0.83369200  0.00000000  0.40760300  1
  O  O34  1  0.75369250  0.28113850  0.15953900  1
  O  O35  1  0.75369250  0.71886150  0.15953900  1
  O  O36  1  0.82692800  0.50000000  0.39683900  1
  O  O37  1  0.91780250  0.25773350  0.90693900  1
  O  O38  1  0.97715500  0.50000000  0.15674500  1
  O  O39  1  0.91780250  0.74226650  0.90693900  1
  O  O40  1  0.08704650  0.25585750  0.40576200  1
  O  O41  1  0.01904200  0.50000000  0.66526700  1
  O  O42  1  0.15482600  0.50000000  0.89866300  1
  O  O43  1  0.00377000  0.00000000  0.69502400  1
  O  O44  1  0.00239400  0.00000000  0.19414900  1
  O  O45  1  0.08704650  0.74414250  0.40576200  1
  O  O46  1  0.23302750  0.27313250  0.65478400  1
  O  O47  1  0.23302750  0.72686750  0.65478400  1
  O  O48  1  0.16801800  0.00000000  0.90099000  1
  O  O49  1  0.33369200  0.50000000  0.40760300  1
  O  O50  1  0.25369250  0.78113850  0.15953900  1
  O  O51  1  0.25369250  0.21886150  0.15953900  1
  O  O52  1  0.32692800  0.00000000  0.39683900  1
  O  O53  1  0.41780250  0.75773350  0.90693900  1
  O  O54  1  0.47715500  0.00000000  0.15674500  1
  O  O55  1  0.41780250  0.24226650  0.90693900  1
