# generated using pymatgen
data_Hg4HN3O10
_symmetry_space_group_name_H-M   'P 1'
_cell_length_a   9.69063600
_cell_length_b   20.66362200
_cell_length_c   11.62633500
_cell_angle_alpha   90.00000000
_cell_angle_beta   90.00000000
_cell_angle_gamma   90.00000000
_symmetry_Int_Tables_number   1
_chemical_formula_structural   Hg4HN3O10
_chemical_formula_sum   'Hg32 H8 N24 O80'
_cell_volume   2328.09963147
_cell_formula_units_Z   8
loop_
 _symmetry_equiv_pos_site_id
 _symmetry_equiv_pos_as_xyz
  1  'x, y, z'
loop_
 _atom_site_type_symbol
 _atom_site_label
 _atom_site_symmetry_multiplicity
 _atom_site_fract_x
 _atom_site_fract_y
 _atom_site_fract_z
 _atom_site_occupancy
  Hg  Hg0  1  0.50392000  0.03091800  0.59613600  1
  Hg  Hg1  1  0.00392000  0.46908200  0.40386400  1
  Hg  Hg2  1  0.00392000  0.03091800  0.90386400  1
  Hg  Hg3  1  0.50392000  0.46908200  0.09613600  1
  Hg  Hg4  1  0.48997350  0.04710850  0.92561800  1
  Hg  Hg5  1  0.98997350  0.45289150  0.07438200  1
  Hg  Hg6  1  0.98997350  0.04710850  0.57438200  1
  Hg  Hg7  1  0.48997350  0.45289150  0.42561800  1
  Hg  Hg8  1  0.48950350  0.20141950  0.70776000  1
  Hg  Hg9  1  0.98950350  0.29858050  0.29224000  1
  Hg  Hg10  1  0.98950350  0.20141950  0.79224000  1
  Hg  Hg11  1  0.48950350  0.29858050  0.20776000  1
  Hg  Hg12  1  0.57132650  0.31868950  0.75152500  1
  Hg  Hg13  1  0.07132650  0.18131050  0.24847500  1
  Hg  Hg14  1  0.07132650  0.31868950  0.74847500  1
  Hg  Hg15  1  0.57132650  0.18131050  0.25152500  1
  Hg  Hg16  1  0.00392000  0.53091800  0.59613600  1
  Hg  Hg17  1  0.50392000  0.96908200  0.40386400  1
  Hg  Hg18  1  0.50392000  0.53091800  0.90386400  1
  Hg  Hg19  1  0.00392000  0.96908200  0.09613600  1
  Hg  Hg20  1  0.98997350  0.54710850  0.92561800  1
  Hg  Hg21  1  0.48997350  0.95289150  0.07438200  1
  Hg  Hg22  1  0.48997350  0.54710850  0.57438200  1
  Hg  Hg23  1  0.98997350  0.95289150  0.42561800  1
  Hg  Hg24  1  0.98950350  0.70141950  0.70776000  1
  Hg  Hg25  1  0.48950350  0.79858050  0.29224000  1
  Hg  Hg26  1  0.48950350  0.70141950  0.79224000  1
  Hg  Hg27  1  0.98950350  0.79858050  0.20776000  1
  Hg  Hg28  1  0.07132650  0.81868950  0.75152500  1
  Hg  Hg29  1  0.57132650  0.68131050  0.24847500  1
  Hg  Hg30  1  0.57132650  0.81868950  0.74847500  1
  Hg  Hg31  1  0.07132650  0.68131050  0.25152500  1
  H  H32  1  0.14396750  0.09373550  0.74752400  1
  H  H33  1  0.64396750  0.40626450  0.25247600  1
  H  H34  1  0.64396750  0.09373550  0.75247600  1
  H  H35  1  0.14396750  0.40626450  0.24752400  1
  H  H36  1  0.64396750  0.59373550  0.74752400  1
  H  H37  1  0.14396750  0.90626450  0.25247600  1
  H  H38  1  0.14396750  0.59373550  0.75247600  1
  H  H39  1  0.64396750  0.90626450  0.24752400  1
  N  N40  1  0.74675500  0.44024800  0.72059600  1
  N  N41  1  0.24675500  0.05975200  0.27940400  1
  N  N42  1  0.24675500  0.44024800  0.77940400  1
  N  N43  1  0.74675500  0.05975200  0.22059600  1
  N  N44  1  0.24416100  0.17215700  0.53897200  1
  N  N45  1  0.74416100  0.32784300  0.46102800  1
  N  N46  1  0.74416100  0.17215700  0.96102800  1
  N  N47  1  0.24416100  0.32784300  0.03897200  1
  N  N48  1  0.73898600  0.14507700  0.50430900  1
  N  N49  1  0.23898600  0.35492300  0.49569100  1
  N  N50  1  0.23898600  0.14507700  0.99569100  1
  N  N51  1  0.73898600  0.35492300  0.00430900  1
  N  N52  1  0.24675500  0.94024800  0.72059600  1
  N  N53  1  0.74675500  0.55975200  0.27940400  1
  N  N54  1  0.74675500  0.94024800  0.77940400  1
  N  N55  1  0.24675500  0.55975200  0.22059600  1
  N  N56  1  0.74416100  0.67215700  0.53897200  1
  N  N57  1  0.24416100  0.82784300  0.46102800  1
  N  N58  1  0.24416100  0.67215700  0.96102800  1
  N  N59  1  0.74416100  0.82784300  0.03897200  1
  N  N60  1  0.23898600  0.64507700  0.50430900  1
  N  N61  1  0.73898600  0.85492300  0.49569100  1
  N  N62  1  0.73898600  0.64507700  0.99569100  1
  N  N63  1  0.23898600  0.85492300  0.00430900  1
  O  O64  1  0.54268000  0.09090200  0.74905200  1
  O  O65  1  0.04268000  0.40909800  0.25094800  1
  O  O66  1  0.04268000  0.09090200  0.75094800  1
  O  O67  1  0.54268000  0.40909800  0.24905200  1
  O  O68  1  0.28623500  0.49800800  0.76553300  1
  O  O69  1  0.78623500  0.00199200  0.23446700  1
  O  O70  1  0.78623500  0.49800800  0.73446700  1
  O  O71  1  0.28623500  0.00199200  0.26553300  1
  O  O72  1  0.62174250  0.42663250  0.75613600  1
  O  O73  1  0.12174250  0.07336750  0.24386400  1
  O  O74  1  0.12174250  0.42663250  0.74386400  1
  O  O75  1  0.62174250  0.07336750  0.25613600  1
  O  O76  1  0.81919500  0.39792100  0.67489600  1
  O  O77  1  0.31919500  0.10207900  0.32510400  1
  O  O78  1  0.31919500  0.39792100  0.82510400  1
  O  O79  1  0.81919500  0.10207900  0.17489600  1
  O  O80  1  0.30801550  0.21700650  0.49283700  1
  O  O81  1  0.80801550  0.28299350  0.50716300  1
  O  O82  1  0.80801550  0.21700650  0.00716300  1
  O  O83  1  0.30801550  0.28299350  0.99283700  1
  O  O84  1  0.29603700  0.14287200  0.62954100  1
  O  O85  1  0.79603700  0.35712800  0.37045900  1
  O  O86  1  0.79603700  0.14287200  0.87045900  1
  O  O87  1  0.29603700  0.35712800  0.12954100  1
  O  O88  1  0.12819700  0.15257200  0.50277200  1
  O  O89  1  0.62819700  0.34742800  0.49722800  1
  O  O90  1  0.62819700  0.15257200  0.99722800  1
  O  O91  1  0.12819700  0.34742800  0.00277200  1
  O  O92  1  0.80963500  0.14406500  0.41428100  1
  O  O93  1  0.30963500  0.35593500  0.58571900  1
  O  O94  1  0.30963500  0.14406500  0.08571900  1
  O  O95  1  0.80963500  0.35593500  0.91428100  1
  O  O96  1  0.79097600  0.12621700  0.60073000  1
  O  O97  1  0.29097600  0.37378300  0.39927000  1
  O  O98  1  0.29097600  0.12621700  0.89927000  1
  O  O99  1  0.79097600  0.37378300  0.10073000  1
  O  O100  1  0.61369550  0.16338150  0.50229700  1
  O  O101  1  0.11369550  0.33661850  0.49770300  1
  O  O102  1  0.11369550  0.16338150  0.99770300  1
  O  O103  1  0.61369550  0.33661850  0.00229700  1
  O  O104  1  0.04268000  0.59090200  0.74905200  1
  O  O105  1  0.54268000  0.90909800  0.25094800  1
  O  O106  1  0.54268000  0.59090200  0.75094800  1
  O  O107  1  0.04268000  0.90909800  0.24905200  1
  O  O108  1  0.78623500  0.99800800  0.76553300  1
  O  O109  1  0.28623500  0.50199200  0.23446700  1
  O  O110  1  0.28623500  0.99800800  0.73446700  1
  O  O111  1  0.78623500  0.50199200  0.26553300  1
  O  O112  1  0.12174250  0.92663250  0.75613600  1
  O  O113  1  0.62174250  0.57336750  0.24386400  1
  O  O114  1  0.62174250  0.92663250  0.74386400  1
  O  O115  1  0.12174250  0.57336750  0.25613600  1
  O  O116  1  0.31919500  0.89792100  0.67489600  1
  O  O117  1  0.81919500  0.60207900  0.32510400  1
  O  O118  1  0.81919500  0.89792100  0.82510400  1
  O  O119  1  0.31919500  0.60207900  0.17489600  1
  O  O120  1  0.80801550  0.71700650  0.49283700  1
  O  O121  1  0.30801550  0.78299350  0.50716300  1
  O  O122  1  0.30801550  0.71700650  0.00716300  1
  O  O123  1  0.80801550  0.78299350  0.99283700  1
  O  O124  1  0.79603700  0.64287200  0.62954100  1
  O  O125  1  0.29603700  0.85712800  0.37045900  1
  O  O126  1  0.29603700  0.64287200  0.87045900  1
  O  O127  1  0.79603700  0.85712800  0.12954100  1
  O  O128  1  0.62819700  0.65257200  0.50277200  1
  O  O129  1  0.12819700  0.84742800  0.49722800  1
  O  O130  1  0.12819700  0.65257200  0.99722800  1
  O  O131  1  0.62819700  0.84742800  0.00277200  1
  O  O132  1  0.30963500  0.64406500  0.41428100  1
  O  O133  1  0.80963500  0.85593500  0.58571900  1
  O  O134  1  0.80963500  0.64406500  0.08571900  1
  O  O135  1  0.30963500  0.85593500  0.91428100  1
  O  O136  1  0.29097600  0.62621700  0.60073000  1
  O  O137  1  0.79097600  0.87378300  0.39927000  1
  O  O138  1  0.79097600  0.62621700  0.89927000  1
  O  O139  1  0.29097600  0.87378300  0.10073000  1
  O  O140  1  0.11369550  0.66338150  0.50229700  1
  O  O141  1  0.61369550  0.83661850  0.49770300  1
  O  O142  1  0.61369550  0.66338150  0.99770300  1
  O  O143  1  0.11369550  0.83661850  0.00229700  1
