# generated using pymatgen
data_Dy5Bi11O24
_symmetry_space_group_name_H-M   'P 1'
_cell_length_a   9.55553900
_cell_length_b   9.55717523
_cell_length_c   15.63476123
_cell_angle_alpha   90.02208636
_cell_angle_beta   90.01262835
_cell_angle_gamma   109.48224653
_symmetry_Int_Tables_number   1
_chemical_formula_structural   Dy5Bi11O24
_chemical_formula_sum   'Dy10 Bi22 O48'
_cell_volume   1346.07764315
_cell_formula_units_Z   2
loop_
 _symmetry_equiv_pos_site_id
 _symmetry_equiv_pos_as_xyz
  1  'x, y, z'
loop_
 _atom_site_type_symbol
 _atom_site_label
 _atom_site_symmetry_multiplicity
 _atom_site_fract_x
 _atom_site_fract_y
 _atom_site_fract_z
 _atom_site_occupancy
  Dy  Dy0  1  0.85619000  0.14400800  0.89242600  1
  Dy  Dy1  1  0.50339100  0.00128100  0.99878700  1
  Dy  Dy2  1  0.65842700  0.40661500  0.87493700  1
  Dy  Dy3  1  0.24858400  0.25017400  0.75162300  1
  Dy  Dy4  1  0.99955800  0.49810000  0.50054800  1
  Dy  Dy5  1  0.75108400  0.75125500  0.75247700  1
  Dy  Dy6  1  0.74838300  0.75018200  0.24919900  1
  Dy  Dy7  1  0.50174000  0.00138200  0.49979600  1
  Dy  Dy8  1  0.99746100  0.49918400  0.99774200  1
  Dy  Dy9  1  0.25095300  0.25080500  0.25005400  1
  Bi  Bi10  1  0.84269600  0.09215800  0.62686600  1
  Bi  Bi11  1  0.98064100  0.51321300  0.73622600  1
  Bi  Bi12  1  0.23298500  0.26419300  0.98139200  1
  Bi  Bi13  1  0.89137100  0.10932600  0.35876100  1
  Bi  Bi14  1  0.39221000  0.60698200  0.85916500  1
  Bi  Bi15  1  0.63989800  0.35994800  0.61094100  1
  Bi  Bi16  1  0.52031700  0.98728000  0.76807800  1
  Bi  Bi17  1  0.26547300  0.23406800  0.51683900  1
  Bi  Bi18  1  0.65689100  0.40719900  0.37489500  1
  Bi  Bi19  1  0.15733300  0.90889900  0.87436000  1
  Bi  Bi20  1  0.34353600  0.59524300  0.62557000  1
  Bi  Bi21  1  0.84524800  0.09379300  0.12269600  1
  Bi  Bi22  1  0.73532000  0.76544400  0.48491600  1
  Bi  Bi23  1  0.48491100  0.01518000  0.23311200  1
  Bi  Bi24  1  0.60891400  0.39073300  0.13921100  1
  Bi  Bi25  1  0.11017400  0.88952700  0.64093400  1
  Bi  Bi26  1  0.35921400  0.64139500  0.39100200  1
  Bi  Bi27  1  0.01488600  0.48468100  0.26483800  1
  Bi  Bi28  1  0.76559700  0.73282600  0.01367100  1
  Bi  Bi29  1  0.34230800  0.59150200  0.12398200  1
  Bi  Bi30  1  0.15598200  0.90576000  0.37490300  1
  Bi  Bi31  1  0.14030000  0.85872500  0.10875300  1
  O  O32  1  0.61473600  0.15714100  0.88702900  1
  O  O33  1  0.89993100  0.39314900  0.86675900  1
  O  O34  1  0.74692100  0.47123600  0.01090800  1
  O  O35  1  0.71943300  0.49744400  0.73896500  1
  O  O36  1  0.65409000  0.65335900  0.88304000  1
  O  O37  1  0.89466200  0.34820200  0.61593800  1
  O  O38  1  0.40645100  0.35215700  0.86527700  1
  O  O39  1  0.98257700  0.25505100  0.01733600  1
  O  O40  1  0.58531100  0.09914200  0.63260100  1
  O  O41  1  0.75268700  0.03205700  0.48422200  1
  O  O42  1  0.24524600  0.52794200  0.97996800  1
  O  O43  1  0.08845700  0.13290400  0.86072300  1
  O  O44  1  0.87808100  0.34327800  0.39002200  1
  O  O45  1  0.77911900  0.99973000  0.77389700  1
  O  O46  1  0.37972100  0.84492400  0.89002000  1
  O  O47  1  0.84745100  0.83396700  0.61962400  1
  O  O48  1  0.77596600  0.54114800  0.50750600  1
  O  O49  1  0.51013500  0.74295000  0.72759900  1
  O  O50  1  0.51258500  0.24378600  0.47712700  1
  O  O51  1  0.00966600  0.74202900  0.97554700  1
  O  O52  1  0.09890400  0.14664300  0.63455100  1
  O  O53  1  0.21016300  0.47693400  0.75850600  1
  O  O54  1  0.40448700  0.37269900  0.64173700  1
  O  O55  1  0.25274400  0.96895200  0.51742500  1
  O  O56  1  0.12104000  0.65458300  0.60971100  1
  O  O57  1  0.62471200  0.15572700  0.10896100  1
  O  O58  1  0.15139800  0.16501700  0.38331400  1
  O  O59  1  0.22582000  0.45897500  0.49529800  1
  O  O60  1  0.49407500  0.26304000  0.27256200  1
  O  O61  1  0.99343200  0.75905100  0.77452200  1
  O  O62  1  0.89946500  0.85230000  0.36493500  1
  O  O63  1  0.49049600  0.75878800  0.52374800  1
  O  O64  1  0.78961800  0.52548900  0.24269700  1
  O  O65  1  0.28875200  0.02549200  0.74466600  1
  O  O66  1  0.59371200  0.62913800  0.36016200  1
  O  O67  1  0.28094500  0.50108400  0.26649500  1
  O  O68  1  0.34838500  0.33525600  0.11753200  1
  O  O69  1  0.00908200  0.24150900  0.22561800  1
  O  O70  1  0.10199500  0.64944500  0.38524100  1
  O  O71  1  0.59763100  0.64516700  0.13390700  1
  O  O72  1  0.41532000  0.90158500  0.36663400  1
  O  O73  1  0.70834200  0.97520800  0.25502000  1
  O  O74  1  0.90618000  0.87053300  0.14051800  1
  O  O75  1  0.21811400  0.00122300  0.23270300  1
  O  O76  1  0.73255700  0.96682000  0.98943200  1
  O  O77  1  0.39846100  0.84929500  0.11495100  1
  O  O78  1  0.08177600  0.59598100  0.13074700  1
  O  O79  1  0.27719300  0.04141200  0.00559900  1
