# generated using pymatgen
data_LiFeF4
_symmetry_space_group_name_H-M   'P 1'
_cell_length_a   11.67390600
_cell_length_b   5.23195000
_cell_length_c   5.46824345
_cell_angle_alpha   90.00000000
_cell_angle_beta   91.74931836
_cell_angle_gamma   90.00000000
_symmetry_Int_Tables_number   1
_chemical_formula_structural   LiFeF4
_chemical_formula_sum   'Li4 Fe4 F16'
_cell_volume   333.82985221
_cell_formula_units_Z   4
loop_
 _symmetry_equiv_pos_site_id
 _symmetry_equiv_pos_as_xyz
  1  'x, y, z'
loop_
 _atom_site_type_symbol
 _atom_site_label
 _atom_site_symmetry_multiplicity
 _atom_site_fract_x
 _atom_site_fract_y
 _atom_site_fract_z
 _atom_site_occupancy
  Li  Li0  1  0.00000000  0.94712800  0.75000000  1
  Li  Li1  1  0.00000000  0.05287200  0.25000000  1
  Li  Li2  1  0.50000000  0.44712800  0.75000000  1
  Li  Li3  1  0.50000000  0.55287200  0.25000000  1
  Fe  Fe4  1  0.75000000  0.25000000  0.50000000  1
  Fe  Fe5  1  0.75000000  0.75000000  0.00000000  1
  Fe  Fe6  1  0.25000000  0.75000000  0.50000000  1
  Fe  Fe7  1  0.25000000  0.25000000  0.00000000  1
  F  F8  1  0.58939700  0.65451900  0.97615800  1
  F  F9  1  0.58939700  0.34548100  0.47615800  1
  F  F10  1  0.78328300  0.55913300  0.69881500  1
  F  F11  1  0.71671700  0.05913300  0.80118500  1
  F  F12  1  0.78328300  0.44086700  0.19881500  1
  F  F13  1  0.71671700  0.94086700  0.30118500  1
  F  F14  1  0.91060300  0.15451900  0.52384200  1
  F  F15  1  0.91060300  0.84548100  0.02384200  1
  F  F16  1  0.08939700  0.15451900  0.97615800  1
  F  F17  1  0.08939700  0.84548100  0.47615800  1
  F  F18  1  0.28328300  0.05913300  0.69881500  1
  F  F19  1  0.21671700  0.55913300  0.80118500  1
  F  F20  1  0.28328300  0.94086700  0.19881500  1
  F  F21  1  0.21671700  0.44086700  0.30118500  1
  F  F22  1  0.41060300  0.65451900  0.52384200  1
  F  F23  1  0.41060300  0.34548100  0.02384200  1
