# generated using pymatgen
data_NbV3(PO4)6
_symmetry_space_group_name_H-M   'P 1'
_cell_length_a   8.62152580
_cell_length_b   8.62152580
_cell_length_c   21.78334430
_cell_angle_alpha   90.00000000
_cell_angle_beta   90.00000000
_cell_angle_gamma   120.00000000
_symmetry_Int_Tables_number   1
_chemical_formula_structural   NbV3(PO4)6
_chemical_formula_sum   'Nb3 V9 P18 O72'
_cell_volume   1402.24355384
_cell_formula_units_Z   3
loop_
 _symmetry_equiv_pos_site_id
 _symmetry_equiv_pos_as_xyz
  1  'x, y, z'
loop_
 _atom_site_type_symbol
 _atom_site_label
 _atom_site_symmetry_multiplicity
 _atom_site_fract_x
 _atom_site_fract_y
 _atom_site_fract_z
 _atom_site_occupancy
  Nb  Nb0  1  0.00000000  0.00000000  0.13936200  1
  Nb  Nb1  1  0.66666667  0.33333333  0.47269533  1
  Nb  Nb2  1  0.33333333  0.66666667  0.80602867  1
  V  V3  1  0.66666667  0.33333333  0.19112633  1
  V  V4  1  0.33333333  0.66666667  0.30725267  1
  V  V5  1  0.33333333  0.66666667  0.02408367  1
  V  V6  1  0.33333333  0.66666667  0.52445967  1
  V  V7  1  0.00000000  0.00000000  0.64058600  1
  V  V8  1  0.00000000  0.00000000  0.35741700  1
  V  V9  1  0.00000000  0.00000000  0.85779300  1
  V  V10  1  0.66666667  0.33333333  0.97391933  1
  V  V11  1  0.66666667  0.33333333  0.69075033  1
  P  P12  1  0.28868733  0.00153767  0.25155667  1
  P  P13  1  0.99846233  0.28714967  0.25155667  1
  P  P14  1  0.71285033  0.71131267  0.25155667  1
  P  P15  1  0.95017067  0.60877833  0.08239733  1
  P  P16  1  0.65860767  0.04982933  0.08239733  1
  P  P17  1  0.39122167  0.34139233  0.08239733  1
  P  P18  1  0.95535400  0.33487100  0.58489000  1
  P  P19  1  0.66512900  0.62048300  0.58489000  1
  P  P20  1  0.37951700  0.04464600  0.58489000  1
  P  P21  1  0.61683733  0.94211167  0.41573067  1
  P  P22  1  0.32527433  0.38316267  0.41573067  1
  P  P23  1  0.05788833  0.67472567  0.41573067  1
  P  P24  1  0.62202067  0.66820433  0.91822333  1
  P  P25  1  0.33179567  0.95381633  0.91822333  1
  P  P26  1  0.04618367  0.37797933  0.91822333  1
  P  P27  1  0.28350400  0.27544500  0.74906400  1
  P  P28  1  0.99194100  0.71649600  0.74906400  1
  P  P29  1  0.72455500  0.00805900  0.74906400  1
  O  O30  1  0.47681033  0.30955367  0.02508767  1
  O  O31  1  0.83274333  0.52318967  0.02508767  1
  O  O32  1  0.47463767  0.16551933  0.24328533  1
  O  O33  1  0.69044633  0.16725667  0.02508767  1
  O  O34  1  0.30802467  0.83211733  0.25897633  1
  O  O35  1  0.17101233  0.96830767  0.19373667  1
  O  O36  1  0.83448067  0.30911833  0.24328533  1
  O  O37  1  0.16788267  0.47590733  0.25897633  1
  O  O38  1  0.52409267  0.69197533  0.25897633  1
  O  O39  1  0.86469867  0.50206533  0.14094633  1
  O  O40  1  0.96829233  0.79739167  0.08849767  1
  O  O41  1  0.63736667  0.13530133  0.14094633  1
  O  O42  1  0.03169233  0.20270467  0.19373667  1
  O  O43  1  0.69088167  0.52536233  0.24328533  1
  O  O44  1  0.79729533  0.82898767  0.19373667  1
  O  O45  1  0.13765167  0.63414333  0.07554433  1
  O  O46  1  0.49649167  0.86234833  0.07554433  1
  O  O47  1  0.82909933  0.03170767  0.08849767  1
  O  O48  1  0.49793467  0.36263333  0.14094633  1
  O  O49  1  0.36585667  0.50350833  0.07554433  1
  O  O50  1  0.97265500  0.17260900  0.30825200  1
  O  O51  1  0.20260833  0.17090067  0.08849767  1
  O  O52  1  0.82739100  0.80004600  0.30825200  1
  O  O53  1  0.19995400  0.02734500  0.30825200  1
  O  O54  1  0.14347700  0.64288700  0.35842100  1
  O  O55  1  0.49941000  0.85652300  0.35842100  1
  O  O56  1  0.14130433  0.49885267  0.57661867  1
  O  O57  1  0.35711300  0.50059000  0.35842100  1
  O  O58  1  0.97469133  0.16545067  0.59230967  1
  O  O59  1  0.83767900  0.30164100  0.52707000  1
  O  O60  1  0.50114733  0.64245167  0.57661867  1
  O  O61  1  0.83454933  0.80924067  0.59230967  1
  O  O62  1  0.19075933  0.02530867  0.59230967  1
  O  O63  1  0.53136533  0.83539867  0.47427967  1
  O  O64  1  0.63495900  0.13072500  0.42183100  1
  O  O65  1  0.30403333  0.46863467  0.47427967  1
  O  O66  1  0.69835900  0.53603800  0.52707000  1
  O  O67  1  0.35754833  0.85869567  0.57661867  1
  O  O68  1  0.46396200  0.16232100  0.52707000  1
  O  O69  1  0.80431833  0.96747667  0.40887767  1
  O  O70  1  0.16315833  0.19568167  0.40887767  1
  O  O71  1  0.49576600  0.36504100  0.42183100  1
  O  O72  1  0.16460133  0.69596667  0.47427967  1
  O  O73  1  0.03252333  0.83684167  0.40887767  1
  O  O74  1  0.63932167  0.50594233  0.64158533  1
  O  O75  1  0.86927500  0.50423400  0.42183100  1
  O  O76  1  0.49405767  0.13337933  0.64158533  1
  O  O77  1  0.86662067  0.36067833  0.64158533  1
  O  O78  1  0.81014367  0.97622033  0.69175433  1
  O  O79  1  0.16607667  0.18985633  0.69175433  1
  O  O80  1  0.80797100  0.83218600  0.90995200  1
  O  O81  1  0.02377967  0.83392333  0.69175433  1
  O  O82  1  0.64135800  0.49878400  0.92564300  1
  O  O83  1  0.50434567  0.63497433  0.86040333  1
  O  O84  1  0.16781400  0.97578500  0.90995200  1
  O  O85  1  0.50121600  0.14257400  0.92564300  1
  O  O86  1  0.85742600  0.35864200  0.92564300  1
  O  O87  1  0.19803200  0.16873200  0.80761300  1
  O  O88  1  0.30162567  0.46405833  0.75516433  1
  O  O89  1  0.97070000  0.80196800  0.80761300  1
  O  O90  1  0.36502567  0.86937133  0.86040333  1
  O  O91  1  0.02421500  0.19202900  0.90995200  1
  O  O92  1  0.13062867  0.49565433  0.86040333  1
  O  O93  1  0.47098500  0.30081000  0.74221100  1
  O  O94  1  0.82982500  0.52901500  0.74221100  1
  O  O95  1  0.16243267  0.69837433  0.75516433  1
  O  O96  1  0.83126800  0.02930000  0.80761300  1
  O  O97  1  0.69919000  0.17017500  0.74221100  1
  O  O98  1  0.30598833  0.83927567  0.97491867  1
  O  O99  1  0.53594167  0.83756733  0.75516433  1
  O  O100  1  0.16072433  0.46671267  0.97491867  1
  O  O101  1  0.53328733  0.69401167  0.97491867  1
