# generated using pymatgen
data_LiSi3BiO8
_symmetry_space_group_name_H-M   'P 1'
_cell_length_a   8.19657000
_cell_length_b   12.98384400
_cell_length_c   13.48092734
_cell_angle_alpha   90.00000000
_cell_angle_beta   97.57365746
_cell_angle_gamma   90.00000000
_symmetry_Int_Tables_number   1
_chemical_formula_structural   LiSi3BiO8
_chemical_formula_sum   'Li8 Si24 Bi8 O64'
_cell_volume   1422.16473942
_cell_formula_units_Z   8
loop_
 _symmetry_equiv_pos_site_id
 _symmetry_equiv_pos_as_xyz
  1  'x, y, z'
loop_
 _atom_site_type_symbol
 _atom_site_label
 _atom_site_symmetry_multiplicity
 _atom_site_fract_x
 _atom_site_fract_y
 _atom_site_fract_z
 _atom_site_occupancy
  Li  Li0  1  0.78822200  0.84181900  0.81713000  1
  Li  Li1  1  0.78822200  0.15818100  0.31713000  1
  Li  Li2  1  0.21177800  0.84181900  0.68287000  1
  Li  Li3  1  0.21177800  0.15818100  0.18287000  1
  Li  Li4  1  0.28822200  0.34181900  0.81713000  1
  Li  Li5  1  0.28822200  0.65818100  0.31713000  1
  Li  Li6  1  0.71177800  0.34181900  0.68287000  1
  Li  Li7  1  0.71177800  0.65818100  0.18287000  1
  Si  Si8  1  0.25386550  0.10343850  0.82269400  1
  Si  Si9  1  0.15148400  0.89663700  0.90459200  1
  Si  Si10  1  0.62775750  0.04574550  0.88580200  1
  Si  Si11  1  0.37224250  0.04574550  0.61419800  1
  Si  Si12  1  0.84851600  0.89663700  0.59540800  1
  Si  Si13  1  0.25386550  0.89656150  0.32269400  1
  Si  Si14  1  0.74613450  0.10343850  0.67730600  1
  Si  Si15  1  0.15148400  0.10336300  0.40459200  1
  Si  Si16  1  0.62775750  0.95425450  0.38580200  1
  Si  Si17  1  0.84851600  0.10336300  0.09540800  1
  Si  Si18  1  0.37224250  0.95425450  0.11419800  1
  Si  Si19  1  0.74613450  0.89656150  0.17730600  1
  Si  Si20  1  0.75386550  0.60343850  0.82269400  1
  Si  Si21  1  0.65148400  0.39663700  0.90459200  1
  Si  Si22  1  0.12775750  0.54574550  0.88580200  1
  Si  Si23  1  0.87224250  0.54574550  0.61419800  1
  Si  Si24  1  0.34851600  0.39663700  0.59540800  1
  Si  Si25  1  0.75386550  0.39656150  0.32269400  1
  Si  Si26  1  0.24613450  0.60343850  0.67730600  1
  Si  Si27  1  0.65148400  0.60336300  0.40459200  1
  Si  Si28  1  0.12775750  0.45425450  0.38580200  1
  Si  Si29  1  0.34851600  0.60336300  0.09540800  1
  Si  Si30  1  0.87224250  0.45425450  0.11419800  1
  Si  Si31  1  0.24613450  0.39656150  0.17730600  1
  Bi  Bi32  1  0.50672450  0.78134350  0.56684900  1
  Bi  Bi33  1  0.49327550  0.78134350  0.93315100  1
  Bi  Bi34  1  0.50672450  0.21865650  0.06684900  1
  Bi  Bi35  1  0.49327550  0.21865650  0.43315100  1
  Bi  Bi36  1  0.00672450  0.28134350  0.56684900  1
  Bi  Bi37  1  0.99327550  0.28134350  0.93315100  1
  Bi  Bi38  1  0.00672450  0.71865650  0.06684900  1
  Bi  Bi39  1  0.99327550  0.71865650  0.43315100  1
  O  O40  1  0.47839200  0.34668000  0.91966300  1
  O  O41  1  0.44367150  0.09945350  0.88279800  1
  O  O42  1  0.73720050  0.83073750  0.66642200  1
  O  O43  1  0.27241050  0.08246750  0.70537200  1
  O  O44  1  0.67285250  0.71445550  0.84057900  1
  O  O45  1  0.62061800  0.92170100  0.88810400  1
  O  O46  1  0.13657250  0.01642950  0.86454600  1
  O  O47  1  0.44367150  0.90054650  0.38279800  1
  O  O48  1  0.47839200  0.65332000  0.41966300  1
  O  O49  1  0.37938200  0.92170100  0.61189600  1
  O  O50  1  0.86342750  0.01642950  0.63545400  1
  O  O51  1  0.73720050  0.16926250  0.16642200  1
  O  O52  1  0.27241050  0.91753250  0.20537200  1
  O  O53  1  0.32714750  0.71445550  0.65942100  1
  O  O54  1  0.72412450  0.89654750  0.48546600  1
  O  O55  1  0.27587550  0.10345250  0.51453400  1
  O  O56  1  0.67285250  0.28554450  0.34057900  1
  O  O57  1  0.26279950  0.83073750  0.83357800  1
  O  O58  1  0.72758950  0.08246750  0.79462800  1
  O  O59  1  0.13657250  0.98357050  0.36454600  1
  O  O60  1  0.62061800  0.07829900  0.38810400  1
  O  O61  1  0.52160800  0.34668000  0.58033700  1
  O  O62  1  0.55632850  0.09945350  0.61720200  1
  O  O63  1  0.86342750  0.98357050  0.13545400  1
  O  O64  1  0.37938200  0.07829900  0.11189600  1
  O  O65  1  0.32714750  0.28554450  0.15942100  1
  O  O66  1  0.72412450  0.10345250  0.98546600  1
  O  O67  1  0.27587550  0.89654750  0.01453400  1
  O  O68  1  0.72758950  0.91753250  0.29462800  1
  O  O69  1  0.26279950  0.16926250  0.33357800  1
  O  O70  1  0.55632850  0.90054650  0.11720200  1
  O  O71  1  0.52160800  0.65332000  0.08033700  1
  O  O72  1  0.97839200  0.84668000  0.91966300  1
  O  O73  1  0.94367150  0.59945350  0.88279800  1
  O  O74  1  0.23720050  0.33073750  0.66642200  1
  O  O75  1  0.77241050  0.58246750  0.70537200  1
  O  O76  1  0.17285250  0.21445550  0.84057900  1
  O  O77  1  0.12061800  0.42170100  0.88810400  1
  O  O78  1  0.63657250  0.51642950  0.86454600  1
  O  O79  1  0.94367150  0.40054650  0.38279800  1
  O  O80  1  0.97839200  0.15332000  0.41966300  1
  O  O81  1  0.87938200  0.42170100  0.61189600  1
  O  O82  1  0.36342750  0.51642950  0.63545400  1
  O  O83  1  0.23720050  0.66926250  0.16642200  1
  O  O84  1  0.77241050  0.41753250  0.20537200  1
  O  O85  1  0.82714750  0.21445550  0.65942100  1
  O  O86  1  0.22412450  0.39654750  0.48546600  1
  O  O87  1  0.77587550  0.60345250  0.51453400  1
  O  O88  1  0.17285250  0.78554450  0.34057900  1
  O  O89  1  0.76279950  0.33073750  0.83357800  1
  O  O90  1  0.22758950  0.58246750  0.79462800  1
  O  O91  1  0.63657250  0.48357050  0.36454600  1
  O  O92  1  0.12061800  0.57829900  0.38810400  1
  O  O93  1  0.02160800  0.84668000  0.58033700  1
  O  O94  1  0.05632850  0.59945350  0.61720200  1
  O  O95  1  0.36342750  0.48357050  0.13545400  1
  O  O96  1  0.87938200  0.57829900  0.11189600  1
  O  O97  1  0.82714750  0.78554450  0.15942100  1
  O  O98  1  0.22412450  0.60345250  0.98546600  1
  O  O99  1  0.77587550  0.39654750  0.01453400  1
  O  O100  1  0.22758950  0.41753250  0.29462800  1
  O  O101  1  0.76279950  0.66926250  0.33357800  1
  O  O102  1  0.05632850  0.40054650  0.11720200  1
  O  O103  1  0.02160800  0.15332000  0.08033700  1
