# generated using pymatgen
data_Li2H12C3SN6O7
_symmetry_space_group_name_H-M   'P 1'
_cell_length_a   17.34797400
_cell_length_b   9.41638800
_cell_length_c   8.11463286
_cell_angle_alpha   90.00000000
_cell_angle_beta   112.00698364
_cell_angle_gamma   90.00000000
_symmetry_Int_Tables_number   1
_chemical_formula_structural   Li2H12C3SN6O7
_chemical_formula_sum   'Li8 H48 C12 S4 N24 O28'
_cell_volume   1228.98463246
_cell_formula_units_Z   4
loop_
 _symmetry_equiv_pos_site_id
 _symmetry_equiv_pos_as_xyz
  1  'x, y, z'
loop_
 _atom_site_type_symbol
 _atom_site_label
 _atom_site_symmetry_multiplicity
 _atom_site_fract_x
 _atom_site_fract_y
 _atom_site_fract_z
 _atom_site_occupancy
  Li  Li0  1  0.06871450  0.68800250  0.66168200  1
  Li  Li1  1  0.43128550  0.18800250  0.83831800  1
  Li  Li2  1  0.43128550  0.81199750  0.33831800  1
  Li  Li3  1  0.06871450  0.31199750  0.16168200  1
  Li  Li4  1  0.56871450  0.18800250  0.66168200  1
  Li  Li5  1  0.93128550  0.68800250  0.83831800  1
  Li  Li6  1  0.93128550  0.31199750  0.33831800  1
  Li  Li7  1  0.56871450  0.81199750  0.16168200  1
  H  H8  1  0.29783700  0.94240000  0.59587900  1
  H  H9  1  0.20216300  0.44240000  0.90412100  1
  H  H10  1  0.20216300  0.55760000  0.40412100  1
  H  H11  1  0.29783700  0.05760000  0.09587900  1
  H  H12  1  0.18836950  0.92445750  0.49871400  1
  H  H13  1  0.31163050  0.42445750  0.00128600  1
  H  H14  1  0.31163050  0.57554250  0.50128600  1
  H  H15  1  0.18836950  0.07554250  0.99871400  1
  H  H16  1  0.36838750  0.86318550  0.88546900  1
  H  H17  1  0.13161250  0.36318550  0.61453100  1
  H  H18  1  0.13161250  0.63681450  0.11453100  1
  H  H19  1  0.36838750  0.13681450  0.38546900  1
  H  H20  1  0.31574150  0.75889550  0.98584600  1
  H  H21  1  0.18425850  0.25889550  0.51415400  1
  H  H22  1  0.18425850  0.74110450  0.01415400  1
  H  H23  1  0.31574150  0.24110450  0.48584600  1
  H  H24  1  0.39419850  0.47068350  0.79919100  1
  H  H25  1  0.10580150  0.97068350  0.70080900  1
  H  H26  1  0.10580150  0.02931650  0.20080900  1
  H  H27  1  0.39419850  0.52931650  0.29919100  1
  H  H28  1  0.44517850  0.63256650  0.79695900  1
  H  H29  1  0.05482150  0.13256650  0.70304100  1
  H  H30  1  0.05482150  0.86743350  0.20304100  1
  H  H31  1  0.44517850  0.36743350  0.29695900  1
  H  H32  1  0.79783700  0.44240000  0.59587900  1
  H  H33  1  0.70216300  0.94240000  0.90412100  1
  H  H34  1  0.70216300  0.05760000  0.40412100  1
  H  H35  1  0.79783700  0.55760000  0.09587900  1
  H  H36  1  0.68836950  0.42445750  0.49871400  1
  H  H37  1  0.81163050  0.92445750  0.00128600  1
  H  H38  1  0.81163050  0.07554250  0.50128600  1
  H  H39  1  0.68836950  0.57554250  0.99871400  1
  H  H40  1  0.86838750  0.36318550  0.88546900  1
  H  H41  1  0.63161250  0.86318550  0.61453100  1
  H  H42  1  0.63161250  0.13681450  0.11453100  1
  H  H43  1  0.86838750  0.63681450  0.38546900  1
  H  H44  1  0.81574150  0.25889550  0.98584600  1
  H  H45  1  0.68425850  0.75889550  0.51415400  1
  H  H46  1  0.68425850  0.24110450  0.01415400  1
  H  H47  1  0.81574150  0.74110450  0.48584600  1
  H  H48  1  0.89419850  0.97068350  0.79919100  1
  H  H49  1  0.60580150  0.47068350  0.70080900  1
  H  H50  1  0.60580150  0.52931650  0.20080900  1
  H  H51  1  0.89419850  0.02931650  0.29919100  1
  H  H52  1  0.94517850  0.13256650  0.79695900  1
  H  H53  1  0.55482150  0.63256650  0.70304100  1
  H  H54  1  0.55482150  0.36743350  0.20304100  1
  H  H55  1  0.94517850  0.86743350  0.29695900  1
  C  C56  1  0.24341300  0.82870500  0.74059100  1
  C  C57  1  0.25658700  0.32870500  0.75940900  1
  C  C58  1  0.25658700  0.67129500  0.25940900  1
  C  C59  1  0.24341300  0.17129500  0.24059100  1
  C  C60  1  0.00000000  0.95076800  0.75000000  1
  C  C61  1  0.00000000  0.04923200  0.25000000  1
  C  C62  1  0.74341300  0.32870500  0.74059100  1
  C  C63  1  0.75658700  0.82870500  0.75940900  1
  C  C64  1  0.75658700  0.17129500  0.25940900  1
  C  C65  1  0.74341300  0.67129500  0.24059100  1
  C  C66  1  0.50000000  0.45076800  0.75000000  1
  C  C67  1  0.50000000  0.54923200  0.25000000  1
  S  S68  1  0.00000000  0.41390900  0.75000000  1
  S  S69  1  0.00000000  0.58609100  0.25000000  1
  S  S70  1  0.50000000  0.91390900  0.75000000  1
  S  S71  1  0.50000000  0.08609100  0.25000000  1
  N  N72  1  0.24303300  0.90898500  0.60217700  1
  N  N73  1  0.25696700  0.40898500  0.89782300  1
  N  N74  1  0.25696700  0.59101500  0.39782300  1
  N  N75  1  0.24303300  0.09101500  0.10217700  1
  N  N76  1  0.31761900  0.80302900  0.87282700  1
  N  N77  1  0.18238100  0.30302900  0.62717300  1
  N  N78  1  0.18238100  0.69697100  0.12717300  1
  N  N79  1  0.31761900  0.19697100  0.37282700  1
  N  N80  1  0.43699700  0.52637000  0.76806300  1
  N  N81  1  0.06300300  0.02637000  0.73193700  1
  N  N82  1  0.06300300  0.97363000  0.23193700  1
  N  N83  1  0.43699700  0.47363000  0.26806300  1
  N  N84  1  0.74303300  0.40898500  0.60217700  1
  N  N85  1  0.75696700  0.90898500  0.89782300  1
  N  N86  1  0.75696700  0.09101500  0.39782300  1
  N  N87  1  0.74303300  0.59101500  0.10217700  1
  N  N88  1  0.81761900  0.30302900  0.87282700  1
  N  N89  1  0.68238100  0.80302900  0.62717300  1
  N  N90  1  0.68238100  0.19697100  0.12717300  1
  N  N91  1  0.81761900  0.69697100  0.37282700  1
  N  N92  1  0.93699700  0.02637000  0.76806300  1
  N  N93  1  0.56300300  0.52637000  0.73193700  1
  N  N94  1  0.56300300  0.47363000  0.23193700  1
  N  N95  1  0.93699700  0.97363000  0.26806300  1
  O  O96  1  0.48908800  0.82082300  0.59431700  1
  O  O97  1  0.01091200  0.32082300  0.90568300  1
  O  O98  1  0.01091200  0.67917700  0.40568300  1
  O  O99  1  0.48908800  0.17917700  0.09431700  1
  O  O100  1  0.07510300  0.50556900  0.78743100  1
  O  O101  1  0.42489700  0.00556900  0.71256900  1
  O  O102  1  0.42489700  0.99443100  0.21256900  1
  O  O103  1  0.07510300  0.49443100  0.28743100  1
  O  O104  1  0.17667900  0.77950700  0.74841500  1
  O  O105  1  0.32332100  0.27950700  0.75158500  1
  O  O106  1  0.32332100  0.72049300  0.25158500  1
  O  O107  1  0.17667900  0.22049300  0.24841500  1
  O  O108  1  0.00000000  0.81590900  0.75000000  1
  O  O109  1  0.00000000  0.18409100  0.25000000  1
  O  O110  1  0.98908800  0.32082300  0.59431700  1
  O  O111  1  0.51091200  0.82082300  0.90568300  1
  O  O112  1  0.51091200  0.17917700  0.40568300  1
  O  O113  1  0.98908800  0.67917700  0.09431700  1
  O  O114  1  0.57510300  0.00556900  0.78743100  1
  O  O115  1  0.92489700  0.50556900  0.71256900  1
  O  O116  1  0.92489700  0.49443100  0.21256900  1
  O  O117  1  0.57510300  0.99443100  0.28743100  1
  O  O118  1  0.67667900  0.27950700  0.74841500  1
  O  O119  1  0.82332100  0.77950700  0.75158500  1
  O  O120  1  0.82332100  0.22049300  0.25158500  1
  O  O121  1  0.67667900  0.72049300  0.24841500  1
  O  O122  1  0.50000000  0.31590900  0.75000000  1
  O  O123  1  0.50000000  0.68409100  0.25000000  1
