# generated using pymatgen
data_Na3BiO4
_symmetry_space_group_name_H-M   'P 1'
_cell_length_a   6.82940400
_cell_length_b   9.46528800
_cell_length_c   3.35388700
_cell_angle_alpha   90.00000000
_cell_angle_beta   90.00000000
_cell_angle_gamma   90.00000000
_symmetry_Int_Tables_number   1
_chemical_formula_structural   Na3BiO4
_chemical_formula_sum   'Na6 Bi2 O8'
_cell_volume   216.80288822
_cell_formula_units_Z   2
loop_
 _symmetry_equiv_pos_site_id
 _symmetry_equiv_pos_as_xyz
  1  'x, y, z'
loop_
 _atom_site_type_symbol
 _atom_site_label
 _atom_site_symmetry_multiplicity
 _atom_site_fract_x
 _atom_site_fract_y
 _atom_site_fract_z
 _atom_site_occupancy
  Na  Na0  1  0.25000000  0.75000000  0.00000000  1
  Na  Na1  1  0.50000000  0.00000000  0.50000000  1
  Na  Na2  1  0.25000000  0.25000000  0.00000000  1
  Na  Na3  1  0.75000000  0.25000000  0.00000000  1
  Na  Na4  1  0.00000000  0.50000000  0.50000000  1
  Na  Na5  1  0.75000000  0.75000000  0.00000000  1
  Bi  Bi6  1  0.00000000  0.00000000  0.50000000  1
  Bi  Bi7  1  0.50000000  0.50000000  0.50000000  1
  O  O8  1  0.77826600  0.00000000  0.00000000  1
  O  O9  1  0.50000000  0.71910100  0.50000000  1
  O  O10  1  0.22173400  0.00000000  0.00000000  1
  O  O11  1  0.50000000  0.28089900  0.50000000  1
  O  O12  1  0.27826600  0.50000000  0.00000000  1
  O  O13  1  0.00000000  0.21910100  0.50000000  1
  O  O14  1  0.72173400  0.50000000  0.00000000  1
  O  O15  1  0.00000000  0.78089900  0.50000000  1
