# generated using pymatgen
data_LiFeSiO4
_symmetry_space_group_name_H-M   'P 1'
_cell_length_a   5.19694204
_cell_length_b   5.19694204
_cell_length_c   22.98951874
_cell_angle_alpha   90.00000000
_cell_angle_beta   90.00000000
_cell_angle_gamma   120.00000000
_symmetry_Int_Tables_number   1
_chemical_formula_structural   LiFeSiO4
_chemical_formula_sum   'Li6 Fe6 Si6 O24'
_cell_volume   537.72008551
_cell_formula_units_Z   6
loop_
 _symmetry_equiv_pos_site_id
 _symmetry_equiv_pos_as_xyz
  1  'x, y, z'
loop_
 _atom_site_type_symbol
 _atom_site_label
 _atom_site_symmetry_multiplicity
 _atom_site_fract_x
 _atom_site_fract_y
 _atom_site_fract_z
 _atom_site_occupancy
  Li  Li0  1  0.00000000  0.00000000  0.13406300  1
  Li  Li1  1  0.66666667  0.33333333  0.19927033  1
  Li  Li2  1  0.66666667  0.33333333  0.46739633  1
  Li  Li3  1  0.33333333  0.66666667  0.53260367  1
  Li  Li4  1  0.33333333  0.66666667  0.80072967  1
  Li  Li5  1  0.00000000  0.00000000  0.86593700  1
  Fe  Fe6  1  0.66666667  0.33333333  0.06729633  1
  Fe  Fe7  1  0.00000000  0.00000000  0.26603700  1
  Fe  Fe8  1  0.33333333  0.66666667  0.40062967  1
  Fe  Fe9  1  0.66666667  0.33333333  0.59937033  1
  Fe  Fe10  1  0.00000000  0.00000000  0.73396300  1
  Fe  Fe11  1  0.33333333  0.66666667  0.93270367  1
  Si  Si12  1  0.33333333  0.66666667  0.08251167  1
  Si  Si13  1  0.33333333  0.66666667  0.25082167  1
  Si  Si14  1  0.00000000  0.00000000  0.41584500  1
  Si  Si15  1  0.00000000  0.00000000  0.58415500  1
  Si  Si16  1  0.66666667  0.33333333  0.74917833  1
  Si  Si17  1  0.66666667  0.33333333  0.91748833  1
  O  O18  1  0.01809533  0.37805667  0.10526667  1
  O  O19  1  0.04472333  0.69329467  0.22806667  1
  O  O20  1  0.62194333  0.64003867  0.10526667  1
  O  O21  1  0.64857133  0.95527667  0.22806667  1
  O  O22  1  0.30670533  0.35142867  0.22806667  1
  O  O23  1  0.33333333  0.66666667  0.01163967  1
  O  O24  1  0.33333333  0.66666667  0.32169367  1
  O  O25  1  0.35996133  0.98190467  0.10526667  1
  O  O26  1  0.68476200  0.71139000  0.43860000  1
  O  O27  1  0.71139000  0.02662800  0.56140000  1
  O  O28  1  0.28861000  0.97337200  0.43860000  1
  O  O29  1  0.31523800  0.28861000  0.56140000  1
  O  O30  1  0.97337200  0.68476200  0.56140000  1
  O  O31  1  0.00000000  0.00000000  0.34497300  1
  O  O32  1  0.00000000  0.00000000  0.65502700  1
  O  O33  1  0.02662800  0.31523800  0.43860000  1
  O  O34  1  0.35142867  0.04472333  0.77193333  1
  O  O35  1  0.37805667  0.35996133  0.89473333  1
  O  O36  1  0.95527667  0.30670533  0.77193333  1
  O  O37  1  0.98190467  0.62194333  0.89473333  1
  O  O38  1  0.64003867  0.01809533  0.89473333  1
  O  O39  1  0.66666667  0.33333333  0.67830633  1
  O  O40  1  0.66666667  0.33333333  0.98836033  1
  O  O41  1  0.69329467  0.64857133  0.77193333  1
