# generated using pymatgen
data_Sr3La4O9
_symmetry_space_group_name_H-M   'P 1'
_cell_length_a   6.22731434
_cell_length_b   6.22731434
_cell_length_c   26.92572210
_cell_angle_alpha   90.00000000
_cell_angle_beta   90.00000000
_cell_angle_gamma   120.00000000
_symmetry_Int_Tables_number   1
_chemical_formula_structural   Sr3La4O9
_chemical_formula_sum   'Sr9 La12 O27'
_cell_volume   904.27300916
_cell_formula_units_Z   3
loop_
 _symmetry_equiv_pos_site_id
 _symmetry_equiv_pos_as_xyz
  1  'x, y, z'
loop_
 _atom_site_type_symbol
 _atom_site_label
 _atom_site_symmetry_multiplicity
 _atom_site_fract_x
 _atom_site_fract_y
 _atom_site_fract_z
 _atom_site_occupancy
  Sr  Sr0  1  0.66666667  0.33333333  0.15094133  1
  Sr  Sr1  1  0.66666667  0.33333333  0.32947233  1
  Sr  Sr2  1  0.33333333  0.66666667  0.09232467  1
  Sr  Sr3  1  0.33333333  0.66666667  0.48427467  1
  Sr  Sr4  1  0.33333333  0.66666667  0.66280567  1
  Sr  Sr5  1  0.00000000  0.00000000  0.42565800  1
  Sr  Sr6  1  0.00000000  0.00000000  0.81760800  1
  Sr  Sr7  1  0.00000000  0.00000000  0.99613900  1
  Sr  Sr8  1  0.66666667  0.33333333  0.75899133  1
  La  La9  1  0.66666667  0.33333333  0.02187733  1
  La  La10  1  0.33333333  0.66666667  0.22675167  1
  La  La11  1  0.00000000  0.00000000  0.12461300  1
  La  La12  1  0.00000000  0.00000000  0.25604500  1
  La  La13  1  0.33333333  0.66666667  0.35521067  1
  La  La14  1  0.00000000  0.00000000  0.56008500  1
  La  La15  1  0.66666667  0.33333333  0.45794633  1
  La  La16  1  0.66666667  0.33333333  0.58937833  1
  La  La17  1  0.00000000  0.00000000  0.68854400  1
  La  La18  1  0.66666667  0.33333333  0.89341833  1
  La  La19  1  0.33333333  0.66666667  0.79127967  1
  La  La20  1  0.33333333  0.66666667  0.92271167  1
  O  O21  1  0.71404933  0.66156367  0.07356767  1
  O  O22  1  0.33843633  0.05248567  0.07356767  1
  O  O23  1  0.94751433  0.28595067  0.07356767  1
  O  O24  1  0.04738933  0.71825867  0.17961967  1
  O  O25  1  0.04474167  0.69178433  0.29350333  1
  O  O26  1  0.64704267  0.95525833  0.29350333  1
  O  O27  1  0.67086933  0.95261067  0.17961967  1
  O  O28  1  0.30821567  0.35295733  0.29350333  1
  O  O29  1  0.28174133  0.32913067  0.17961967  1
  O  O30  1  0.38071600  0.99489700  0.40690100  1
  O  O31  1  0.00510300  0.38581900  0.40690100  1
  O  O32  1  0.61418100  0.61928400  0.40690100  1
  O  O33  1  0.71405600  0.05159200  0.51295300  1
  O  O34  1  0.71140833  0.02511767  0.62683667  1
  O  O35  1  0.31370933  0.28859167  0.62683667  1
  O  O36  1  0.33753600  0.28594400  0.51295300  1
  O  O37  1  0.97488233  0.68629067  0.62683667  1
  O  O38  1  0.94840800  0.66246400  0.51295300  1
  O  O39  1  0.04738267  0.32823033  0.74023433  1
  O  O40  1  0.67176967  0.71915233  0.74023433  1
  O  O41  1  0.28084767  0.95261733  0.74023433  1
  O  O42  1  0.38072267  0.38492533  0.84628633  1
  O  O43  1  0.37807500  0.35845100  0.96017000  1
  O  O44  1  0.98037600  0.62192500  0.96017000  1
  O  O45  1  0.00420267  0.61927733  0.84628633  1
  O  O46  1  0.64154900  0.01962400  0.96017000  1
  O  O47  1  0.61507467  0.99579733  0.84628633  1
