# generated using pymatgen
data_Ca2P6O17
_symmetry_space_group_name_H-M   'P 1'
_cell_length_a   5.86184700
_cell_length_b   18.40467400
_cell_length_c   7.79773567
_cell_angle_alpha   90.00000000
_cell_angle_beta   112.05819426
_cell_angle_gamma   90.00000000
_symmetry_Int_Tables_number   1
_chemical_formula_structural   Ca2P6O17
_chemical_formula_sum   'Ca4 P12 O34'
_cell_volume   779.68377959
_cell_formula_units_Z   2
loop_
 _symmetry_equiv_pos_site_id
 _symmetry_equiv_pos_as_xyz
  1  'x, y, z'
loop_
 _atom_site_type_symbol
 _atom_site_label
 _atom_site_symmetry_multiplicity
 _atom_site_fract_x
 _atom_site_fract_y
 _atom_site_fract_z
 _atom_site_occupancy
  Ca  Ca0  1  0.09325200  0.42667900  0.60555500  1
  Ca  Ca1  1  0.08902300  0.07449600  0.10599000  1
  Ca  Ca2  1  0.90674800  0.92667900  0.39444500  1
  Ca  Ca3  1  0.91097700  0.57449600  0.89401000  1
  P  P4  1  0.31535200  0.67964400  0.72707500  1
  P  P5  1  0.27318700  0.66772600  0.33340500  1
  P  P6  1  0.31530500  0.82119600  0.22678400  1
  P  P7  1  0.48255900  0.02839300  0.55637700  1
  P  P8  1  0.51744100  0.52839300  0.44362300  1
  P  P9  1  0.27197600  0.83294500  0.83126300  1
  P  P10  1  0.72681300  0.16772600  0.66659500  1
  P  P11  1  0.49386800  0.47242100  0.05394100  1
  P  P12  1  0.50613200  0.97242100  0.94605900  1
  P  P13  1  0.68464800  0.17964400  0.27292500  1
  P  P14  1  0.72802400  0.33294500  0.16873700  1
  P  P15  1  0.68469500  0.32119600  0.77321600  1
  O  O16  1  0.06131600  0.86187900  0.67338900  1
  O  O17  1  0.19614800  0.68816500  0.50072200  1
  O  O18  1  0.10815700  0.84041000  0.28400700  1
  O  O19  1  0.06455500  0.63778000  0.17572700  1
  O  O20  1  0.23402200  0.01325200  0.40794700  1
  O  O21  1  0.28711400  0.50271800  0.46241700  1
  O  O22  1  0.45319500  0.36387800  0.71641400  1
  O  O23  1  0.19879500  0.81273800  0.00046700  1
  O  O24  1  0.49274400  0.11666000  0.58693100  1
  O  O25  1  0.10809800  0.66055400  0.78414600  1
  O  O26  1  0.60024800  0.23696800  0.71238200  1
  O  O27  1  0.39975200  0.73696800  0.28761800  1
  O  O28  1  0.23817900  0.48889900  0.91784200  1
  O  O29  1  0.50725600  0.61666000  0.41306900  1
  O  O30  1  0.28577200  0.99146400  0.98783600  1
  O  O31  1  0.45475000  0.13623700  0.21651300  1
  O  O32  1  0.54680500  0.86387800  0.28358600  1
  O  O33  1  0.53114500  0.50406400  0.25216900  1
  O  O34  1  0.71288600  0.00271800  0.53758300  1
  O  O35  1  0.49567700  0.38503400  0.09508400  1
  O  O36  1  0.76597800  0.51325200  0.59205300  1
  O  O37  1  0.59891200  0.26367500  0.21211600  1
  O  O38  1  0.40108800  0.76367500  0.78788400  1
  O  O39  1  0.89184300  0.34041000  0.71599300  1
  O  O40  1  0.50432300  0.88503400  0.90491600  1
  O  O41  1  0.80385200  0.18816500  0.49927800  1
  O  O42  1  0.46885500  0.00406400  0.74783100  1
  O  O43  1  0.54525000  0.63623700  0.78348700  1
  O  O44  1  0.71422800  0.49146400  0.01216400  1
  O  O45  1  0.76182100  0.98889900  0.08215800  1
  O  O46  1  0.93868400  0.36187900  0.32661100  1
  O  O47  1  0.89190200  0.16055400  0.21585400  1
  O  O48  1  0.80120500  0.31273800  0.99953300  1
  O  O49  1  0.93544500  0.13778000  0.82427300  1
