# generated using pymatgen
data_Na4H2RuN6O13
_symmetry_space_group_name_H-M   'P 1'
_cell_length_a   8.00197800
_cell_length_b   13.04987600
_cell_length_c   12.29190347
_cell_angle_alpha   90.00000000
_cell_angle_beta   94.80640388
_cell_angle_gamma   90.00000000
_symmetry_Int_Tables_number   1
_chemical_formula_structural   Na4H2RuN6O13
_chemical_formula_sum   'Na16 H8 Ru4 N24 O52'
_cell_volume   1279.06610783
_cell_formula_units_Z   4
loop_
 _symmetry_equiv_pos_site_id
 _symmetry_equiv_pos_as_xyz
  1  'x, y, z'
loop_
 _atom_site_type_symbol
 _atom_site_label
 _atom_site_symmetry_multiplicity
 _atom_site_fract_x
 _atom_site_fract_y
 _atom_site_fract_z
 _atom_site_occupancy
  Na  Na0  1  0.15280100  0.12479100  0.38067300  1
  Na  Na1  1  0.84719900  0.12479100  0.11932700  1
  Na  Na2  1  0.84719900  0.87520900  0.61932700  1
  Na  Na3  1  0.15280100  0.87520900  0.88067300  1
  Na  Na4  1  0.74304450  0.91291350  0.30637500  1
  Na  Na5  1  0.25695550  0.91291350  0.19362500  1
  Na  Na6  1  0.25695550  0.08708650  0.69362500  1
  Na  Na7  1  0.74304450  0.08708650  0.80637500  1
  Na  Na8  1  0.65280100  0.62479100  0.38067300  1
  Na  Na9  1  0.34719900  0.62479100  0.11932700  1
  Na  Na10  1  0.34719900  0.37520900  0.61932700  1
  Na  Na11  1  0.65280100  0.37520900  0.88067300  1
  Na  Na12  1  0.24304450  0.41291350  0.30637500  1
  Na  Na13  1  0.75695550  0.41291350  0.19362500  1
  Na  Na14  1  0.75695550  0.58708650  0.69362500  1
  Na  Na15  1  0.24304450  0.58708650  0.80637500  1
  H  H16  1  0.48460900  0.04787400  0.31234100  1
  H  H17  1  0.51539100  0.04787400  0.18765900  1
  H  H18  1  0.51539100  0.95212600  0.68765900  1
  H  H19  1  0.48460900  0.95212600  0.81234100  1
  H  H20  1  0.98460900  0.54787400  0.31234100  1
  H  H21  1  0.01539100  0.54787400  0.18765900  1
  H  H22  1  0.01539100  0.45212600  0.68765900  1
  H  H23  1  0.98460900  0.45212600  0.81234100  1
  Ru  Ru24  1  0.75000000  0.25000000  0.50000000  1
  Ru  Ru25  1  0.75000000  0.75000000  0.00000000  1
  Ru  Ru26  1  0.25000000  0.75000000  0.50000000  1
  Ru  Ru27  1  0.25000000  0.25000000  0.00000000  1
  N  N28  1  0.61451200  0.37332800  0.43231400  1
  N  N29  1  0.38548800  0.37332800  0.06768600  1
  N  N30  1  0.38548800  0.62667200  0.56768600  1
  N  N31  1  0.61451200  0.62667200  0.93231400  1
  N  N32  1  0.47749150  0.82500350  0.48473200  1
  N  N33  1  0.52250850  0.82500350  0.01526800  1
  N  N34  1  0.52250850  0.17499650  0.51526800  1
  N  N35  1  0.47749150  0.17499650  0.98473200  1
  N  N36  1  0.76681200  0.19051900  0.34387900  1
  N  N37  1  0.23318800  0.19051900  0.15612100  1
  N  N38  1  0.23318800  0.80948100  0.65612100  1
  N  N39  1  0.76681200  0.80948100  0.84387900  1
  N  N40  1  0.11451200  0.87332800  0.43231400  1
  N  N41  1  0.88548800  0.87332800  0.06768600  1
  N  N42  1  0.88548800  0.12667200  0.56768600  1
  N  N43  1  0.11451200  0.12667200  0.93231400  1
  N  N44  1  0.97749150  0.32500350  0.48473200  1
  N  N45  1  0.02250850  0.32500350  0.01526800  1
  N  N46  1  0.02250850  0.67499650  0.51526800  1
  N  N47  1  0.97749150  0.67499650  0.98473200  1
  N  N48  1  0.26681200  0.69051900  0.34387900  1
  N  N49  1  0.73318800  0.69051900  0.15612100  1
  N  N50  1  0.73318800  0.30948100  0.65612100  1
  N  N51  1  0.26681200  0.30948100  0.84387900  1
  O  O52  1  0.46012400  0.38330000  0.44406300  1
  O  O53  1  0.53987600  0.38330000  0.05593700  1
  O  O54  1  0.53987600  0.61670000  0.55593700  1
  O  O55  1  0.46012400  0.61670000  0.94406300  1
  O  O56  1  0.18226250  0.93963150  0.37553600  1
  O  O57  1  0.81773750  0.93963150  0.12446400  1
  O  O58  1  0.81773750  0.06036850  0.62446400  1
  O  O59  1  0.18226250  0.06036850  0.87553600  1
  O  O60  1  0.55957900  0.80580200  0.40340300  1
  O  O61  1  0.44042100  0.80580200  0.09659700  1
  O  O62  1  0.44042100  0.19419800  0.59659700  1
  O  O63  1  0.55957900  0.19419800  0.90340300  1
  O  O64  1  0.54268950  0.88671250  0.55466000  1
  O  O65  1  0.45731050  0.88671250  0.94534000  1
  O  O66  1  0.45731050  0.11328750  0.44534000  1
  O  O67  1  0.54268950  0.11328750  0.05466000  1
  O  O68  1  0.70651150  0.23624250  0.25950300  1
  O  O69  1  0.29348850  0.23624250  0.24049700  1
  O  O70  1  0.29348850  0.76375750  0.74049700  1
  O  O71  1  0.70651150  0.76375750  0.75950300  1
  O  O72  1  0.84332450  0.10675750  0.32943100  1
  O  O73  1  0.15667550  0.10675750  0.17056900  1
  O  O74  1  0.15667550  0.89324250  0.67056900  1
  O  O75  1  0.84332450  0.89324250  0.82943100  1
  O  O76  1  0.50000000  0.00252400  0.25000000  1
  O  O77  1  0.50000000  0.99747600  0.75000000  1
  O  O78  1  0.96012400  0.88330000  0.44406300  1
  O  O79  1  0.03987600  0.88330000  0.05593700  1
  O  O80  1  0.03987600  0.11670000  0.55593700  1
  O  O81  1  0.96012400  0.11670000  0.94406300  1
  O  O82  1  0.68226250  0.43963150  0.37553600  1
  O  O83  1  0.31773750  0.43963150  0.12446400  1
  O  O84  1  0.31773750  0.56036850  0.62446400  1
  O  O85  1  0.68226250  0.56036850  0.87553600  1
  O  O86  1  0.05957900  0.30580200  0.40340300  1
  O  O87  1  0.94042100  0.30580200  0.09659700  1
  O  O88  1  0.94042100  0.69419800  0.59659700  1
  O  O89  1  0.05957900  0.69419800  0.90340300  1
  O  O90  1  0.04268950  0.38671250  0.55466000  1
  O  O91  1  0.95731050  0.38671250  0.94534000  1
  O  O92  1  0.95731050  0.61328750  0.44534000  1
  O  O93  1  0.04268950  0.61328750  0.05466000  1
  O  O94  1  0.20651150  0.73624250  0.25950300  1
  O  O95  1  0.79348850  0.73624250  0.24049700  1
  O  O96  1  0.79348850  0.26375750  0.74049700  1
  O  O97  1  0.20651150  0.26375750  0.75950300  1
  O  O98  1  0.34332450  0.60675750  0.32943100  1
  O  O99  1  0.65667550  0.60675750  0.17056900  1
  O  O100  1  0.65667550  0.39324250  0.67056900  1
  O  O101  1  0.34332450  0.39324250  0.82943100  1
  O  O102  1  0.00000000  0.50252400  0.25000000  1
  O  O103  1  0.00000000  0.49747600  0.75000000  1
