# generated using pymatgen
data_Ba3Y2Br12
_symmetry_space_group_name_H-M   'P 1'
_cell_length_a   13.50206100
_cell_length_b   13.00816300
_cell_length_c   19.14835529
_cell_angle_alpha   90.00000000
_cell_angle_beta   133.49064108
_cell_angle_gamma   90.00000000
_symmetry_Int_Tables_number   1
_chemical_formula_structural   Ba3Y2Br12
_chemical_formula_sum   'Ba12 Y8 Br48'
_cell_volume   2439.92809534
_cell_formula_units_Z   4
loop_
 _symmetry_equiv_pos_site_id
 _symmetry_equiv_pos_as_xyz
  1  'x, y, z'
loop_
 _atom_site_type_symbol
 _atom_site_label
 _atom_site_symmetry_multiplicity
 _atom_site_fract_x
 _atom_site_fract_y
 _atom_site_fract_z
 _atom_site_occupancy
  Ba  Ba0  1  0.16766100  0.71993000  0.69582100  1
  Ba  Ba1  1  0.29259700  0.11018100  0.80918900  1
  Ba  Ba2  1  0.28265500  0.49048000  0.97540300  1
  Ba  Ba3  1  0.71734500  0.99048000  0.52459700  1
  Ba  Ba4  1  0.70740300  0.61018100  0.69081100  1
  Ba  Ba5  1  0.83233900  0.21993000  0.80417900  1
  Ba  Ba6  1  0.16766100  0.78007000  0.19582100  1
  Ba  Ba7  1  0.29259700  0.38981900  0.30918900  1
  Ba  Ba8  1  0.28265500  0.00952000  0.47540300  1
  Ba  Ba9  1  0.71734500  0.50952000  0.02459700  1
  Ba  Ba10  1  0.70740300  0.88981900  0.19081100  1
  Ba  Ba11  1  0.83233900  0.28007000  0.30417900  1
  Y  Y12  1  0.87569200  0.35031100  0.56553800  1
  Y  Y13  1  0.66226800  0.67652700  0.35466000  1
  Y  Y14  1  0.12430800  0.85031100  0.93446200  1
  Y  Y15  1  0.33773200  0.17652700  0.14534000  1
  Y  Y16  1  0.66226800  0.82347300  0.85466000  1
  Y  Y17  1  0.87569200  0.14968900  0.06553800  1
  Y  Y18  1  0.33773200  0.32347300  0.64534000  1
  Y  Y19  1  0.12430800  0.64968900  0.43446200  1
  Br  Br20  1  0.08387400  0.24951300  0.57708200  1
  Br  Br21  1  0.41835000  0.62422300  0.91475900  1
  Br  Br22  1  0.05026500  0.95340800  0.64710700  1
  Br  Br23  1  0.34485800  0.92058500  0.96465300  1
  Br  Br24  1  0.60161900  0.65469000  0.18368700  1
  Br  Br25  1  0.56390500  0.11175800  0.18013100  1
  Br  Br26  1  0.79924100  0.47729800  0.41342000  1
  Br  Br27  1  0.07480600  0.47867700  0.71222400  1
  Br  Br28  1  0.73972000  0.19538000  0.42578200  1
  Br  Br29  1  0.58761100  0.88155600  0.30799000  1
  Br  Br30  1  0.78738600  0.72364200  0.54530000  1
  Br  Br31  1  0.95327500  0.20019300  0.69698700  1
  Br  Br32  1  0.04672500  0.70019300  0.80301300  1
  Br  Br33  1  0.21261400  0.22364200  0.95470000  1
  Br  Br34  1  0.41238900  0.38155600  0.19201000  1
  Br  Br35  1  0.26028000  0.69538000  0.07421800  1
  Br  Br36  1  0.92519400  0.97867700  0.78777600  1
  Br  Br37  1  0.20075900  0.97729800  0.08658000  1
  Br  Br38  1  0.43609500  0.61175800  0.31986900  1
  Br  Br39  1  0.65514200  0.42058500  0.53534700  1
  Br  Br40  1  0.39838100  0.15469000  0.31631300  1
  Br  Br41  1  0.94973500  0.45340800  0.85289300  1
  Br  Br42  1  0.58165000  0.12422300  0.58524100  1
  Br  Br43  1  0.91612600  0.74951300  0.92291800  1
  Br  Br44  1  0.08387400  0.25048700  0.07708200  1
  Br  Br45  1  0.41835000  0.87577700  0.41475900  1
  Br  Br46  1  0.05026500  0.54659200  0.14710700  1
  Br  Br47  1  0.60161900  0.84531000  0.68368700  1
  Br  Br48  1  0.34485800  0.57941500  0.46465300  1
  Br  Br49  1  0.56390500  0.38824200  0.68013100  1
  Br  Br50  1  0.79924100  0.02270200  0.91342000  1
  Br  Br51  1  0.07480600  0.02132300  0.21222400  1
  Br  Br52  1  0.73972000  0.30462000  0.92578200  1
  Br  Br53  1  0.58761100  0.61844400  0.80799000  1
  Br  Br54  1  0.78738600  0.77635800  0.04530000  1
  Br  Br55  1  0.95327500  0.29980700  0.19698700  1
  Br  Br56  1  0.04672500  0.79980700  0.30301300  1
  Br  Br57  1  0.21261400  0.27635800  0.45470000  1
  Br  Br58  1  0.41238900  0.11844400  0.69201000  1
  Br  Br59  1  0.26028000  0.80462000  0.57421800  1
  Br  Br60  1  0.92519400  0.52132300  0.28777600  1
  Br  Br61  1  0.20075900  0.52270200  0.58658000  1
  Br  Br62  1  0.43609500  0.88824200  0.81986900  1
  Br  Br63  1  0.39838100  0.34531000  0.81631300  1
  Br  Br64  1  0.65514200  0.07941500  0.03534700  1
  Br  Br65  1  0.94973500  0.04659200  0.35289300  1
  Br  Br66  1  0.58165000  0.37577700  0.08524100  1
  Br  Br67  1  0.91612600  0.75048700  0.42291800  1
