# generated using pymatgen
data_Nb9VO25
_symmetry_space_group_name_H-M   'P 1'
_cell_length_a   16.03416200
_cell_length_b   16.03416200
_cell_length_c   3.88075800
_cell_angle_alpha   90.00000000
_cell_angle_beta   90.00000000
_cell_angle_gamma   90.00000000
_symmetry_Int_Tables_number   1
_chemical_formula_structural   Nb9VO25
_chemical_formula_sum   'Nb18 V2 O50'
_cell_volume   997.72095956
_cell_formula_units_Z   2
loop_
 _symmetry_equiv_pos_site_id
 _symmetry_equiv_pos_as_xyz
  1  'x, y, z'
loop_
 _atom_site_type_symbol
 _atom_site_label
 _atom_site_symmetry_multiplicity
 _atom_site_fract_x
 _atom_site_fract_y
 _atom_site_fract_z
 _atom_site_occupancy
  Nb  Nb0  1  0.00000000  0.00000000  0.00000000  1
  Nb  Nb1  1  0.60589000  0.71872400  0.50693800  1
  Nb  Nb2  1  0.38353400  0.82508100  0.48455800  1
  Nb  Nb3  1  0.67491900  0.88353400  0.01544200  1
  Nb  Nb4  1  0.21872400  0.89411000  0.99306200  1
  Nb  Nb5  1  0.78127600  0.10589000  0.99306200  1
  Nb  Nb6  1  0.32508100  0.11646600  0.01544200  1
  Nb  Nb7  1  0.61646600  0.17491900  0.48455800  1
  Nb  Nb8  1  0.39411000  0.28127600  0.50693800  1
  Nb  Nb9  1  0.50000000  0.50000000  0.50000000  1
  Nb  Nb10  1  0.10589000  0.21872400  0.00693800  1
  Nb  Nb11  1  0.88353400  0.32508100  0.98455800  1
  Nb  Nb12  1  0.17491900  0.38353400  0.51544200  1
  Nb  Nb13  1  0.71872400  0.39411000  0.49306200  1
  Nb  Nb14  1  0.28127600  0.60589000  0.49306200  1
  Nb  Nb15  1  0.82508100  0.61646600  0.51544200  1
  Nb  Nb16  1  0.11646600  0.67491900  0.98455800  1
  Nb  Nb17  1  0.89411000  0.78127600  0.00693800  1
  V  V18  1  0.50000000  0.00000000  0.75000000  1
  V  V19  1  0.00000000  0.50000000  0.25000000  1
  O  O20  1  0.00000000  0.00000000  0.50000000  1
  O  O21  1  0.55025900  0.61665200  0.49838200  1
  O  O22  1  0.32452650  0.71605750  0.49587050  1
  O  O23  1  0.61248050  0.75167050  0.00456450  1
  O  O24  1  0.48785300  0.78022800  0.49204400  1
  O  O25  1  0.78394250  0.82452650  0.00412950  1
  O  O26  1  0.35270000  0.84169900  0.99456300  1
  O  O27  1  0.65830100  0.85270000  0.50543700  1
  O  O28  1  0.25167050  0.88751950  0.49543550  1
  O  O29  1  0.55521400  0.92694300  0.99095900  1
  O  O30  1  0.42694300  0.94478600  0.50904100  1
  O  O31  1  0.11665200  0.94974100  0.00161800  1
  O  O32  1  0.71977200  0.98785300  0.00795600  1
  O  O33  1  0.28022800  0.01214700  0.00795600  1
  O  O34  1  0.88334800  0.05025900  0.00161800  1
  O  O35  1  0.57305700  0.05521400  0.50904100  1
  O  O36  1  0.44478600  0.07305700  0.99095900  1
  O  O37  1  0.74832950  0.11248050  0.49543550  1
  O  O38  1  0.34169900  0.14730000  0.50543700  1
  O  O39  1  0.64730000  0.15830100  0.99456300  1
  O  O40  1  0.21605750  0.17547350  0.00412950  1
  O  O41  1  0.51214700  0.21977200  0.49204400  1
  O  O42  1  0.38751950  0.24832950  0.00456450  1
  O  O43  1  0.67547350  0.28394250  0.49587050  1
  O  O44  1  0.44974100  0.38334800  0.49838200  1
  O  O45  1  0.50000000  0.50000000  0.00000000  1
  O  O46  1  0.05025900  0.11665200  0.99838200  1
  O  O47  1  0.82452650  0.21605750  0.99587050  1
  O  O48  1  0.11248050  0.25167050  0.50456450  1
  O  O49  1  0.98785300  0.28022800  0.99204400  1
  O  O50  1  0.28394250  0.32452650  0.50412950  1
  O  O51  1  0.85270000  0.34169900  0.49456300  1
  O  O52  1  0.15830100  0.35270000  0.00543700  1
  O  O53  1  0.75167050  0.38751950  0.99543550  1
  O  O54  1  0.05521400  0.42694300  0.49095900  1
  O  O55  1  0.92694300  0.44478600  0.00904100  1
  O  O56  1  0.61665200  0.44974100  0.50161800  1
  O  O57  1  0.21977200  0.48785300  0.50795600  1
  O  O58  1  0.78022800  0.51214700  0.50795600  1
  O  O59  1  0.38334800  0.55025900  0.50161800  1
  O  O60  1  0.07305700  0.55521400  0.00904100  1
  O  O61  1  0.94478600  0.57305700  0.49095900  1
  O  O62  1  0.24832950  0.61248050  0.99543550  1
  O  O63  1  0.84169900  0.64730000  0.00543700  1
  O  O64  1  0.14730000  0.65830100  0.49456300  1
  O  O65  1  0.71605750  0.67547350  0.50412950  1
  O  O66  1  0.01214700  0.71977200  0.99204400  1
  O  O67  1  0.88751950  0.74832950  0.50456450  1
  O  O68  1  0.17547350  0.78394250  0.99587050  1
  O  O69  1  0.94974100  0.88334800  0.99838200  1
