# generated using pymatgen
data_Na4Ti5O12
_symmetry_space_group_name_H-M   'P 1'
_cell_length_a   8.74846400
_cell_length_b   8.77484400
_cell_length_c   14.05543179
_cell_angle_alpha   90.00000000
_cell_angle_beta   105.24213160
_cell_angle_gamma   90.00000000
_symmetry_Int_Tables_number   1
_chemical_formula_structural   Na4Ti5O12
_chemical_formula_sum   'Na16 Ti20 O48'
_cell_volume   1041.03001082
_cell_formula_units_Z   4
loop_
 _symmetry_equiv_pos_site_id
 _symmetry_equiv_pos_as_xyz
  1  'x, y, z'
loop_
 _atom_site_type_symbol
 _atom_site_label
 _atom_site_symmetry_multiplicity
 _atom_site_fract_x
 _atom_site_fract_y
 _atom_site_fract_z
 _atom_site_occupancy
  Na  Na0  1  0.32767850  0.86432250  0.41996000  1
  Na  Na1  1  0.00000000  0.00000000  0.50000000  1
  Na  Na2  1  0.67232150  0.13567750  0.58004000  1
  Na  Na3  1  0.50000000  0.39089200  0.75000000  1
  Na  Na4  1  0.32767850  0.13567750  0.91996000  1
  Na  Na5  1  0.00000000  0.00000000  0.00000000  1
  Na  Na6  1  0.67232150  0.86432250  0.08004000  1
  Na  Na7  1  0.50000000  0.60910800  0.25000000  1
  Na  Na8  1  0.82767850  0.36432250  0.41996000  1
  Na  Na9  1  0.50000000  0.50000000  0.50000000  1
  Na  Na10  1  0.17232150  0.63567750  0.58004000  1
  Na  Na11  1  0.00000000  0.89089200  0.75000000  1
  Na  Na12  1  0.82767850  0.63567750  0.91996000  1
  Na  Na13  1  0.50000000  0.50000000  0.00000000  1
  Na  Na14  1  0.17232150  0.36432250  0.08004000  1
  Na  Na15  1  0.00000000  0.10910800  0.25000000  1
  Ti  Ti16  1  0.75000000  0.75000000  0.50000000  1
  Ti  Ti17  1  0.59779600  0.76034300  0.66331100  1
  Ti  Ti18  1  0.34264450  0.00372750  0.66507500  1
  Ti  Ti19  1  0.40220400  0.76034300  0.83668900  1
  Ti  Ti20  1  0.65735550  0.00372750  0.83492500  1
  Ti  Ti21  1  0.75000000  0.25000000  0.00000000  1
  Ti  Ti22  1  0.59779600  0.23965700  0.16331100  1
  Ti  Ti23  1  0.34264450  0.99627250  0.16507500  1
  Ti  Ti24  1  0.65735550  0.99627250  0.33492500  1
  Ti  Ti25  1  0.40220400  0.23965700  0.33668900  1
  Ti  Ti26  1  0.25000000  0.25000000  0.50000000  1
  Ti  Ti27  1  0.09779600  0.26034300  0.66331100  1
  Ti  Ti28  1  0.84264450  0.50372750  0.66507500  1
  Ti  Ti29  1  0.90220400  0.26034300  0.83668900  1
  Ti  Ti30  1  0.15735550  0.50372750  0.83492500  1
  Ti  Ti31  1  0.25000000  0.75000000  0.00000000  1
  Ti  Ti32  1  0.09779600  0.73965700  0.16331100  1
  Ti  Ti33  1  0.84264450  0.49627250  0.16507500  1
  Ti  Ti34  1  0.15735550  0.49627250  0.33492500  1
  Ti  Ti35  1  0.90220400  0.73965700  0.33668900  1
  O  O36  1  0.73176950  0.97071650  0.47257400  1
  O  O37  1  0.46226500  0.24549900  0.47358700  1
  O  O38  1  0.26823050  0.02928350  0.52742600  1
  O  O39  1  0.53773500  0.75450100  0.52641300  1
  O  O40  1  0.31340000  0.26216400  0.64727800  1
  O  O41  1  0.12854400  0.05145500  0.68022100  1
  O  O42  1  0.36146400  0.78936500  0.67658100  1
  O  O43  1  0.57318300  0.00036100  0.68227200  1
  O  O44  1  0.42681700  0.00036100  0.81772800  1
  O  O45  1  0.63853600  0.78936500  0.82341900  1
  O  O46  1  0.87145600  0.05145500  0.81977900  1
  O  O47  1  0.68660000  0.26216400  0.85272200  1
  O  O48  1  0.73176950  0.02928350  0.97257400  1
  O  O49  1  0.46226500  0.75450100  0.97358700  1
  O  O50  1  0.53773500  0.24549900  0.02641300  1
  O  O51  1  0.26823050  0.97071650  0.02742600  1
  O  O52  1  0.31340000  0.73783600  0.14727800  1
  O  O53  1  0.12854400  0.94854500  0.18022100  1
  O  O54  1  0.36146400  0.21063500  0.17658100  1
  O  O55  1  0.57318300  0.99963900  0.18227200  1
  O  O56  1  0.63853600  0.21063500  0.32341900  1
  O  O57  1  0.42681700  0.99963900  0.31772800  1
  O  O58  1  0.87145600  0.94854500  0.31977900  1
  O  O59  1  0.68660000  0.73783600  0.35272200  1
  O  O60  1  0.23176950  0.47071650  0.47257400  1
  O  O61  1  0.96226500  0.74549900  0.47358700  1
  O  O62  1  0.76823050  0.52928350  0.52742600  1
  O  O63  1  0.03773500  0.25450100  0.52641300  1
  O  O64  1  0.81340000  0.76216400  0.64727800  1
  O  O65  1  0.62854400  0.55145500  0.68022100  1
  O  O66  1  0.86146400  0.28936500  0.67658100  1
  O  O67  1  0.07318300  0.50036100  0.68227200  1
  O  O68  1  0.92681700  0.50036100  0.81772800  1
  O  O69  1  0.13853600  0.28936500  0.82341900  1
  O  O70  1  0.37145600  0.55145500  0.81977900  1
  O  O71  1  0.18660000  0.76216400  0.85272200  1
  O  O72  1  0.23176950  0.52928350  0.97257400  1
  O  O73  1  0.96226500  0.25450100  0.97358700  1
  O  O74  1  0.03773500  0.74549900  0.02641300  1
  O  O75  1  0.76823050  0.47071650  0.02742600  1
  O  O76  1  0.81340000  0.23783600  0.14727800  1
  O  O77  1  0.62854400  0.44854500  0.18022100  1
  O  O78  1  0.86146400  0.71063500  0.17658100  1
  O  O79  1  0.07318300  0.49963900  0.18227200  1
  O  O80  1  0.13853600  0.71063500  0.32341900  1
  O  O81  1  0.92681700  0.49963900  0.31772800  1
  O  O82  1  0.37145600  0.44854500  0.31977900  1
  O  O83  1  0.18660000  0.23783600  0.35272200  1
