# generated using pymatgen
data_ZrO2
_symmetry_space_group_name_H-M   'P 1'
_cell_length_a   13.39012200
_cell_length_b   4.04297000
_cell_length_c   7.11783881
_cell_angle_alpha   90.00000000
_cell_angle_beta   106.55798310
_cell_angle_gamma   90.00000000
_symmetry_Int_Tables_number   1
_chemical_formula_structural   ZrO2
_chemical_formula_sum   'Zr8 O16'
_cell_volume   369.35138915
_cell_formula_units_Z   8
loop_
 _symmetry_equiv_pos_site_id
 _symmetry_equiv_pos_as_xyz
  1  'x, y, z'
loop_
 _atom_site_type_symbol
 _atom_site_label
 _atom_site_symmetry_multiplicity
 _atom_site_fract_x
 _atom_site_fract_y
 _atom_site_fract_z
 _atom_site_occupancy
  Zr  Zr0  1  0.09985100  0.00000000  0.71006400  1
  Zr  Zr1  1  0.19461000  0.00000000  0.28705500  1
  Zr  Zr2  1  0.30539000  0.50000000  0.71294500  1
  Zr  Zr3  1  0.40014900  0.50000000  0.28993600  1
  Zr  Zr4  1  0.59985100  0.50000000  0.71006400  1
  Zr  Zr5  1  0.69461000  0.50000000  0.28705500  1
  Zr  Zr6  1  0.80539000  0.00000000  0.71294500  1
  Zr  Zr7  1  0.90014900  0.00000000  0.28993600  1
  O  O8  1  0.05986800  0.00000000  0.37787700  1
  O  O9  1  0.14189500  0.50000000  0.70645300  1
  O  O10  1  0.13207800  0.00000000  0.00420900  1
  O  O11  1  0.25907400  0.00000000  0.64647000  1
  O  O12  1  0.24092600  0.50000000  0.35353000  1
  O  O13  1  0.36792200  0.50000000  0.99579100  1
  O  O14  1  0.35810500  0.00000000  0.29354700  1
  O  O15  1  0.44013200  0.50000000  0.62212300  1
  O  O16  1  0.55986800  0.50000000  0.37787700  1
  O  O17  1  0.64189500  0.00000000  0.70645300  1
  O  O18  1  0.63207800  0.50000000  0.00420900  1
  O  O19  1  0.75907400  0.50000000  0.64647000  1
  O  O20  1  0.74092600  0.00000000  0.35353000  1
  O  O21  1  0.86792200  0.00000000  0.99579100  1
  O  O22  1  0.85810500  0.50000000  0.29354700  1
  O  O23  1  0.94013200  0.00000000  0.62212300  1
