# generated using pymatgen
data_CaZrSi2O7
_symmetry_space_group_name_H-M   'P 1'
_cell_length_a   6.91362200
_cell_length_b   8.79768800
_cell_length_c   4.74677746
_cell_angle_alpha   90.00000000
_cell_angle_beta   101.74033347
_cell_angle_gamma   90.00000000
_symmetry_Int_Tables_number   1
_chemical_formula_structural   CaZrSi2O7
_chemical_formula_sum   'Ca2 Zr2 Si4 O14'
_cell_volume   282.67744413
_cell_formula_units_Z   2
loop_
 _symmetry_equiv_pos_site_id
 _symmetry_equiv_pos_as_xyz
  1  'x, y, z'
loop_
 _atom_site_type_symbol
 _atom_site_label
 _atom_site_symmetry_multiplicity
 _atom_site_fract_x
 _atom_site_fract_y
 _atom_site_fract_z
 _atom_site_occupancy
  Ca  Ca0  1  0.50000000  0.20459300  0.50000000  1
  Ca  Ca1  1  0.00000000  0.70459300  0.50000000  1
  Zr  Zr2  1  0.50000000  0.81552900  0.50000000  1
  Zr  Zr3  1  0.00000000  0.31552900  0.50000000  1
  Si  Si4  1  0.21235550  0.99267150  0.91670400  1
  Si  Si5  1  0.78764450  0.99267150  0.08329600  1
  Si  Si6  1  0.71235550  0.49267150  0.91670400  1
  Si  Si7  1  0.28764450  0.49267150  0.08329600  1
  O  O8  1  0.26224450  0.85405150  0.70928800  1
  O  O9  1  0.73775550  0.85405150  0.29071200  1
  O  O10  1  0.19014700  0.15358400  0.73644500  1
  O  O11  1  0.80985300  0.15358400  0.26355500  1
  O  O12  1  0.50000000  0.44149900  0.00000000  1
  O  O13  1  0.62405950  0.99918250  0.78253100  1
  O  O14  1  0.37594050  0.99918250  0.21746900  1
  O  O15  1  0.76224450  0.35405150  0.70928800  1
  O  O16  1  0.23775550  0.35405150  0.29071200  1
  O  O17  1  0.69014700  0.65358400  0.73644500  1
  O  O18  1  0.30985300  0.65358400  0.26355500  1
  O  O19  1  0.00000000  0.94149900  0.00000000  1
  O  O20  1  0.12405950  0.49918250  0.78253100  1
  O  O21  1  0.87594050  0.49918250  0.21746900  1
