# generated using pymatgen
data_Li4Cu(PO3)6
_symmetry_space_group_name_H-M   'P 1'
_cell_length_a   12.05398000
_cell_length_b   7.92922400
_cell_length_c   14.21937356
_cell_angle_alpha   90.00000000
_cell_angle_beta   95.62933100
_cell_angle_gamma   90.00000000
_symmetry_Int_Tables_number   1
_chemical_formula_structural   Li4Cu(PO3)6
_chemical_formula_sum   'Li16 Cu4 P24 O72'
_cell_volume   1352.51498310
_cell_formula_units_Z   4
loop_
 _symmetry_equiv_pos_site_id
 _symmetry_equiv_pos_as_xyz
  1  'x, y, z'
loop_
 _atom_site_type_symbol
 _atom_site_label
 _atom_site_symmetry_multiplicity
 _atom_site_fract_x
 _atom_site_fract_y
 _atom_site_fract_z
 _atom_site_occupancy
  Li  Li0  1  0.16823500  0.86974500  0.92819000  1
  Li  Li1  1  0.16823500  0.13025500  0.42819000  1
  Li  Li2  1  0.33195650  0.89308750  0.54682200  1
  Li  Li3  1  0.33195650  0.10691250  0.04682200  1
  Li  Li4  1  0.66804350  0.89308750  0.95317800  1
  Li  Li5  1  0.66804350  0.10691250  0.45317800  1
  Li  Li6  1  0.83176500  0.86974500  0.57181000  1
  Li  Li7  1  0.83176500  0.13025500  0.07181000  1
  Li  Li8  1  0.66823500  0.36974500  0.92819000  1
  Li  Li9  1  0.66823500  0.63025500  0.42819000  1
  Li  Li10  1  0.83195650  0.39308750  0.54682200  1
  Li  Li11  1  0.83195650  0.60691250  0.04682200  1
  Li  Li12  1  0.16804350  0.39308750  0.95317800  1
  Li  Li13  1  0.16804350  0.60691250  0.45317800  1
  Li  Li14  1  0.33176500  0.36974500  0.57181000  1
  Li  Li15  1  0.33176500  0.63025500  0.07181000  1
  Cu  Cu16  1  0.50000000  0.13570300  0.75000000  1
  Cu  Cu17  1  0.50000000  0.86429700  0.25000000  1
  Cu  Cu18  1  0.00000000  0.63570300  0.75000000  1
  Cu  Cu19  1  0.00000000  0.36429700  0.25000000  1
  P  P20  1  0.09124800  0.94754300  0.61293700  1
  P  P21  1  0.09124800  0.05245700  0.11293700  1
  P  P22  1  0.23447850  0.13732250  0.75432900  1
  P  P23  1  0.23447850  0.86267750  0.25432900  1
  P  P24  1  0.41618750  0.81321350  0.89021400  1
  P  P25  1  0.41618750  0.18678650  0.39021400  1
  P  P26  1  0.58381250  0.81321350  0.60978600  1
  P  P27  1  0.58381250  0.18678650  0.10978600  1
  P  P28  1  0.76552150  0.13732250  0.74567100  1
  P  P29  1  0.76552150  0.86267750  0.24567100  1
  P  P30  1  0.90875200  0.94754300  0.88706300  1
  P  P31  1  0.90875200  0.05245700  0.38706300  1
  P  P32  1  0.59124800  0.44754300  0.61293700  1
  P  P33  1  0.59124800  0.55245700  0.11293700  1
  P  P34  1  0.73447850  0.63732250  0.75432900  1
  P  P35  1  0.73447850  0.36267750  0.25432900  1
  P  P36  1  0.91618750  0.31321350  0.89021400  1
  P  P37  1  0.91618750  0.68678650  0.39021400  1
  P  P38  1  0.08381250  0.31321350  0.60978600  1
  P  P39  1  0.08381250  0.68678650  0.10978600  1
  P  P40  1  0.26552150  0.63732250  0.74567100  1
  P  P41  1  0.26552150  0.36267750  0.24567100  1
  P  P42  1  0.40875200  0.44754300  0.88706300  1
  P  P43  1  0.40875200  0.55245700  0.38706300  1
  O  O44  1  0.16221650  0.97678150  0.71378700  1
  O  O45  1  0.16810350  0.92619350  0.53672900  1
  O  O46  1  0.16221650  0.02321850  0.21378700  1
  O  O47  1  0.16810350  0.07380650  0.03672900  1
  O  O48  1  0.23626000  0.13557900  0.85858900  1
  O  O49  1  0.23626000  0.86442100  0.35858900  1
  O  O50  1  0.34004700  0.84305800  0.96662800  1
  O  O51  1  0.34225050  0.14149450  0.70656700  1
  O  O52  1  0.34209650  0.79153750  0.78937800  1
  O  O53  1  0.34004700  0.15694200  0.46662800  1
  O  O54  1  0.34225050  0.85850550  0.20656700  1
  O  O55  1  0.34209650  0.20846250  0.28937800  1
  O  O56  1  0.47213550  0.62731250  0.90303700  1
  O  O57  1  0.49693900  0.31976500  0.87129700  1
  O  O58  1  0.50888250  0.93323050  0.87555500  1
  O  O59  1  0.47213550  0.37268750  0.40303700  1
  O  O60  1  0.49111750  0.93323050  0.62444500  1
  O  O61  1  0.49693900  0.68023500  0.37129700  1
  O  O62  1  0.50306100  0.31976500  0.62870300  1
  O  O63  1  0.50888250  0.06676950  0.37555500  1
  O  O64  1  0.52786450  0.62731250  0.59696300  1
  O  O65  1  0.49111750  0.06676950  0.12444500  1
  O  O66  1  0.50306100  0.68023500  0.12870300  1
  O  O67  1  0.52786450  0.37268750  0.09696300  1
  O  O68  1  0.65790350  0.79153750  0.71062200  1
  O  O69  1  0.65774950  0.14149450  0.79343300  1
  O  O70  1  0.65995300  0.84305800  0.53337200  1
  O  O71  1  0.65790350  0.20846250  0.21062200  1
  O  O72  1  0.65774950  0.85850550  0.29343300  1
  O  O73  1  0.65995300  0.15694200  0.03337200  1
  O  O74  1  0.76374000  0.13557900  0.64141100  1
  O  O75  1  0.76374000  0.86442100  0.14141100  1
  O  O76  1  0.83189650  0.92619350  0.96327100  1
  O  O77  1  0.83778350  0.97678150  0.78621300  1
  O  O78  1  0.83189650  0.07380650  0.46327100  1
  O  O79  1  0.83778350  0.02321850  0.28621300  1
  O  O80  1  0.66221650  0.47678150  0.71378700  1
  O  O81  1  0.66810350  0.42619350  0.53672900  1
  O  O82  1  0.66221650  0.52321850  0.21378700  1
  O  O83  1  0.66810350  0.57380650  0.03672900  1
  O  O84  1  0.73626000  0.63557900  0.85858900  1
  O  O85  1  0.73626000  0.36442100  0.35858900  1
  O  O86  1  0.84004700  0.34305800  0.96662800  1
  O  O87  1  0.84225050  0.64149450  0.70656700  1
  O  O88  1  0.84209650  0.29153750  0.78937800  1
  O  O89  1  0.84004700  0.65694200  0.46662800  1
  O  O90  1  0.84225050  0.35850550  0.20656700  1
  O  O91  1  0.84209650  0.70846250  0.28937800  1
  O  O92  1  0.97213550  0.12731250  0.90303700  1
  O  O93  1  0.99693900  0.81976500  0.87129700  1
  O  O94  1  0.00888250  0.43323050  0.87555500  1
  O  O95  1  0.97213550  0.87268750  0.40303700  1
  O  O96  1  0.99111750  0.43323050  0.62444500  1
  O  O97  1  0.99693900  0.18023500  0.37129700  1
  O  O98  1  0.00306100  0.81976500  0.62870300  1
  O  O99  1  0.00888250  0.56676950  0.37555500  1
  O  O100  1  0.02786450  0.12731250  0.59696300  1
  O  O101  1  0.99111750  0.56676950  0.12444500  1
  O  O102  1  0.00306100  0.18023500  0.12870300  1
  O  O103  1  0.02786450  0.87268750  0.09696300  1
  O  O104  1  0.15790350  0.29153750  0.71062200  1
  O  O105  1  0.15774950  0.64149450  0.79343300  1
  O  O106  1  0.15995300  0.34305800  0.53337200  1
  O  O107  1  0.15790350  0.70846250  0.21062200  1
  O  O108  1  0.15774950  0.35850550  0.29343300  1
  O  O109  1  0.15995300  0.65694200  0.03337200  1
  O  O110  1  0.26374000  0.63557900  0.64141100  1
  O  O111  1  0.26374000  0.36442100  0.14141100  1
  O  O112  1  0.33189650  0.42619350  0.96327100  1
  O  O113  1  0.33778350  0.47678150  0.78621300  1
  O  O114  1  0.33189650  0.57380650  0.46327100  1
  O  O115  1  0.33778350  0.52321850  0.28621300  1
