# generated using pymatgen
data_Th(MoO4)2
_symmetry_space_group_name_H-M   'P 1'
_cell_length_a   18.68800828
_cell_length_b   18.68800828
_cell_length_c   6.20651600
_cell_angle_alpha   90.00000000
_cell_angle_beta   90.00000000
_cell_angle_gamma   120.00000000
_symmetry_Int_Tables_number   1
_chemical_formula_structural   Th(MoO4)2
_chemical_formula_sum   'Th9 Mo18 O72'
_cell_volume   1877.17407121
_cell_formula_units_Z   9
loop_
 _symmetry_equiv_pos_site_id
 _symmetry_equiv_pos_as_xyz
  1  'x, y, z'
loop_
 _atom_site_type_symbol
 _atom_site_label
 _atom_site_symmetry_multiplicity
 _atom_site_fract_x
 _atom_site_fract_y
 _atom_site_fract_z
 _atom_site_occupancy
  Th  Th0  1  0.00000000  0.00000000  0.00000000  1
  Th  Th1  1  0.00163600  0.64824000  0.50000000  1
  Th  Th2  1  0.31457600  0.99676400  0.50000000  1
  Th  Th3  1  0.35176000  0.35339600  0.50000000  1
  Th  Th4  1  0.33333333  0.66666667  0.00000000  1
  Th  Th5  1  0.00323600  0.31781200  0.50000000  1
  Th  Th6  1  0.68218800  0.68542400  0.50000000  1
  Th  Th7  1  0.64660400  0.99836400  0.50000000  1
  Th  Th8  1  0.66666667  0.33333333  0.00000000  1
  Mo  Mo9  1  0.10658200  0.25457800  0.00000000  1
  Mo  Mo10  1  0.18830000  0.67711200  0.50000000  1
  Mo  Mo11  1  0.14799600  0.89341800  0.00000000  1
  Mo  Mo12  1  0.75830000  0.59070300  0.00000000  1
  Mo  Mo13  1  0.40929700  0.16759700  0.00000000  1
  Mo  Mo14  1  0.48881200  0.81170000  0.50000000  1
  Mo  Mo15  1  0.51147300  0.59779500  0.00000000  1
  Mo  Mo16  1  0.88560600  0.05848700  0.50000000  1
  Mo  Mo17  1  0.74542200  0.85200400  0.00000000  1
  Mo  Mo18  1  0.53527700  0.36341400  0.50000000  1
  Mo  Mo19  1  0.83240300  0.24170000  0.00000000  1
  Mo  Mo20  1  0.63658600  0.17186300  0.50000000  1
  Mo  Mo21  1  0.94151300  0.82711900  0.50000000  1
  Mo  Mo22  1  0.40220500  0.91367800  0.00000000  1
  Mo  Mo23  1  0.08632200  0.48852700  0.00000000  1
  Mo  Mo24  1  0.17288100  0.11439400  0.50000000  1
  Mo  Mo25  1  0.32288800  0.51118800  0.50000000  1
  Mo  Mo26  1  0.82813700  0.46472300  0.50000000  1
  O  O27  1  0.64071100  0.22877400  0.26679500  1
  O  O28  1  0.24425700  0.67943300  0.26783900  1
  O  O29  1  0.71387700  0.13699700  0.50000000  1
  O  O30  1  0.10753000  0.08042500  0.27196600  1
  O  O31  1  0.58806300  0.35928900  0.73320500  1
  O  O32  1  0.89703400  0.27139400  0.75891600  1
  O  O33  1  0.21041100  0.91895500  0.75673900  1
  O  O34  1  0.91957500  0.02710500  0.72803400  1
  O  O35  1  0.45383400  0.65130100  0.00000000  1
  O  O36  1  0.72860600  0.62564000  0.75891600  1
  O  O37  1  0.37436000  0.10296600  0.24108400  1
  O  O38  1  0.21041100  0.91895500  0.24326100  1
  O  O39  1  0.08104500  0.29145600  0.75673900  1
  O  O40  1  0.24355400  0.22999200  0.50000000  1
  O  O41  1  0.37297200  0.94578200  0.24553400  1
  O  O42  1  0.71315900  0.92570200  0.00000000  1
  O  O43  1  0.77122600  0.41193700  0.26679500  1
  O  O44  1  0.52046700  0.44968700  0.50000000  1
  O  O45  1  0.92922000  0.47953300  0.50000000  1
  O  O46  1  0.51977700  0.22355400  0.00000000  1
  O  O47  1  0.77644600  0.29622300  0.00000000  1
  O  O48  1  0.19746700  0.54616600  0.00000000  1
  O  O49  1  0.60213300  0.85813900  0.50000000  1
  O  O50  1  0.41292500  0.49978900  0.50000000  1
  O  O51  1  0.21254300  0.28684100  0.00000000  1
  O  O52  1  0.93424200  0.16710800  0.50000000  1
  O  O53  1  0.04335300  0.14390600  0.00000000  1
  O  O54  1  0.57281000  0.62702800  0.75446600  1
  O  O55  1  0.07429800  0.78745700  0.00000000  1
  O  O56  1  0.32056700  0.56482400  0.73216100  1
  O  O57  1  0.70377700  0.48022300  0.00000000  1
  O  O58  1  0.44352400  0.49022900  0.00000000  1
  O  O59  1  0.85609400  0.89944700  0.00000000  1
  O  O60  1  0.08104500  0.29145600  0.24326100  1
  O  O61  1  0.91957500  0.02710500  0.27196600  1
  O  O62  1  0.37436000  0.10296600  0.75891600  1
  O  O63  1  0.86511500  0.62672600  0.00000000  1
  O  O64  1  0.25600600  0.39786700  0.50000000  1
  O  O65  1  0.98643800  0.75644600  0.50000000  1
  O  O66  1  0.10753000  0.08042500  0.72803400  1
  O  O67  1  0.70854400  0.78958900  0.75673900  1
  O  O68  1  0.57281000  0.62702800  0.24553400  1
  O  O69  1  0.76161100  0.13488500  0.00000000  1
  O  O70  1  0.43517600  0.75574300  0.73216100  1
  O  O71  1  0.50977100  0.95329500  0.00000000  1
  O  O72  1  0.89703400  0.27139400  0.24108400  1
  O  O73  1  0.43517600  0.75574300  0.26783900  1
  O  O74  1  0.86300300  0.57688000  0.50000000  1
  O  O75  1  0.04670500  0.55647600  0.00000000  1
  O  O76  1  0.05421800  0.42719000  0.24553400  1
  O  O77  1  0.14186100  0.74399400  0.50000000  1
  O  O78  1  0.34869900  0.80253300  0.00000000  1
  O  O79  1  0.64071100  0.22877400  0.73320500  1
  O  O80  1  0.37297200  0.94578200  0.75446600  1
  O  O81  1  0.37327400  0.23838900  0.00000000  1
  O  O82  1  0.58806300  0.35928900  0.26679500  1
  O  O83  1  0.72860600  0.62564000  0.24108400  1
  O  O84  1  0.50021100  0.91313600  0.50000000  1
  O  O85  1  0.24425700  0.67943300  0.73216100  1
  O  O86  1  0.83289200  0.76713400  0.50000000  1
  O  O87  1  0.10055300  0.95664700  0.00000000  1
  O  O88  1  0.97289500  0.89247000  0.27196600  1
  O  O89  1  0.23286600  0.06575800  0.50000000  1
  O  O90  1  0.05421800  0.42719000  0.75446600  1
  O  O91  1  0.70854400  0.78958900  0.24326100  1
  O  O92  1  0.32056700  0.56482400  0.26783900  1
  O  O93  1  0.42312000  0.28612300  0.50000000  1
  O  O94  1  0.77000800  0.01356200  0.50000000  1
  O  O95  1  0.08686400  0.58707500  0.50000000  1
  O  O96  1  0.97289500  0.89247000  0.72803400  1
  O  O97  1  0.55031300  0.07078000  0.50000000  1
  O  O98  1  0.77122600  0.41193700  0.73320500  1
