# generated using pymatgen
data_BiSbO3
_symmetry_space_group_name_H-M   'P 1'
_cell_length_a   6.40065392
_cell_length_b   6.40065392
_cell_length_c   14.10070360
_cell_angle_alpha   90.00000000
_cell_angle_beta   90.00000000
_cell_angle_gamma   120.00000000
_symmetry_Int_Tables_number   1
_chemical_formula_structural   BiSbO3
_chemical_formula_sum   'Bi6 Sb6 O18'
_cell_volume   500.28802423
_cell_formula_units_Z   6
loop_
 _symmetry_equiv_pos_site_id
 _symmetry_equiv_pos_as_xyz
  1  'x, y, z'
loop_
 _atom_site_type_symbol
 _atom_site_label
 _atom_site_symmetry_multiplicity
 _atom_site_fract_x
 _atom_site_fract_y
 _atom_site_fract_z
 _atom_site_occupancy
  Bi  Bi0  1  0.33333333  0.66666667  0.53349967  1
  Bi  Bi1  1  0.33333333  0.66666667  0.79983367  1
  Bi  Bi2  1  0.00000000  0.00000000  0.86683300  1
  Bi  Bi3  1  0.00000000  0.00000000  0.13316700  1
  Bi  Bi4  1  0.66666667  0.33333333  0.20016633  1
  Bi  Bi5  1  0.66666667  0.33333333  0.46650033  1
  Sb  Sb6  1  0.33333333  0.66666667  0.31441267  1
  Sb  Sb7  1  0.33333333  0.66666667  0.01892067  1
  Sb  Sb8  1  0.00000000  0.00000000  0.64774600  1
  Sb  Sb9  1  0.00000000  0.00000000  0.35225400  1
  Sb  Sb10  1  0.66666667  0.33333333  0.98107933  1
  Sb  Sb11  1  0.66666667  0.33333333  0.68558733  1
  O  O12  1  0.30969833  0.89864667  0.92142967  1
  O  O13  1  0.10135333  0.41105167  0.92142967  1
  O  O14  1  0.58894833  0.69030167  0.92142967  1
  O  O15  1  0.07771833  0.64303167  0.41190367  1
  O  O16  1  0.56531333  0.92228167  0.41190367  1
  O  O17  1  0.35696833  0.43468667  0.41190367  1
  O  O18  1  0.97636500  0.23198000  0.25476300  1
  O  O19  1  0.76802000  0.74438500  0.25476300  1
  O  O20  1  0.25561500  0.02363500  0.25476300  1
  O  O21  1  0.74438500  0.97636500  0.74523700  1
  O  O22  1  0.23198000  0.25561500  0.74523700  1
  O  O23  1  0.02363500  0.76802000  0.74523700  1
  O  O24  1  0.64303167  0.56531333  0.58809633  1
  O  O25  1  0.43468667  0.07771833  0.58809633  1
  O  O26  1  0.92228167  0.35696833  0.58809633  1
  O  O27  1  0.41105167  0.30969833  0.07857033  1
  O  O28  1  0.89864667  0.58894833  0.07857033  1
  O  O29  1  0.69030167  0.10135333  0.07857033  1
