# generated using pymatgen
data_NaLiTiAl(PO4)3
_symmetry_space_group_name_H-M   'P 1'
_cell_length_a   14.84279000
_cell_length_b   8.52694400
_cell_length_c   8.77607722
_cell_angle_alpha   90.00000000
_cell_angle_beta   124.61561400
_cell_angle_gamma   90.00000000
_symmetry_Int_Tables_number   1
_chemical_formula_structural   NaLiTiAl(PO4)3
_chemical_formula_sum   'Na4 Li4 Ti4 Al4 P12 O48'
_cell_volume   914.11221183
_cell_formula_units_Z   4
loop_
 _symmetry_equiv_pos_site_id
 _symmetry_equiv_pos_as_xyz
  1  'x, y, z'
loop_
 _atom_site_type_symbol
 _atom_site_label
 _atom_site_symmetry_multiplicity
 _atom_site_fract_x
 _atom_site_fract_y
 _atom_site_fract_z
 _atom_site_occupancy
  Na  Na0  1  0.25658500  0.75492700  0.74725700  1
  Na  Na1  1  0.74341500  0.75492700  0.25274300  1
  Na  Na2  1  0.75658500  0.25492700  0.74725700  1
  Na  Na3  1  0.24341500  0.25492700  0.25274300  1
  Li  Li4  1  0.70097200  0.45366900  0.00209900  1
  Li  Li5  1  0.29902800  0.45366900  0.99790100  1
  Li  Li6  1  0.20097200  0.95366900  0.00209900  1
  Li  Li7  1  0.79902800  0.95366900  0.99790100  1
  Ti  Ti8  1  0.89140550  0.75082550  0.67568100  1
  Ti  Ti9  1  0.10859450  0.75082550  0.32431900  1
  Ti  Ti10  1  0.39140550  0.25082550  0.67568100  1
  Ti  Ti11  1  0.60859450  0.25082550  0.32431900  1
  Al  Al12  1  0.89935850  0.25310050  0.19226200  1
  Al  Al13  1  0.10064150  0.25310050  0.80773800  1
  Al  Al14  1  0.39935850  0.75310050  0.19226200  1
  Al  Al15  1  0.60064150  0.75310050  0.80773800  1
  P  P16  1  0.00000000  0.04216500  0.00000000  1
  P  P17  1  0.14149300  0.39218800  0.50448700  1
  P  P18  1  0.85850700  0.39218800  0.49551300  1
  P  P19  1  0.64401050  0.10546750  0.00002900  1
  P  P20  1  0.35598950  0.10546750  0.99997100  1
  P  P21  1  0.00000000  0.96935500  0.50000000  1
  P  P22  1  0.50000000  0.54216500  0.00000000  1
  P  P23  1  0.64149300  0.89218800  0.50448700  1
  P  P24  1  0.35850700  0.89218800  0.49551300  1
  P  P25  1  0.14401050  0.60546750  0.00002900  1
  P  P26  1  0.85598950  0.60546750  0.99997100  1
  P  P27  1  0.50000000  0.46935500  0.50000000  1
  O  O28  1  0.96075800  0.32538000  0.66881700  1
  O  O29  1  0.07162700  0.06467000  0.67918300  1
  O  O30  1  0.91771350  0.13938050  0.01670000  1
  O  O31  1  0.07270550  0.93881850  0.17321800  1
  O  O32  1  0.75971350  0.31861750  0.48646200  1
  O  O33  1  0.15176700  0.36302600  0.68647400  1
  O  O34  1  0.03924200  0.32538000  0.33118300  1
  O  O35  1  0.08228650  0.13938050  0.98330000  1
  O  O36  1  0.24028650  0.31861750  0.51353800  1
  O  O37  1  0.14884300  0.57277700  0.49091100  1
  O  O38  1  0.84823300  0.36302600  0.31352600  1
  O  O39  1  0.85115700  0.57277700  0.50908900  1
  O  O40  1  0.15558550  0.42675950  0.98334100  1
  O  O41  1  0.64422600  0.13419900  0.17257500  1
  O  O42  1  0.84441450  0.42675950  0.01665900  1
  O  O43  1  0.25624700  0.18319300  0.98643600  1
  O  O44  1  0.91911950  0.86253950  0.51125700  1
  O  O45  1  0.95753250  0.67920250  0.17169600  1
  O  O46  1  0.35577400  0.13419900  0.82742500  1
  O  O47  1  0.74375300  0.18319300  0.01356400  1
  O  O48  1  0.92837300  0.06467000  0.32081700  1
  O  O49  1  0.08088050  0.86253950  0.48874300  1
  O  O50  1  0.92729450  0.93881850  0.82678200  1
  O  O51  1  0.04246750  0.67920250  0.82830400  1
  O  O52  1  0.46075800  0.82538000  0.66881700  1
  O  O53  1  0.57162700  0.56467000  0.67918300  1
  O  O54  1  0.41771350  0.63938050  0.01670000  1
  O  O55  1  0.57270550  0.43881850  0.17321800  1
  O  O56  1  0.25971350  0.81861750  0.48646200  1
  O  O57  1  0.65176700  0.86302600  0.68647400  1
  O  O58  1  0.53924200  0.82538000  0.33118300  1
  O  O59  1  0.58228650  0.63938050  0.98330000  1
  O  O60  1  0.74028650  0.81861750  0.51353800  1
  O  O61  1  0.64884300  0.07277700  0.49091100  1
  O  O62  1  0.34823300  0.86302600  0.31352600  1
  O  O63  1  0.35115700  0.07277700  0.50908900  1
  O  O64  1  0.65558550  0.92675950  0.98334100  1
  O  O65  1  0.14422600  0.63419900  0.17257500  1
  O  O66  1  0.34441450  0.92675950  0.01665900  1
  O  O67  1  0.75624700  0.68319300  0.98643600  1
  O  O68  1  0.41911950  0.36253950  0.51125700  1
  O  O69  1  0.45753250  0.17920250  0.17169600  1
  O  O70  1  0.85577400  0.63419900  0.82742500  1
  O  O71  1  0.24375300  0.68319300  0.01356400  1
  O  O72  1  0.42837300  0.56467000  0.32081700  1
  O  O73  1  0.58088050  0.36253950  0.48874300  1
  O  O74  1  0.42729450  0.43881850  0.82678200  1
  O  O75  1  0.54246750  0.17920250  0.82830400  1
