# generated using pymatgen
data_LiMn2OF3
_symmetry_space_group_name_H-M   'P 1'
_cell_length_a   6.19112400
_cell_length_b   8.95425600
_cell_length_c   12.88547000
_cell_angle_alpha   90.00000000
_cell_angle_beta   90.00000000
_cell_angle_gamma   90.00000000
_symmetry_Int_Tables_number   1
_chemical_formula_structural   LiMn2OF3
_chemical_formula_sum   'Li8 Mn16 O8 F24'
_cell_volume   714.33063070
_cell_formula_units_Z   8
loop_
 _symmetry_equiv_pos_site_id
 _symmetry_equiv_pos_as_xyz
  1  'x, y, z'
loop_
 _atom_site_type_symbol
 _atom_site_label
 _atom_site_symmetry_multiplicity
 _atom_site_fract_x
 _atom_site_fract_y
 _atom_site_fract_z
 _atom_site_occupancy
  Li  Li0  1  0.50000000  0.85502100  0.13836300  1
  Li  Li1  1  0.50000000  0.85502100  0.86163700  1
  Li  Li2  1  0.00000000  0.63507900  0.12941500  1
  Li  Li3  1  0.00000000  0.63507900  0.87058500  1
  Li  Li4  1  0.00000000  0.35502100  0.63836300  1
  Li  Li5  1  0.00000000  0.35502100  0.36163700  1
  Li  Li6  1  0.50000000  0.13507900  0.62941500  1
  Li  Li7  1  0.50000000  0.13507900  0.37058500  1
  Mn  Mn8  1  0.50000000  0.51486500  0.25065300  1
  Mn  Mn9  1  0.24208950  0.25114450  0.11813050  1
  Mn  Mn10  1  0.75791050  0.25114450  0.88186950  1
  Mn  Mn11  1  0.50000000  0.53015300  0.00000000  1
  Mn  Mn12  1  0.50000000  0.51486500  0.74934700  1
  Mn  Mn13  1  0.00000000  0.96696300  0.00000000  1
  Mn  Mn14  1  0.75791050  0.25114450  0.11813050  1
  Mn  Mn15  1  0.24208950  0.25114450  0.88186950  1
  Mn  Mn16  1  0.00000000  0.01486500  0.75065300  1
  Mn  Mn17  1  0.74208950  0.75114450  0.61813050  1
  Mn  Mn18  1  0.25791050  0.75114450  0.38186950  1
  Mn  Mn19  1  0.00000000  0.03015300  0.50000000  1
  Mn  Mn20  1  0.00000000  0.01486500  0.24934700  1
  Mn  Mn21  1  0.50000000  0.46696300  0.50000000  1
  Mn  Mn22  1  0.25791050  0.75114450  0.61813050  1
  Mn  Mn23  1  0.74208950  0.75114450  0.38186950  1
  O  O24  1  0.00000000  0.23936400  0.77046800  1
  O  O25  1  0.00000000  0.23936400  0.22953200  1
  O  O26  1  0.00000000  0.20713300  0.00000000  1
  O  O27  1  0.50000000  0.28845300  0.00000000  1
  O  O28  1  0.50000000  0.73936400  0.27046800  1
  O  O29  1  0.50000000  0.73936400  0.72953200  1
  O  O30  1  0.50000000  0.70713300  0.50000000  1
  O  O31  1  0.00000000  0.78845300  0.50000000  1
  F  F32  1  0.25537800  0.48925000  0.37371300  1
  F  F33  1  0.50000000  0.75744400  0.00000000  1
  F  F34  1  0.74462200  0.48925000  0.62628700  1
  F  F35  1  0.74257350  0.50679350  0.87431050  1
  F  F36  1  0.74462200  0.48925000  0.37371300  1
  F  F37  1  0.50000000  0.26770500  0.75898900  1
  F  F38  1  0.25742650  0.50679350  0.12568950  1
  F  F39  1  0.25742650  0.50679350  0.87431050  1
  F  F40  1  0.25537800  0.48925000  0.62628700  1
  F  F41  1  0.00000000  0.73749900  0.00000000  1
  F  F42  1  0.50000000  0.26770500  0.24101100  1
  F  F43  1  0.74257350  0.50679350  0.12568950  1
  F  F44  1  0.75537800  0.98925000  0.87371300  1
  F  F45  1  0.00000000  0.25744400  0.50000000  1
  F  F46  1  0.24462200  0.98925000  0.12628700  1
  F  F47  1  0.24257350  0.00679350  0.37431050  1
  F  F48  1  0.24462200  0.98925000  0.87371300  1
  F  F49  1  0.00000000  0.76770500  0.25898900  1
  F  F50  1  0.75742650  0.00679350  0.62568950  1
  F  F51  1  0.75742650  0.00679350  0.37431050  1
  F  F52  1  0.75537800  0.98925000  0.12628700  1
  F  F53  1  0.50000000  0.23749900  0.50000000  1
  F  F54  1  0.00000000  0.76770500  0.74101100  1
  F  F55  1  0.24257350  0.00679350  0.62568950  1
