# generated using pymatgen
data_Li4Fe3OF8
_symmetry_space_group_name_H-M   'P 1'
_cell_length_a   9.85907400
_cell_length_b   2.93386600
_cell_length_c   11.66359970
_cell_angle_alpha   90.00000000
_cell_angle_beta   102.58881338
_cell_angle_gamma   90.00000000
_symmetry_Int_Tables_number   1
_chemical_formula_structural   Li4Fe3OF8
_chemical_formula_sum   'Li8 Fe6 O2 F16'
_cell_volume   329.26133048
_cell_formula_units_Z   2
loop_
 _symmetry_equiv_pos_site_id
 _symmetry_equiv_pos_as_xyz
  1  'x, y, z'
loop_
 _atom_site_type_symbol
 _atom_site_label
 _atom_site_symmetry_multiplicity
 _atom_site_fract_x
 _atom_site_fract_y
 _atom_site_fract_z
 _atom_site_occupancy
  Li  Li0  1  0.63198000  0.50000000  0.56052900  1
  Li  Li1  1  0.72666600  0.50000000  0.87667500  1
  Li  Li2  1  0.84877400  0.00000000  0.44796200  1
  Li  Li3  1  0.50205400  0.50000000  0.99225900  1
  Li  Li4  1  0.13198000  0.00000000  0.56052900  1
  Li  Li5  1  0.22666600  0.00000000  0.87667500  1
  Li  Li6  1  0.34877400  0.50000000  0.44796200  1
  Li  Li7  1  0.00205400  0.00000000  0.99225900  1
  Fe  Fe8  1  0.57701700  0.00000000  0.27016500  1
  Fe  Fe9  1  0.76074000  0.00000000  0.12304300  1
  Fe  Fe10  1  0.92781500  0.50000000  0.70287600  1
  Fe  Fe11  1  0.07701700  0.50000000  0.27016500  1
  Fe  Fe12  1  0.26074000  0.50000000  0.12304300  1
  Fe  Fe13  1  0.42781500  0.00000000  0.70287600  1
  O  O14  1  0.62830300  0.50000000  0.16108400  1
  O  O15  1  0.12830300  0.00000000  0.16108400  1
  F  F16  1  0.62947900  0.00000000  0.94812800  1
  F  F17  1  0.58774300  0.50000000  0.72481400  1
  F  F18  1  0.68508200  0.50000000  0.40278800  1
  F  F19  1  0.78554300  0.00000000  0.60577500  1
  F  F20  1  0.86753200  0.00000000  0.83006700  1
  F  F21  1  0.91133600  0.00000000  0.28732400  1
  F  F22  1  0.87091800  0.50000000  0.04170800  1
  F  F23  1  0.98336300  0.50000000  0.52550900  1
  F  F24  1  0.12947900  0.50000000  0.94812800  1
  F  F25  1  0.08774300  0.00000000  0.72481400  1
  F  F26  1  0.18508200  0.00000000  0.40278800  1
  F  F27  1  0.28554300  0.50000000  0.60577500  1
  F  F28  1  0.36753200  0.50000000  0.83006700  1
  F  F29  1  0.41133600  0.50000000  0.28732400  1
  F  F30  1  0.37091800  0.00000000  0.04170800  1
  F  F31  1  0.48336300  0.00000000  0.52550900  1
