# generated using pymatgen
data_Li6MnO4
_symmetry_space_group_name_H-M   'P 1'
_cell_length_a   6.70369225
_cell_length_b   6.70369225
_cell_length_c   4.72772250
_cell_angle_alpha   90.00000000
_cell_angle_beta   90.00000000
_cell_angle_gamma   90.00000000
_symmetry_Int_Tables_number   1
_chemical_formula_structural   Li6MnO4
_chemical_formula_sum   'Li12 Mn2 O8'
_cell_volume   212.46143698
_cell_formula_units_Z   2
loop_
 _symmetry_equiv_pos_site_id
 _symmetry_equiv_pos_as_xyz
  1  'x, y, z'
loop_
 _atom_site_type_symbol
 _atom_site_label
 _atom_site_symmetry_multiplicity
 _atom_site_fract_x
 _atom_site_fract_y
 _atom_site_fract_z
 _atom_site_occupancy
  Li  Li0  1  0.50000000  0.00000000  0.96292175  1
  Li  Li1  1  0.50000000  0.00000000  0.46292175  1
  Li  Li2  1  0.00000000  0.50000000  0.53707825  1
  Li  Li3  1  0.00000000  0.50000000  0.03707825  1
  Li  Li4  1  0.78442300  0.78442300  0.00000000  1
  Li  Li5  1  0.21557700  0.78442300  0.00000000  1
  Li  Li6  1  0.78442300  0.21557700  0.00000000  1
  Li  Li7  1  0.21557700  0.21557700  0.00000000  1
  Li  Li8  1  0.28442300  0.28442300  0.50000000  1
  Li  Li9  1  0.71557700  0.28442300  0.50000000  1
  Li  Li10  1  0.28442300  0.71557700  0.50000000  1
  Li  Li11  1  0.71557700  0.71557700  0.50000000  1
  Mn  Mn12  1  0.00000000  0.00000000  0.50000000  1
  Mn  Mn13  1  0.50000000  0.50000000  0.00000000  1
  O  O14  1  0.50000000  0.76610275  0.22274825  1
  O  O15  1  0.26610275  0.00000000  0.72274825  1
  O  O16  1  0.73389725  0.00000000  0.72274825  1
  O  O17  1  0.50000000  0.23389725  0.22274825  1
  O  O18  1  0.00000000  0.26610275  0.27725175  1
  O  O19  1  0.23389725  0.50000000  0.77725175  1
  O  O20  1  0.76610275  0.50000000  0.77725175  1
  O  O21  1  0.00000000  0.73389725  0.27725175  1
