# generated using pymatgen
data_LaBi5O9
_symmetry_space_group_name_H-M   'P 1'
_cell_length_a   18.78475400
_cell_length_b   3.96593400
_cell_length_c   6.99842065
_cell_angle_alpha   90.00000000
_cell_angle_beta   98.61919998
_cell_angle_gamma   90.00000000
_symmetry_Int_Tables_number   1
_chemical_formula_structural   LaBi5O9
_chemical_formula_sum   'La2 Bi10 O18'
_cell_volume   515.48769399
_cell_formula_units_Z   2
loop_
 _symmetry_equiv_pos_site_id
 _symmetry_equiv_pos_as_xyz
  1  'x, y, z'
loop_
 _atom_site_type_symbol
 _atom_site_label
 _atom_site_symmetry_multiplicity
 _atom_site_fract_x
 _atom_site_fract_y
 _atom_site_fract_z
 _atom_site_occupancy
  La  La0  1  0.99237100  0.50000000  0.48952900  1
  La  La1  1  0.49237100  0.00000000  0.48952900  1
  Bi  Bi2  1  0.83552800  0.50000000  0.08747200  1
  Bi  Bi3  1  0.66277000  0.50000000  0.40230600  1
  Bi  Bi4  1  0.66936000  0.00000000  0.87446600  1
  Bi  Bi5  1  0.82619000  0.00000000  0.61483900  1
  Bi  Bi6  1  0.50324500  0.50000000  0.98178700  1
  Bi  Bi7  1  0.33552800  0.00000000  0.08747200  1
  Bi  Bi8  1  0.16277000  0.00000000  0.40230600  1
  Bi  Bi9  1  0.16936000  0.50000000  0.87446600  1
  Bi  Bi10  1  0.32619000  0.50000000  0.61483900  1
  Bi  Bi11  1  0.00324500  0.00000000  0.98178700  1
  O  O12  1  0.86028000  0.50000000  0.41043200  1
  O  O13  1  0.54517100  0.50000000  0.36050100  1
  O  O14  1  0.65449900  0.50000000  0.04068400  1
  O  O15  1  0.95065700  0.50000000  0.10969100  1
  O  O16  1  0.75514000  0.50000000  0.69072300  1
  O  O17  1  0.64265700  0.00000000  0.53920300  1
  O  O18  1  0.55398900  0.00000000  0.83619000  1
  O  O19  1  0.94665200  0.00000000  0.66822500  1
  O  O20  1  0.84985200  0.00000000  0.94065100  1
  O  O21  1  0.36028000  0.00000000  0.41043200  1
  O  O22  1  0.04517100  0.00000000  0.36050100  1
  O  O23  1  0.15449900  0.00000000  0.04068400  1
  O  O24  1  0.45065700  0.00000000  0.10969100  1
  O  O25  1  0.25514000  0.00000000  0.69072300  1
  O  O26  1  0.14265700  0.50000000  0.53920300  1
  O  O27  1  0.05398900  0.50000000  0.83619000  1
  O  O28  1  0.44665200  0.50000000  0.66822500  1
  O  O29  1  0.34985200  0.50000000  0.94065100  1
