# generated using pymatgen
data_Li5V2Fe5O12
_symmetry_space_group_name_H-M   'P 1'
_cell_length_a   5.15877800
_cell_length_b   9.05441800
_cell_length_c   10.00733499
_cell_angle_alpha   90.00000000
_cell_angle_beta   100.39032821
_cell_angle_gamma   90.00000000
_symmetry_Int_Tables_number   1
_chemical_formula_structural   Li5V2Fe5O12
_chemical_formula_sum   'Li10 V4 Fe10 O24'
_cell_volume   459.77482591
_cell_formula_units_Z   2
loop_
 _symmetry_equiv_pos_site_id
 _symmetry_equiv_pos_as_xyz
  1  'x, y, z'
loop_
 _atom_site_type_symbol
 _atom_site_label
 _atom_site_symmetry_multiplicity
 _atom_site_fract_x
 _atom_site_fract_y
 _atom_site_fract_z
 _atom_site_occupancy
  Li  Li0  1  0.75181650  0.91750850  0.74684600  1
  Li  Li1  1  0.25827050  0.58039550  0.25420200  1
  Li  Li2  1  0.24818350  0.91750850  0.25315400  1
  Li  Li3  1  0.74172950  0.58039550  0.74579800  1
  Li  Li4  1  0.00000000  0.92417000  0.50000000  1
  Li  Li5  1  0.25181650  0.41750850  0.74684600  1
  Li  Li6  1  0.75827050  0.08039550  0.25420200  1
  Li  Li7  1  0.74818350  0.41750850  0.25315400  1
  Li  Li8  1  0.24172950  0.08039550  0.74579800  1
  Li  Li9  1  0.50000000  0.42417000  0.50000000  1
  V  V10  1  0.50000000  0.74995400  0.50000000  1
  V  V11  1  0.00000000  0.75261900  0.00000000  1
  V  V12  1  0.00000000  0.24995400  0.50000000  1
  V  V13  1  0.50000000  0.25261900  0.00000000  1
  Fe  Fe14  1  0.50000000  0.57953700  0.00000000  1
  Fe  Fe15  1  0.75756650  0.75403850  0.25389700  1
  Fe  Fe16  1  0.24243350  0.75403850  0.74610300  1
  Fe  Fe17  1  0.50000000  0.91781400  0.00000000  1
  Fe  Fe18  1  0.00000000  0.57864700  0.50000000  1
  Fe  Fe19  1  0.00000000  0.07953700  0.00000000  1
  Fe  Fe20  1  0.25756650  0.25403850  0.25389700  1
  Fe  Fe21  1  0.74243350  0.25403850  0.74610300  1
  Fe  Fe22  1  0.00000000  0.41781400  0.00000000  1
  Fe  Fe23  1  0.50000000  0.07864700  0.50000000  1
  O  O24  1  0.63423500  0.59311300  0.38625500  1
  O  O25  1  0.36576500  0.59311300  0.61374500  1
  O  O26  1  0.63208550  0.74252450  0.88549500  1
  O  O27  1  0.36791450  0.74252450  0.11450500  1
  O  O28  1  0.61013400  0.90990600  0.38244200  1
  O  O29  1  0.38986600  0.90990600  0.61755800  1
  O  O30  1  0.13047000  0.59201000  0.87937900  1
  O  O31  1  0.86953000  0.59201000  0.12062100  1
  O  O32  1  0.15386750  0.74163550  0.38943500  1
  O  O33  1  0.84613250  0.74163550  0.61056500  1
  O  O34  1  0.10770850  0.91749650  0.87894500  1
  O  O35  1  0.89229150  0.91749650  0.12105500  1
  O  O36  1  0.13423500  0.09311300  0.38625500  1
  O  O37  1  0.86576500  0.09311300  0.61374500  1
  O  O38  1  0.13208550  0.24252450  0.88549500  1
  O  O39  1  0.86791450  0.24252450  0.11450500  1
  O  O40  1  0.11013400  0.40990600  0.38244200  1
  O  O41  1  0.88986600  0.40990600  0.61755800  1
  O  O42  1  0.63047000  0.09201000  0.87937900  1
  O  O43  1  0.36953000  0.09201000  0.12062100  1
  O  O44  1  0.65386750  0.24163550  0.38943500  1
  O  O45  1  0.34613250  0.24163550  0.61056500  1
  O  O46  1  0.60770850  0.41749650  0.87894500  1
  O  O47  1  0.39229150  0.41749650  0.12105500  1
