# generated using pymatgen
data_Sr2Mg3H10
_symmetry_space_group_name_H-M   'P 1'
_cell_length_a   17.53166000
_cell_length_b   5.70116800
_cell_length_c   7.48499152
_cell_angle_alpha   90.00000000
_cell_angle_beta   111.21212037
_cell_angle_gamma   90.00000000
_symmetry_Int_Tables_number   1
_chemical_formula_structural   Sr2Mg3H10
_chemical_formula_sum   'Sr8 Mg12 H40'
_cell_volume   697.44395892
_cell_formula_units_Z   4
loop_
 _symmetry_equiv_pos_site_id
 _symmetry_equiv_pos_as_xyz
  1  'x, y, z'
loop_
 _atom_site_type_symbol
 _atom_site_label
 _atom_site_symmetry_multiplicity
 _atom_site_fract_x
 _atom_site_fract_y
 _atom_site_fract_z
 _atom_site_occupancy
  Sr  Sr0  1  0.28101900  0.00000000  0.68881700  1
  Sr  Sr1  1  0.21898100  0.50000000  0.31118300  1
  Sr  Sr2  1  0.38326600  0.00000000  0.27925100  1
  Sr  Sr3  1  0.11673400  0.50000000  0.72074900  1
  Sr  Sr4  1  0.78101900  0.50000000  0.68881700  1
  Sr  Sr5  1  0.71898100  0.00000000  0.31118300  1
  Sr  Sr6  1  0.88326600  0.50000000  0.27925100  1
  Sr  Sr7  1  0.61673400  0.00000000  0.72074900  1
  Mg  Mg8  1  0.07544600  0.00000000  0.44641400  1
  Mg  Mg9  1  0.42455400  0.50000000  0.55358600  1
  Mg  Mg10  1  0.17397900  0.00000000  0.01811000  1
  Mg  Mg11  1  0.32602100  0.50000000  0.98189000  1
  Mg  Mg12  1  0.00000000  0.25774500  0.00000000  1
  Mg  Mg13  1  0.00000000  0.74225500  0.00000000  1
  Mg  Mg14  1  0.57544600  0.50000000  0.44641400  1
  Mg  Mg15  1  0.92455400  0.00000000  0.55358600  1
  Mg  Mg16  1  0.67397900  0.50000000  0.01811000  1
  Mg  Mg17  1  0.82602100  0.00000000  0.98189000  1
  Mg  Mg18  1  0.50000000  0.75774500  0.00000000  1
  Mg  Mg19  1  0.50000000  0.24225500  0.00000000  1
  H  H20  1  0.11312950  0.27274250  0.02575700  1
  H  H21  1  0.11312950  0.72725750  0.02575700  1
  H  H22  1  0.38687050  0.22725750  0.97424300  1
  H  H23  1  0.38687050  0.77274250  0.97424300  1
  H  H24  1  0.15420900  0.24541400  0.48405600  1
  H  H25  1  0.15420900  0.75458600  0.48405600  1
  H  H26  1  0.34579100  0.25458600  0.51594400  1
  H  H27  1  0.34579100  0.74541400  0.51594400  1
  H  H28  1  0.02165400  0.00000000  0.17716200  1
  H  H29  1  0.47834600  0.50000000  0.82283800  1
  H  H30  1  0.13574000  0.00000000  0.74192900  1
  H  H31  1  0.36426000  0.50000000  0.25807100  1
  H  H32  1  0.23711500  0.00000000  0.28540100  1
  H  H33  1  0.26288500  0.50000000  0.71459900  1
  H  H34  1  0.01639400  0.50000000  0.18911500  1
  H  H35  1  0.48360600  0.00000000  0.81088500  1
  H  H36  1  0.00000000  0.23099400  0.50000000  1
  H  H37  1  0.00000000  0.76900600  0.50000000  1
  H  H38  1  0.25000000  0.25000000  0.00000000  1
  H  H39  1  0.25000000  0.75000000  0.00000000  1
  H  H40  1  0.61312950  0.77274250  0.02575700  1
  H  H41  1  0.61312950  0.22725750  0.02575700  1
  H  H42  1  0.88687050  0.72725750  0.97424300  1
  H  H43  1  0.88687050  0.27274250  0.97424300  1
  H  H44  1  0.65420900  0.74541400  0.48405600  1
  H  H45  1  0.65420900  0.25458600  0.48405600  1
  H  H46  1  0.84579100  0.75458600  0.51594400  1
  H  H47  1  0.84579100  0.24541400  0.51594400  1
  H  H48  1  0.52165400  0.50000000  0.17716200  1
  H  H49  1  0.97834600  0.00000000  0.82283800  1
  H  H50  1  0.63574000  0.50000000  0.74192900  1
  H  H51  1  0.86426000  0.00000000  0.25807100  1
  H  H52  1  0.73711500  0.50000000  0.28540100  1
  H  H53  1  0.76288500  0.00000000  0.71459900  1
  H  H54  1  0.51639400  0.00000000  0.18911500  1
  H  H55  1  0.98360600  0.50000000  0.81088500  1
  H  H56  1  0.50000000  0.73099400  0.50000000  1
  H  H57  1  0.50000000  0.26900600  0.50000000  1
  H  H58  1  0.75000000  0.75000000  0.00000000  1
  H  H59  1  0.75000000  0.25000000  0.00000000  1
