# generated using pymatgen
data_Ba6CaI14
_symmetry_space_group_name_H-M   'P 1'
_cell_length_a   9.03721800
_cell_length_b   24.90949600
_cell_length_c   19.27080000
_cell_angle_alpha   90.00000000
_cell_angle_beta   90.00000000
_cell_angle_gamma   90.00000000
_symmetry_Int_Tables_number   1
_chemical_formula_structural   Ba6CaI14
_chemical_formula_sum   'Ba24 Ca4 I56'
_cell_volume   4338.09884417
_cell_formula_units_Z   4
loop_
 _symmetry_equiv_pos_site_id
 _symmetry_equiv_pos_as_xyz
  1  'x, y, z'
loop_
 _atom_site_type_symbol
 _atom_site_label
 _atom_site_symmetry_multiplicity
 _atom_site_fract_x
 _atom_site_fract_y
 _atom_site_fract_z
 _atom_site_occupancy
  Ba  Ba0  1  0.57718600  0.15523000  0.86768000  1
  Ba  Ba1  1  0.42281400  0.15523000  0.13232000  1
  Ba  Ba2  1  0.42281400  0.34477000  0.36768000  1
  Ba  Ba3  1  0.57718600  0.34477000  0.63232000  1
  Ba  Ba4  1  0.69484600  0.00000000  0.67954500  1
  Ba  Ba5  1  0.19484600  0.00000000  0.82045500  1
  Ba  Ba6  1  0.30515400  0.00000000  0.32045500  1
  Ba  Ba7  1  0.80515400  0.00000000  0.17954500  1
  Ba  Ba8  1  0.07718600  0.15523000  0.63232000  1
  Ba  Ba9  1  0.92281400  0.15523000  0.36768000  1
  Ba  Ba10  1  0.07718600  0.34477000  0.86768000  1
  Ba  Ba11  1  0.92281400  0.34477000  0.13232000  1
  Ba  Ba12  1  0.07718600  0.65523000  0.86768000  1
  Ba  Ba13  1  0.92281400  0.65523000  0.13232000  1
  Ba  Ba14  1  0.92281400  0.84477000  0.36768000  1
  Ba  Ba15  1  0.07718600  0.84477000  0.63232000  1
  Ba  Ba16  1  0.19484600  0.50000000  0.67954500  1
  Ba  Ba17  1  0.69484600  0.50000000  0.82045500  1
  Ba  Ba18  1  0.80515400  0.50000000  0.32045500  1
  Ba  Ba19  1  0.30515400  0.50000000  0.17954500  1
  Ba  Ba20  1  0.57718600  0.65523000  0.63232000  1
  Ba  Ba21  1  0.42281400  0.65523000  0.36768000  1
  Ba  Ba22  1  0.57718600  0.84477000  0.86768000  1
  Ba  Ba23  1  0.42281400  0.84477000  0.13232000  1
  Ca  Ca24  1  0.00000000  0.00000000  0.50000000  1
  Ca  Ca25  1  0.50000000  0.00000000  0.00000000  1
  Ca  Ca26  1  0.50000000  0.50000000  0.50000000  1
  Ca  Ca27  1  0.00000000  0.50000000  0.00000000  1
  I  I28  1  0.40396150  0.09806450  0.71628200  1
  I  I29  1  0.59603850  0.09806450  0.28371800  1
  I  I30  1  0.50000000  0.25925600  0.50000000  1
  I  I31  1  0.67682200  0.25000000  0.75000000  1
  I  I32  1  0.32317800  0.25000000  0.25000000  1
  I  I33  1  0.50000000  0.24074400  0.00000000  1
  I  I34  1  0.40396150  0.40193550  0.78371800  1
  I  I35  1  0.59603850  0.40193550  0.21628200  1
  I  I36  1  0.23114300  0.40966600  0.03958300  1
  I  I37  1  0.76885700  0.40966600  0.96041700  1
  I  I38  1  0.26885700  0.40966600  0.53958300  1
  I  I39  1  0.73114300  0.40966600  0.46041700  1
  I  I40  1  0.09065700  0.00000000  0.64736200  1
  I  I41  1  0.40934300  0.00000000  0.14736200  1
  I  I42  1  0.90934300  0.00000000  0.35263800  1
  I  I43  1  0.59065700  0.00000000  0.85263800  1
  I  I44  1  0.26885700  0.09033400  0.96041700  1
  I  I45  1  0.23114300  0.09033400  0.46041700  1
  I  I46  1  0.76885700  0.09033400  0.53958300  1
  I  I47  1  0.73114300  0.09033400  0.03958300  1
  I  I48  1  0.09603850  0.09806450  0.21628200  1
  I  I49  1  0.90396150  0.09806450  0.78371800  1
  I  I50  1  0.00000000  0.25925600  0.00000000  1
  I  I51  1  0.82317800  0.25000000  0.25000000  1
  I  I52  1  0.17682200  0.25000000  0.75000000  1
  I  I53  1  0.00000000  0.24074400  0.50000000  1
  I  I54  1  0.09603850  0.40193550  0.28371800  1
  I  I55  1  0.90396150  0.40193550  0.71628200  1
  I  I56  1  0.90396150  0.59806450  0.71628200  1
  I  I57  1  0.09603850  0.59806450  0.28371800  1
  I  I58  1  0.00000000  0.75925600  0.50000000  1
  I  I59  1  0.17682200  0.75000000  0.75000000  1
  I  I60  1  0.82317800  0.75000000  0.25000000  1
  I  I61  1  0.00000000  0.74074400  0.00000000  1
  I  I62  1  0.90396150  0.90193550  0.78371800  1
  I  I63  1  0.09603850  0.90193550  0.21628200  1
  I  I64  1  0.73114300  0.90966600  0.03958300  1
  I  I65  1  0.26885700  0.90966600  0.96041700  1
  I  I66  1  0.76885700  0.90966600  0.53958300  1
  I  I67  1  0.23114300  0.90966600  0.46041700  1
  I  I68  1  0.59065700  0.50000000  0.64736200  1
  I  I69  1  0.90934300  0.50000000  0.14736200  1
  I  I70  1  0.40934300  0.50000000  0.35263800  1
  I  I71  1  0.09065700  0.50000000  0.85263800  1
  I  I72  1  0.76885700  0.59033400  0.96041700  1
  I  I73  1  0.73114300  0.59033400  0.46041700  1
  I  I74  1  0.26885700  0.59033400  0.53958300  1
  I  I75  1  0.23114300  0.59033400  0.03958300  1
  I  I76  1  0.59603850  0.59806450  0.21628200  1
  I  I77  1  0.40396150  0.59806450  0.78371800  1
  I  I78  1  0.50000000  0.75925600  0.00000000  1
  I  I79  1  0.32317800  0.75000000  0.25000000  1
  I  I80  1  0.67682200  0.75000000  0.75000000  1
  I  I81  1  0.50000000  0.74074400  0.50000000  1
  I  I82  1  0.59603850  0.90193550  0.28371800  1
  I  I83  1  0.40396150  0.90193550  0.71628200  1
