# generated using pymatgen
data_Sb4O5F2
_symmetry_space_group_name_H-M   'P 1'
_cell_length_a   10.94087800
_cell_length_b   5.62215500
_cell_length_c   14.12911746
_cell_angle_alpha   90.00000000
_cell_angle_beta   98.14768026
_cell_angle_gamma   90.00000000
_symmetry_Int_Tables_number   1
_chemical_formula_structural   Sb4O5F2
_chemical_formula_sum   'Sb16 O20 F8'
_cell_volume   860.32790311
_cell_formula_units_Z   4
loop_
 _symmetry_equiv_pos_site_id
 _symmetry_equiv_pos_as_xyz
  1  'x, y, z'
loop_
 _atom_site_type_symbol
 _atom_site_label
 _atom_site_symmetry_multiplicity
 _atom_site_fract_x
 _atom_site_fract_y
 _atom_site_fract_z
 _atom_site_occupancy
  Sb  Sb0  1  0.60461800  0.86190000  0.96024100  1
  Sb  Sb1  1  0.26712200  0.82129800  0.90692000  1
  Sb  Sb2  1  0.79269600  0.22912200  0.82072600  1
  Sb  Sb3  1  0.41689200  0.32847000  0.77442500  1
  Sb  Sb4  1  0.09882700  0.26998300  0.70435600  1
  Sb  Sb5  1  0.64353800  0.73272300  0.69002600  1
  Sb  Sb6  1  0.30243400  0.81807300  0.62738700  1
  Sb  Sb7  1  0.93412300  0.77092500  0.57588000  1
  Sb  Sb8  1  0.06587700  0.27092500  0.42412000  1
  Sb  Sb9  1  0.69756600  0.31807300  0.37261300  1
  Sb  Sb10  1  0.35646200  0.23272300  0.30997400  1
  Sb  Sb11  1  0.90117300  0.76998300  0.29564400  1
  Sb  Sb12  1  0.58310800  0.82847000  0.22557500  1
  Sb  Sb13  1  0.20730400  0.72912200  0.17927400  1
  Sb  Sb14  1  0.73287800  0.32129800  0.09308000  1
  Sb  Sb15  1  0.39538200  0.36190000  0.03975900  1
  O  O16  1  0.69681200  0.18861600  0.95550000  1
  O  O17  1  0.39222700  0.50176900  0.89999400  1
  O  O18  1  0.42853900  0.00703300  0.92055000  1
  O  O19  1  0.67412200  0.49112800  0.79226600  1
  O  O20  1  0.66282800  0.97923500  0.79087400  1
  O  O21  1  0.25445300  0.48966900  0.71160000  1
  O  O22  1  0.26821800  0.03584000  0.73620100  1
  O  O23  1  0.46349800  0.68473100  0.70533800  1
  O  O24  1  0.03992600  0.47905900  0.58590600  1
  O  O25  1  0.07540700  0.00000400  0.60390600  1
  O  O26  1  0.92459300  0.50000400  0.39609400  1
  O  O27  1  0.96007400  0.97905900  0.41409400  1
  O  O28  1  0.53650200  0.18473100  0.29466200  1
  O  O29  1  0.73178200  0.53584000  0.26379900  1
  O  O30  1  0.74554700  0.98966900  0.28840000  1
  O  O31  1  0.33717200  0.47923500  0.20912600  1
  O  O32  1  0.32587800  0.99112800  0.20773400  1
  O  O33  1  0.57146100  0.50703300  0.07945000  1
  O  O34  1  0.60777300  0.00176900  0.10000600  1
  O  O35  1  0.30318800  0.68861600  0.04450000  1
  F  F36  1  0.19784600  0.13858500  0.95708700  1
  F  F37  1  0.92029400  0.74698900  0.71896300  1
  F  F38  1  0.80924700  0.22023100  0.67604700  1
  F  F39  1  0.41842800  0.09230000  0.59537900  1
  F  F40  1  0.58157200  0.59230000  0.40462100  1
  F  F41  1  0.19075300  0.72023100  0.32395300  1
  F  F42  1  0.07970600  0.24698900  0.28103700  1
  F  F43  1  0.80215400  0.63858500  0.04291300  1
