# generated using pymatgen
data_V5CuO12
_symmetry_space_group_name_H-M   'P 1'
_cell_length_a   10.07566828
_cell_length_b   9.04496007
_cell_length_c   11.84312723
_cell_angle_alpha   90.00000000
_cell_angle_beta   109.95312638
_cell_angle_gamma   90.00000000
_symmetry_Int_Tables_number   1
_chemical_formula_structural   V5CuO12
_chemical_formula_sum   'V20 Cu4 O48'
_cell_volume   1014.52295643
_cell_formula_units_Z   4
loop_
 _symmetry_equiv_pos_site_id
 _symmetry_equiv_pos_as_xyz
  1  'x, y, z'
loop_
 _atom_site_type_symbol
 _atom_site_label
 _atom_site_symmetry_multiplicity
 _atom_site_fract_x
 _atom_site_fract_y
 _atom_site_fract_z
 _atom_site_occupancy
  V  V0  1  0.00000000  0.08163800  0.00000000  1
  V  V1  1  0.20506150  0.59183850  0.24963900  1
  V  V2  1  0.79493850  0.59183850  0.75036100  1
  V  V3  1  0.19791500  0.41108600  0.99307900  1
  V  V4  1  0.80208500  0.41108600  0.00692100  1
  V  V5  1  0.00000000  0.08014350  0.50000000  1
  V  V6  1  0.20688700  0.59029300  0.75037900  1
  V  V7  1  0.79311300  0.59029300  0.24962100  1
  V  V8  1  0.19827300  0.40999400  0.49288700  1
  V  V9  1  0.80172700  0.40999400  0.50711300  1
  V  V10  1  0.50000000  0.58163800  0.00000000  1
  V  V11  1  0.70506150  0.09183850  0.24963900  1
  V  V12  1  0.29493850  0.09183850  0.75036100  1
  V  V13  1  0.69791500  0.91108600  0.99307900  1
  V  V14  1  0.30208500  0.91108600  0.00692100  1
  V  V15  1  0.50000000  0.58014350  0.50000000  1
  V  V16  1  0.70688700  0.09029300  0.75037900  1
  V  V17  1  0.29311300  0.09029300  0.24962100  1
  V  V18  1  0.69827300  0.90999400  0.49288700  1
  V  V19  1  0.30172700  0.90999400  0.50711300  1
  Cu  Cu20  1  0.99639600  0.90564100  0.24700600  1
  Cu  Cu21  1  0.00360400  0.90564100  0.75299400  1
  Cu  Cu22  1  0.49639600  0.40564100  0.24700600  1
  Cu  Cu23  1  0.50360400  0.40564100  0.75299400  1
  O  O24  1  0.38713150  0.57336050  0.31344600  1
  O  O25  1  0.38995600  0.57468600  0.81836000  1
  O  O26  1  0.61004400  0.57468600  0.18164000  1
  O  O27  1  0.61286850  0.57336050  0.68655400  1
  O  O28  1  0.15219400  0.76817500  0.24470300  1
  O  O29  1  0.15379950  0.76606550  0.74300300  1
  O  O30  1  0.84620050  0.76606550  0.25699700  1
  O  O31  1  0.84780600  0.76817500  0.75529700  1
  O  O32  1  0.37941650  0.42025450  0.53709300  1
  O  O33  1  0.37881950  0.41901150  0.04017300  1
  O  O34  1  0.62058350  0.42025450  0.46290700  1
  O  O35  1  0.62118050  0.41901150  0.95982700  1
  O  O36  1  0.13120650  0.49403250  0.34864200  1
  O  O37  1  0.13110100  0.49388700  0.84757000  1
  O  O38  1  0.86889900  0.49388700  0.15243000  1
  O  O39  1  0.86879350  0.49403250  0.65135800  1
  O  O40  1  0.14751600  0.51425900  0.59900200  1
  O  O41  1  0.14503550  0.51525050  0.09890400  1
  O  O42  1  0.85248400  0.51425900  0.40099800  1
  O  O43  1  0.85496450  0.51525050  0.90109600  1
  O  O44  1  0.13544950  0.23289050  0.48340200  1
  O  O45  1  0.13787300  0.23371600  0.98423400  1
  O  O46  1  0.86455050  0.23289050  0.51659800  1
  O  O47  1  0.86212700  0.23371600  0.01576600  1
  O  O48  1  0.88713150  0.07336050  0.31344600  1
  O  O49  1  0.88995600  0.07468600  0.81836000  1
  O  O50  1  0.11004400  0.07468600  0.18164000  1
  O  O51  1  0.11286850  0.07336050  0.68655400  1
  O  O52  1  0.65219400  0.26817500  0.24470300  1
  O  O53  1  0.65379950  0.26606550  0.74300300  1
  O  O54  1  0.34620050  0.26606550  0.25699700  1
  O  O55  1  0.34780600  0.26817500  0.75529700  1
  O  O56  1  0.87941650  0.92025450  0.53709300  1
  O  O57  1  0.87881950  0.91901150  0.04017300  1
  O  O58  1  0.12058350  0.92025450  0.46290700  1
  O  O59  1  0.12118050  0.91901150  0.95982700  1
  O  O60  1  0.63120650  0.99403250  0.34864200  1
  O  O61  1  0.63110100  0.99388700  0.84757000  1
  O  O62  1  0.36889900  0.99388700  0.15243000  1
  O  O63  1  0.36879350  0.99403250  0.65135800  1
  O  O64  1  0.64751600  0.01425900  0.59900200  1
  O  O65  1  0.64503550  0.01525050  0.09890400  1
  O  O66  1  0.35248400  0.01425900  0.40099800  1
  O  O67  1  0.35496450  0.01525050  0.90109600  1
  O  O68  1  0.63544950  0.73289050  0.48340200  1
  O  O69  1  0.63787300  0.73371600  0.98423400  1
  O  O70  1  0.36455050  0.73289050  0.51659800  1
  O  O71  1  0.36212700  0.73371600  0.01576600  1
