# generated using pymatgen
data_Li4Mn2Nb3Fe3O16
_symmetry_space_group_name_H-M   'P 1'
_cell_length_a   10.43534600
_cell_length_b   6.15834800
_cell_length_c   9.92249305
_cell_angle_alpha   90.00000000
_cell_angle_beta   91.53615085
_cell_angle_gamma   90.00000000
_symmetry_Int_Tables_number   1
_chemical_formula_structural   Li4Mn2Nb3Fe3O16
_chemical_formula_sum   'Li8 Mn4 Nb6 Fe6 O32'
_cell_volume   637.43480651
_cell_formula_units_Z   2
loop_
 _symmetry_equiv_pos_site_id
 _symmetry_equiv_pos_as_xyz
  1  'x, y, z'
loop_
 _atom_site_type_symbol
 _atom_site_label
 _atom_site_symmetry_multiplicity
 _atom_site_fract_x
 _atom_site_fract_y
 _atom_site_fract_z
 _atom_site_occupancy
  Li  Li0  1  0.66268800  0.00000000  0.09719700  1
  Li  Li1  1  0.01396000  0.00000000  0.00144600  1
  Li  Li2  1  0.02141500  0.00000000  0.50622300  1
  Li  Li3  1  0.33435400  0.00000000  0.62280900  1
  Li  Li4  1  0.16268800  0.50000000  0.09719700  1
  Li  Li5  1  0.51396000  0.50000000  0.00144600  1
  Li  Li6  1  0.52141500  0.50000000  0.50622300  1
  Li  Li7  1  0.83435400  0.50000000  0.62280900  1
  Mn  Mn8  1  0.65229200  0.00000000  0.51163500  1
  Mn  Mn9  1  0.32943200  0.00000000  0.00468900  1
  Mn  Mn10  1  0.15229200  0.50000000  0.51163500  1
  Mn  Mn11  1  0.82943200  0.50000000  0.00468900  1
  Nb  Nb12  1  0.83111800  0.00000000  0.78479200  1
  Nb  Nb13  1  0.40638450  0.75018950  0.28588900  1
  Nb  Nb14  1  0.40638450  0.24981050  0.28588900  1
  Nb  Nb15  1  0.33111800  0.50000000  0.78479200  1
  Nb  Nb16  1  0.90638450  0.25018950  0.28588900  1
  Nb  Nb17  1  0.90638450  0.74981050  0.28588900  1
  Fe  Fe18  1  0.58393400  0.75781900  0.78739200  1
  Fe  Fe19  1  0.58393400  0.24218100  0.78739200  1
  Fe  Fe20  1  0.16824600  0.00000000  0.28049000  1
  Fe  Fe21  1  0.08393400  0.25781900  0.78739200  1
  Fe  Fe22  1  0.08393400  0.74218100  0.78739200  1
  Fe  Fe23  1  0.66824600  0.50000000  0.28049000  1
  O  O24  1  0.57268800  0.73892500  0.38793500  1
  O  O25  1  0.51597600  0.00000000  0.67326900  1
  O  O26  1  0.67390700  0.00000000  0.89919000  1
  O  O27  1  0.00219700  0.00000000  0.68922400  1
  O  O28  1  0.98611100  0.00000000  0.18165200  1
  O  O29  1  0.57268800  0.26107500  0.38793500  1
  O  O30  1  0.74636800  0.77611300  0.66984200  1
  O  O31  1  0.74636800  0.22388700  0.66984200  1
  O  O32  1  0.17072400  0.00000000  0.89956400  1
  O  O33  1  0.83623400  0.00000000  0.39436000  1
  O  O34  1  0.25732300  0.77093200  0.16001300  1
  O  O35  1  0.25732300  0.22906800  0.16001300  1
  O  O36  1  0.34405100  0.00000000  0.40032300  1
  O  O37  1  0.42222600  0.73635500  0.90226700  1
  O  O38  1  0.47277300  0.00000000  0.15957000  1
  O  O39  1  0.42222600  0.26364500  0.90226700  1
  O  O40  1  0.07268800  0.23892500  0.38793500  1
  O  O41  1  0.01597600  0.50000000  0.67326900  1
  O  O42  1  0.17390700  0.50000000  0.89919000  1
  O  O43  1  0.50219700  0.50000000  0.68922400  1
  O  O44  1  0.48611100  0.50000000  0.18165200  1
  O  O45  1  0.07268800  0.76107500  0.38793500  1
  O  O46  1  0.24636800  0.27611300  0.66984200  1
  O  O47  1  0.24636800  0.72388700  0.66984200  1
  O  O48  1  0.67072400  0.50000000  0.89956400  1
  O  O49  1  0.33623400  0.50000000  0.39436000  1
  O  O50  1  0.75732300  0.27093200  0.16001300  1
  O  O51  1  0.75732300  0.72906800  0.16001300  1
  O  O52  1  0.84405100  0.50000000  0.40032300  1
  O  O53  1  0.92222600  0.23635500  0.90226700  1
  O  O54  1  0.97277300  0.50000000  0.15957000  1
  O  O55  1  0.92222600  0.76364500  0.90226700  1
