# generated using pymatgen
data_Li2Cu3F8
_symmetry_space_group_name_H-M   'P 1'
_cell_length_a   6.19449400
_cell_length_b   10.57542800
_cell_length_c   9.15462874
_cell_angle_alpha   90.00000000
_cell_angle_beta   90.26610699
_cell_angle_gamma   90.00000000
_symmetry_Int_Tables_number   1
_chemical_formula_structural   Li2Cu3F8
_chemical_formula_sum   'Li8 Cu12 F32'
_cell_volume   599.70799913
_cell_formula_units_Z   4
loop_
 _symmetry_equiv_pos_site_id
 _symmetry_equiv_pos_as_xyz
  1  'x, y, z'
loop_
 _atom_site_type_symbol
 _atom_site_label
 _atom_site_symmetry_multiplicity
 _atom_site_fract_x
 _atom_site_fract_y
 _atom_site_fract_z
 _atom_site_occupancy
  Li  Li0  1  0.49799450  0.16639350  0.53917900  1
  Li  Li1  1  0.50008200  0.16779900  0.91623800  1
  Li  Li2  1  0.49799450  0.83360650  0.03917900  1
  Li  Li3  1  0.50008200  0.83220100  0.41623800  1
  Li  Li4  1  0.99799450  0.66639350  0.53917900  1
  Li  Li5  1  0.00008200  0.66779900  0.91623800  1
  Li  Li6  1  0.99799450  0.33360650  0.03917900  1
  Li  Li7  1  0.00008200  0.33220100  0.41623800  1
  Cu  Cu8  1  0.24933550  0.08113650  0.24983800  1
  Cu  Cu9  1  0.75375700  0.08389800  0.24979400  1
  Cu  Cu10  1  0.49748200  0.66481100  0.74726400  1
  Cu  Cu11  1  0.49748200  0.33518900  0.24726400  1
  Cu  Cu12  1  0.24933550  0.91886350  0.74983800  1
  Cu  Cu13  1  0.75375700  0.91610200  0.74979400  1
  Cu  Cu14  1  0.74933550  0.58113650  0.24983800  1
  Cu  Cu15  1  0.25375700  0.58389800  0.24979400  1
  Cu  Cu16  1  0.99748200  0.16481100  0.74726400  1
  Cu  Cu17  1  0.99748200  0.83518900  0.24726400  1
  Cu  Cu18  1  0.74933550  0.41886350  0.74983800  1
  Cu  Cu19  1  0.25375700  0.41610200  0.74979400  1
  F  F20  1  0.26829350  0.06910950  0.63815400  1
  F  F21  1  0.52864250  0.01383550  0.37252800  1
  F  F22  1  0.25288900  0.22686500  0.37617800  1
  F  F23  1  0.49793000  0.17202000  0.12842600  1
  F  F24  1  0.50182700  0.50551400  0.86217600  1
  F  F25  1  0.76014600  0.09369600  0.64031600  1
  F  F26  1  0.71558000  0.25554400  0.37203200  1
  F  F27  1  0.47618250  0.66634750  0.14177800  1
  F  F28  1  0.47618250  0.33365250  0.64177800  1
  F  F29  1  0.25288900  0.77313500  0.87617800  1
  F  F30  1  0.71558000  0.74445600  0.87203200  1
  F  F31  1  0.49793000  0.82798000  0.62842600  1
  F  F32  1  0.50182700  0.49448600  0.36217600  1
  F  F33  1  0.26829350  0.93089050  0.13815400  1
  F  F34  1  0.52864250  0.98616450  0.87252800  1
  F  F35  1  0.76014600  0.90630400  0.14031600  1
  F  F36  1  0.76829350  0.56910950  0.63815400  1
  F  F37  1  0.02864250  0.51383550  0.37252800  1
  F  F38  1  0.75288900  0.72686500  0.37617800  1
  F  F39  1  0.99793000  0.67202000  0.12842600  1
  F  F40  1  0.00182700  0.00551400  0.86217600  1
  F  F41  1  0.26014600  0.59369600  0.64031600  1
  F  F42  1  0.21558000  0.75554400  0.37203200  1
  F  F43  1  0.97618250  0.16634750  0.14177800  1
  F  F44  1  0.97618250  0.83365250  0.64177800  1
  F  F45  1  0.75288900  0.27313500  0.87617800  1
  F  F46  1  0.21558000  0.24445600  0.87203200  1
  F  F47  1  0.99793000  0.32798000  0.62842600  1
  F  F48  1  0.00182700  0.99448600  0.36217600  1
  F  F49  1  0.76829350  0.43089050  0.13815400  1
  F  F50  1  0.02864250  0.48616450  0.87252800  1
  F  F51  1  0.26014600  0.40630400  0.14031600  1
