# generated using pymatgen
data_BaLa2Cl8
_symmetry_space_group_name_H-M   'P 1'
_cell_length_a   18.11364800
_cell_length_b   10.19427400
_cell_length_c   10.72125642
_cell_angle_alpha   90.00000000
_cell_angle_beta   119.73376716
_cell_angle_gamma   90.00000000
_symmetry_Int_Tables_number   1
_chemical_formula_structural   BaLa2Cl8
_chemical_formula_sum   'Ba4 La8 Cl32'
_cell_volume   1719.08519197
_cell_formula_units_Z   4
loop_
 _symmetry_equiv_pos_site_id
 _symmetry_equiv_pos_as_xyz
  1  'x, y, z'
loop_
 _atom_site_type_symbol
 _atom_site_label
 _atom_site_symmetry_multiplicity
 _atom_site_fract_x
 _atom_site_fract_y
 _atom_site_fract_z
 _atom_site_occupancy
  Ba  Ba0  1  0.00000000  0.01966300  0.75000000  1
  Ba  Ba1  1  0.00000000  0.98033700  0.25000000  1
  Ba  Ba2  1  0.50000000  0.51966300  0.75000000  1
  Ba  Ba3  1  0.50000000  0.48033700  0.25000000  1
  La  La4  1  0.26099200  0.73653900  0.22863200  1
  La  La5  1  0.26099200  0.26346100  0.72863200  1
  La  La6  1  0.23900800  0.23653900  0.27136800  1
  La  La7  1  0.23900800  0.76346100  0.77136800  1
  La  La8  1  0.76099200  0.23653900  0.22863200  1
  La  La9  1  0.76099200  0.76346100  0.72863200  1
  La  La10  1  0.73900800  0.73653900  0.27136800  1
  La  La11  1  0.73900800  0.26346100  0.77136800  1
  Cl  Cl12  1  0.34965400  0.70423100  0.67914300  1
  Cl  Cl13  1  0.41419600  0.61711200  0.41900400  1
  Cl  Cl14  1  0.32341000  0.00938800  0.81662100  1
  Cl  Cl15  1  0.34910800  0.68795500  0.06160900  1
  Cl  Cl16  1  0.15034600  0.20423100  0.82085700  1
  Cl  Cl17  1  0.32341000  0.99061200  0.31662100  1
  Cl  Cl18  1  0.41419600  0.38288800  0.91900400  1
  Cl  Cl19  1  0.34910800  0.31204500  0.56160900  1
  Cl  Cl20  1  0.15089200  0.18795500  0.43839100  1
  Cl  Cl21  1  0.08580400  0.11711200  0.08099600  1
  Cl  Cl22  1  0.17659000  0.50938800  0.68337900  1
  Cl  Cl23  1  0.34965400  0.29576900  0.17914300  1
  Cl  Cl24  1  0.15089200  0.81204500  0.93839100  1
  Cl  Cl25  1  0.17659000  0.49061200  0.18337900  1
  Cl  Cl26  1  0.08580400  0.88288800  0.58099600  1
  Cl  Cl27  1  0.15034600  0.79576900  0.32085700  1
  Cl  Cl28  1  0.84965400  0.20423100  0.67914300  1
  Cl  Cl29  1  0.91419600  0.11711200  0.41900400  1
  Cl  Cl30  1  0.82341000  0.50938800  0.81662100  1
  Cl  Cl31  1  0.84910800  0.18795500  0.06160900  1
  Cl  Cl32  1  0.65034600  0.70423100  0.82085700  1
  Cl  Cl33  1  0.82341000  0.49061200  0.31662100  1
  Cl  Cl34  1  0.91419600  0.88288800  0.91900400  1
  Cl  Cl35  1  0.84910800  0.81204500  0.56160900  1
  Cl  Cl36  1  0.65089200  0.68795500  0.43839100  1
  Cl  Cl37  1  0.58580400  0.61711200  0.08099600  1
  Cl  Cl38  1  0.67659000  0.00938800  0.68337900  1
  Cl  Cl39  1  0.84965400  0.79576900  0.17914300  1
  Cl  Cl40  1  0.65089200  0.31204500  0.93839100  1
  Cl  Cl41  1  0.67659000  0.99061200  0.18337900  1
  Cl  Cl42  1  0.58580400  0.38288800  0.58099600  1
  Cl  Cl43  1  0.65034600  0.29576900  0.32085700  1
