# generated using pymatgen
data_BaB2H2O5
_symmetry_space_group_name_H-M   'P 1'
_cell_length_a   7.05629300
_cell_length_b   7.24335200
_cell_length_c   11.98664859
_cell_angle_alpha   90.00000000
_cell_angle_beta   90.98564426
_cell_angle_gamma   90.00000000
_symmetry_Int_Tables_number   1
_chemical_formula_structural   BaB2H2O5
_chemical_formula_sum   'Ba6 B12 H12 O30'
_cell_volume   612.56151106
_cell_formula_units_Z   6
loop_
 _symmetry_equiv_pos_site_id
 _symmetry_equiv_pos_as_xyz
  1  'x, y, z'
loop_
 _atom_site_type_symbol
 _atom_site_label
 _atom_site_symmetry_multiplicity
 _atom_site_fract_x
 _atom_site_fract_y
 _atom_site_fract_z
 _atom_site_occupancy
  Ba  Ba0  1  0.00000000  0.62925500  0.25000000  1
  Ba  Ba1  1  0.00000000  0.37074500  0.75000000  1
  Ba  Ba2  1  0.68044800  0.22594800  0.44631900  1
  Ba  Ba3  1  0.68044800  0.77405200  0.94631900  1
  Ba  Ba4  1  0.31955200  0.22594800  0.05368100  1
  Ba  Ba5  1  0.31955200  0.77405200  0.55368100  1
  B  B6  1  0.00000000  0.13938000  0.25000000  1
  B  B7  1  0.00000000  0.86062000  0.75000000  1
  B  B8  1  0.82621000  0.23674300  0.06632200  1
  B  B9  1  0.82621000  0.76325700  0.56632200  1
  B  B10  1  0.66367100  0.99873300  0.19828000  1
  B  B11  1  0.66367100  0.00126700  0.69828000  1
  B  B12  1  0.50000000  0.69101800  0.25000000  1
  B  B13  1  0.50000000  0.30898200  0.75000000  1
  B  B14  1  0.33632900  0.99873300  0.30172000  1
  B  B15  1  0.33632900  0.00126700  0.80172000  1
  B  B16  1  0.17379000  0.23674300  0.43367800  1
  B  B17  1  0.17379000  0.76325700  0.93367800  1
  H  H18  1  0.88291000  0.88549400  0.40979900  1
  H  H19  1  0.88291000  0.11450600  0.90979900  1
  H  H20  1  0.64404100  0.44747400  0.11866000  1
  H  H21  1  0.64404100  0.55252600  0.61866000  1
  H  H22  1  0.64438000  0.61675800  0.39520800  1
  H  H23  1  0.64438000  0.38324200  0.89520800  1
  H  H24  1  0.35562000  0.61675800  0.10479200  1
  H  H25  1  0.35562000  0.38324200  0.60479200  1
  H  H26  1  0.35595900  0.44747400  0.38134000  1
  H  H27  1  0.35595900  0.55252600  0.88134000  1
  H  H28  1  0.11709000  0.88549400  0.09020100  1
  H  H29  1  0.11709000  0.11450600  0.59020100  1
  O  O30  1  0.96584100  0.26615300  0.15452500  1
  O  O31  1  0.96584100  0.73384700  0.65452500  1
  O  O32  1  0.92818500  0.78341100  0.45759300  1
  O  O33  1  0.92818500  0.21658900  0.95759300  1
  O  O34  1  0.83411100  0.01866200  0.27278400  1
  O  O35  1  0.83411100  0.98133800  0.77278400  1
  O  O36  1  0.71248600  0.41616700  0.05069700  1
  O  O37  1  0.69851900  0.08148500  0.08548900  1
  O  O38  1  0.71248600  0.58383300  0.55069700  1
  O  O39  1  0.69851900  0.91851500  0.58548900  1
  O  O40  1  0.62294800  0.79969700  0.17831400  1
  O  O41  1  0.61521400  0.55900800  0.32279000  1
  O  O42  1  0.62294800  0.20030300  0.67831400  1
  O  O43  1  0.61521400  0.44099200  0.82279000  1
  O  O44  1  0.50000000  0.09209800  0.25000000  1
  O  O45  1  0.50000000  0.90790200  0.75000000  1
  O  O46  1  0.38478600  0.55900800  0.17721000  1
  O  O47  1  0.37705200  0.79969700  0.32168600  1
  O  O48  1  0.38478600  0.44099200  0.67721000  1
  O  O49  1  0.37705200  0.20030300  0.82168600  1
  O  O50  1  0.30148100  0.08148500  0.41451100  1
  O  O51  1  0.28751400  0.41616700  0.44930300  1
  O  O52  1  0.30148100  0.91851500  0.91451100  1
  O  O53  1  0.28751400  0.58383300  0.94930300  1
  O  O54  1  0.16588900  0.01866200  0.22721600  1
  O  O55  1  0.16588900  0.98133800  0.72721600  1
  O  O56  1  0.07181500  0.78341100  0.04240700  1
  O  O57  1  0.07181500  0.21658900  0.54240700  1
  O  O58  1  0.03415900  0.26615300  0.34547500  1
  O  O59  1  0.03415900  0.73384700  0.84547500  1
