# generated using pymatgen
data_SrLu2O4
_symmetry_space_group_name_H-M   'P 1'
_cell_length_a   3.31261400
_cell_length_b   10.94657000
_cell_length_c   11.02485600
_cell_angle_alpha   90.00000000
_cell_angle_beta   90.00000000
_cell_angle_gamma   90.00000000
_symmetry_Int_Tables_number   1
_chemical_formula_structural   SrLu2O4
_chemical_formula_sum   'Sr4 Lu8 O16'
_cell_volume   399.78069371
_cell_formula_units_Z   4
loop_
 _symmetry_equiv_pos_site_id
 _symmetry_equiv_pos_as_xyz
  1  'x, y, z'
loop_
 _atom_site_type_symbol
 _atom_site_label
 _atom_site_symmetry_multiplicity
 _atom_site_fract_x
 _atom_site_fract_y
 _atom_site_fract_z
 _atom_site_occupancy
  Sr  Sr0  1  0.50000000  0.11070200  0.75000000  1
  Sr  Sr1  1  0.00000000  0.38929800  0.25000000  1
  Sr  Sr2  1  0.00000000  0.61070200  0.75000000  1
  Sr  Sr3  1  0.50000000  0.88929800  0.25000000  1
  Lu  Lu4  1  0.00000000  0.13396600  0.42825600  1
  Lu  Lu5  1  0.00000000  0.13396600  0.07174400  1
  Lu  Lu6  1  0.50000000  0.36603400  0.57174400  1
  Lu  Lu7  1  0.50000000  0.36603400  0.92825600  1
  Lu  Lu8  1  0.50000000  0.63396600  0.42825600  1
  Lu  Lu9  1  0.50000000  0.63396600  0.07174400  1
  Lu  Lu10  1  0.00000000  0.86603400  0.57174400  1
  Lu  Lu11  1  0.00000000  0.86603400  0.92825600  1
  O  O12  1  0.50000000  0.00000000  0.50000000  1
  O  O13  1  0.50000000  0.00000000  0.00000000  1
  O  O14  1  0.00000000  0.05386100  0.25000000  1
  O  O15  1  0.00000000  0.23615400  0.60684400  1
  O  O16  1  0.00000000  0.23615400  0.89315600  1
  O  O17  1  0.50000000  0.26384600  0.10684400  1
  O  O18  1  0.50000000  0.26384600  0.39315600  1
  O  O19  1  0.50000000  0.44613900  0.75000000  1
  O  O20  1  0.00000000  0.50000000  0.50000000  1
  O  O21  1  0.00000000  0.50000000  0.00000000  1
  O  O22  1  0.50000000  0.55386100  0.25000000  1
  O  O23  1  0.50000000  0.73615400  0.60684400  1
  O  O24  1  0.50000000  0.73615400  0.89315600  1
  O  O25  1  0.00000000  0.76384600  0.10684400  1
  O  O26  1  0.00000000  0.76384600  0.39315600  1
  O  O27  1  0.00000000  0.94613900  0.75000000  1
