# generated using pymatgen
data_Sc2TiO5
_symmetry_space_group_name_H-M   'P 1'
_cell_length_a   3.87999400
_cell_length_b   10.23383800
_cell_length_c   10.35056200
_cell_angle_alpha   90.00000000
_cell_angle_beta   90.00000000
_cell_angle_gamma   90.00000000
_symmetry_Int_Tables_number   1
_chemical_formula_structural   Sc2TiO5
_chemical_formula_sum   'Sc8 Ti4 O20'
_cell_volume   410.99214635
_cell_formula_units_Z   4
loop_
 _symmetry_equiv_pos_site_id
 _symmetry_equiv_pos_as_xyz
  1  'x, y, z'
loop_
 _atom_site_type_symbol
 _atom_site_label
 _atom_site_symmetry_multiplicity
 _atom_site_fract_x
 _atom_site_fract_y
 _atom_site_fract_z
 _atom_site_occupancy
  Sc  Sc0  1  0.00000000  0.36300700  0.56338800  1
  Sc  Sc1  1  0.00000000  0.30590700  0.25039700  1
  Sc  Sc2  1  0.50000000  0.19409300  0.75039700  1
  Sc  Sc3  1  0.50000000  0.13699300  0.06338800  1
  Sc  Sc4  1  0.50000000  0.86300700  0.56338800  1
  Sc  Sc5  1  0.50000000  0.80590700  0.25039700  1
  Sc  Sc6  1  0.00000000  0.69409300  0.75039700  1
  Sc  Sc7  1  0.00000000  0.63699300  0.06338800  1
  Ti  Ti8  1  0.00000000  0.36640500  0.94088200  1
  Ti  Ti9  1  0.50000000  0.13359500  0.44088200  1
  Ti  Ti10  1  0.50000000  0.86640500  0.94088200  1
  Ti  Ti11  1  0.00000000  0.63359500  0.44088200  1
  O  O12  1  0.00000000  0.44603700  0.10842500  1
  O  O13  1  0.00000000  0.18604300  0.42972700  1
  O  O14  1  0.00000000  0.27021800  0.75799100  1
  O  O15  1  0.00000000  0.19878000  0.06815800  1
  O  O16  1  0.00000000  0.46357400  0.38103100  1
  O  O17  1  0.50000000  0.22978200  0.25799100  1
  O  O18  1  0.50000000  0.31395700  0.92972700  1
  O  O19  1  0.50000000  0.05396300  0.60842500  1
  O  O20  1  0.50000000  0.03642600  0.88103100  1
  O  O21  1  0.50000000  0.30122000  0.56815800  1
  O  O22  1  0.50000000  0.94603700  0.10842500  1
  O  O23  1  0.50000000  0.68604300  0.42972700  1
  O  O24  1  0.50000000  0.77021800  0.75799100  1
  O  O25  1  0.50000000  0.69878000  0.06815800  1
  O  O26  1  0.50000000  0.96357400  0.38103100  1
  O  O27  1  0.00000000  0.72978200  0.25799100  1
  O  O28  1  0.00000000  0.81395700  0.92972700  1
  O  O29  1  0.00000000  0.55396300  0.60842500  1
  O  O30  1  0.00000000  0.53642600  0.88103100  1
  O  O31  1  0.00000000  0.80122000  0.56815800  1
