# generated using pymatgen
data_K2Mn3V2(HO5)2
_symmetry_space_group_name_H-M   'P 1'
_cell_length_a   15.32982707
_cell_length_b   6.26008100
_cell_length_c   5.46932594
_cell_angle_alpha   90.00000000
_cell_angle_beta   105.21880187
_cell_angle_gamma   90.00000000
_symmetry_Int_Tables_number   1
_chemical_formula_structural   K2Mn3V2(HO5)2
_chemical_formula_sum   'K4 Mn6 V4 H4 O20'
_cell_volume   506.46216251
_cell_formula_units_Z   2
loop_
 _symmetry_equiv_pos_site_id
 _symmetry_equiv_pos_as_xyz
  1  'x, y, z'
loop_
 _atom_site_type_symbol
 _atom_site_label
 _atom_site_symmetry_multiplicity
 _atom_site_fract_x
 _atom_site_fract_y
 _atom_site_fract_z
 _atom_site_occupancy
  K  K0  1  0.23731550  0.00000000  0.79743150  1
  K  K1  1  0.26268450  0.50000000  0.20256850  1
  K  K2  1  0.73731550  0.50000000  0.79743150  1
  K  K3  1  0.76268450  0.00000000  0.20256850  1
  Mn  Mn4  1  0.00000000  0.73632650  0.00000000  1
  Mn  Mn5  1  0.50000000  0.76367350  0.00000000  1
  Mn  Mn6  1  0.50000000  0.50000000  0.50000000  1
  Mn  Mn7  1  0.50000000  0.23632650  0.00000000  1
  Mn  Mn8  1  0.00000000  0.26367350  0.00000000  1
  Mn  Mn9  1  0.00000000  0.00000000  0.50000000  1
  V  V10  1  0.37921550  0.00000000  0.40915150  1
  V  V11  1  0.12078450  0.50000000  0.59084850  1
  V  V12  1  0.87921550  0.50000000  0.40915150  1
  V  V13  1  0.62078450  0.00000000  0.59084850  1
  H  H14  1  0.36097150  0.50000000  0.74145950  1
  H  H15  1  0.13902850  0.00000000  0.25854050  1
  H  H16  1  0.86097150  0.00000000  0.74145950  1
  H  H17  1  0.63902850  0.50000000  0.25854050  1
  O  O18  1  0.42762575  0.50000000  0.78177650  1
  O  O19  1  0.07237425  0.00000000  0.21822350  1
  O  O20  1  0.41581825  0.00000000  0.74548450  1
  O  O21  1  0.08418175  0.50000000  0.25451550  1
  O  O22  1  0.23694175  0.50000000  0.67899750  1
  O  O23  1  0.26305825  0.00000000  0.32100250  1
  O  O24  1  0.41476000  0.76765600  0.27855550  1
  O  O25  1  0.41476000  0.23234400  0.27855550  1
  O  O26  1  0.08524000  0.73234400  0.72144450  1
  O  O27  1  0.08524000  0.26765600  0.72144450  1
  O  O28  1  0.92762575  0.00000000  0.78177650  1
  O  O29  1  0.57237425  0.50000000  0.21822350  1
  O  O30  1  0.91581825  0.50000000  0.74548450  1
  O  O31  1  0.58418175  0.00000000  0.25451550  1
  O  O32  1  0.73694175  0.00000000  0.67899750  1
  O  O33  1  0.76305825  0.50000000  0.32100250  1
  O  O34  1  0.91476000  0.26765600  0.27855550  1
  O  O35  1  0.91476000  0.73234400  0.27855550  1
  O  O36  1  0.58524000  0.23234400  0.72144450  1
  O  O37  1  0.58524000  0.76765600  0.72144450  1
