# generated using pymatgen
data_LiMn2F5
_symmetry_space_group_name_H-M   'P 1'
_cell_length_a   4.12052000
_cell_length_b   10.53546200
_cell_length_c   10.49180000
_cell_angle_alpha   90.00000000
_cell_angle_beta   90.00000000
_cell_angle_gamma   90.00000000
_symmetry_Int_Tables_number   1
_chemical_formula_structural   LiMn2F5
_chemical_formula_sum   'Li4 Mn8 F20'
_cell_volume   455.46563477
_cell_formula_units_Z   4
loop_
 _symmetry_equiv_pos_site_id
 _symmetry_equiv_pos_as_xyz
  1  'x, y, z'
loop_
 _atom_site_type_symbol
 _atom_site_label
 _atom_site_symmetry_multiplicity
 _atom_site_fract_x
 _atom_site_fract_y
 _atom_site_fract_z
 _atom_site_occupancy
  Li  Li0  1  0.00000000  0.17664700  0.75000000  1
  Li  Li1  1  0.50000000  0.32335300  0.25000000  1
  Li  Li2  1  0.50000000  0.67664700  0.75000000  1
  Li  Li3  1  0.00000000  0.82335300  0.25000000  1
  Mn  Mn4  1  0.00000000  0.13937500  0.06951800  1
  Mn  Mn5  1  0.00000000  0.13937500  0.43048200  1
  Mn  Mn6  1  0.50000000  0.36062500  0.56951800  1
  Mn  Mn7  1  0.50000000  0.36062500  0.93048200  1
  Mn  Mn8  1  0.50000000  0.63937500  0.06951800  1
  Mn  Mn9  1  0.50000000  0.63937500  0.43048200  1
  Mn  Mn10  1  0.00000000  0.86062500  0.56951800  1
  Mn  Mn11  1  0.00000000  0.86062500  0.93048200  1
  F  F12  1  0.00000000  0.30990300  0.93266000  1
  F  F13  1  0.00000000  0.05342900  0.61586100  1
  F  F14  1  0.00000000  0.05342900  0.88413900  1
  F  F15  1  0.00000000  0.30990300  0.56734000  1
  F  F16  1  0.00000000  0.23569700  0.25000000  1
  F  F17  1  0.50000000  0.26430300  0.75000000  1
  F  F18  1  0.50000000  0.44657100  0.11586100  1
  F  F19  1  0.50000000  0.19009700  0.06734000  1
  F  F20  1  0.50000000  0.19009700  0.43266000  1
  F  F21  1  0.50000000  0.44657100  0.38413900  1
  F  F22  1  0.50000000  0.80990300  0.93266000  1
  F  F23  1  0.50000000  0.55342900  0.61586100  1
  F  F24  1  0.50000000  0.55342900  0.88413900  1
  F  F25  1  0.50000000  0.80990300  0.56734000  1
  F  F26  1  0.50000000  0.73569700  0.25000000  1
  F  F27  1  0.00000000  0.76430300  0.75000000  1
  F  F28  1  0.00000000  0.94657100  0.11586100  1
  F  F29  1  0.00000000  0.69009700  0.06734000  1
  F  F30  1  0.00000000  0.69009700  0.43266000  1
  F  F31  1  0.00000000  0.94657100  0.38413900  1
