# generated using pymatgen
data_BaAg2GeS4
_symmetry_space_group_name_H-M   'P 1'
_cell_length_a   6.86225400
_cell_length_b   6.86225400
_cell_length_c   8.30176800
_cell_angle_alpha   90.00000000
_cell_angle_beta   90.00000000
_cell_angle_gamma   90.00000000
_symmetry_Int_Tables_number   1
_chemical_formula_structural   BaAg2GeS4
_chemical_formula_sum   'Ba2 Ag4 Ge2 S8'
_cell_volume   390.93465473
_cell_formula_units_Z   2
loop_
 _symmetry_equiv_pos_site_id
 _symmetry_equiv_pos_as_xyz
  1  'x, y, z'
loop_
 _atom_site_type_symbol
 _atom_site_label
 _atom_site_symmetry_multiplicity
 _atom_site_fract_x
 _atom_site_fract_y
 _atom_site_fract_z
 _atom_site_occupancy
  Ba  Ba0  1  0.00000000  0.00000000  0.00000000  1
  Ba  Ba1  1  0.50000000  0.50000000  0.50000000  1
  Ag  Ag2  1  0.50000000  0.00000000  0.25000000  1
  Ag  Ag3  1  0.00000000  0.50000000  0.25000000  1
  Ag  Ag4  1  0.00000000  0.50000000  0.75000000  1
  Ag  Ag5  1  0.50000000  0.00000000  0.75000000  1
  Ge  Ge6  1  0.00000000  0.00000000  0.50000000  1
  Ge  Ge7  1  0.50000000  0.50000000  0.00000000  1
  S  S8  1  0.31106050  0.31106050  0.84446650  1
  S  S9  1  0.81106050  0.18893950  0.65553350  1
  S  S10  1  0.18893950  0.81106050  0.65553350  1
  S  S11  1  0.18893950  0.18893950  0.34446650  1
  S  S12  1  0.81106050  0.81106050  0.34446650  1
  S  S13  1  0.31106050  0.68893950  0.15553350  1
  S  S14  1  0.68893950  0.31106050  0.15553350  1
  S  S15  1  0.68893950  0.68893950  0.84446650  1
