# generated using pymatgen
data_Na5V7O14
_symmetry_space_group_name_H-M   'P 1'
_cell_length_a   5.20066300
_cell_length_b   7.26682986
_cell_length_c   8.39236117
_cell_angle_alpha   90.59616985
_cell_angle_beta   102.66111489
_cell_angle_gamma   98.17344864
_symmetry_Int_Tables_number   1
_chemical_formula_structural   Na5V7O14
_chemical_formula_sum   'Na5 V7 O14'
_cell_volume   306.02731953
_cell_formula_units_Z   1
loop_
 _symmetry_equiv_pos_site_id
 _symmetry_equiv_pos_as_xyz
  1  'x, y, z'
loop_
 _atom_site_type_symbol
 _atom_site_label
 _atom_site_symmetry_multiplicity
 _atom_site_fract_x
 _atom_site_fract_y
 _atom_site_fract_z
 _atom_site_occupancy
  Na  Na0  1  0.07785000  0.65485200  0.65160900  1
  Na  Na1  1  0.50000000  0.50000000  0.50000000  1
  Na  Na2  1  0.92215000  0.34514800  0.34839100  1
  Na  Na3  1  0.78523000  0.06751100  0.06792000  1
  Na  Na4  1  0.21477000  0.93248900  0.93208000  1
  V  V5  1  0.85298400  0.21279700  0.71219600  1
  V  V6  1  0.14701600  0.78720300  0.28780400  1
  V  V7  1  0.57597800  0.64081700  0.14630800  1
  V  V8  1  0.28570800  0.07329600  0.56868200  1
  V  V9  1  0.00000000  0.50000000  0.00000000  1
  V  V10  1  0.71429200  0.92670400  0.43131800  1
  V  V11  1  0.42402200  0.35918300  0.85369200  1
  O  O12  1  0.75655800  0.46571700  0.77459000  1
  O  O13  1  0.17929400  0.33087100  0.62565400  1
  O  O14  1  0.82070600  0.66912900  0.37434600  1
  O  O15  1  0.60541600  0.17973300  0.48825200  1
  O  O16  1  0.24344200  0.53428300  0.22541000  1
  O  O17  1  0.96794400  0.96083700  0.64949400  1
  O  O18  1  0.90220500  0.75184900  0.06287200  1
  O  O19  1  0.39458400  0.82026700  0.51174800  1
  O  O20  1  0.03205600  0.03916300  0.35050600  1
  O  O21  1  0.69754500  0.39040700  0.07733300  1
  O  O22  1  0.30245500  0.60959300  0.92266700  1
  O  O23  1  0.09779500  0.24815100  0.93712800  1
  O  O24  1  0.48291100  0.89578700  0.20646400  1
  O  O25  1  0.51708900  0.10421300  0.79353600  1
