# generated using pymatgen
data_Li10Ti11Nb6O42
_symmetry_space_group_name_H-M   'P 1'
_cell_length_a   5.17763797
_cell_length_b   5.17763797
_cell_length_c   33.00673600
_cell_angle_alpha   90.00000000
_cell_angle_beta   90.00000000
_cell_angle_gamma   120.00000000
_symmetry_Int_Tables_number   1
_chemical_formula_structural   Li10Ti11Nb6O42
_chemical_formula_sum   'Li10 Ti11 Nb6 O42'
_cell_volume   766.29602279
_cell_formula_units_Z   1
loop_
 _symmetry_equiv_pos_site_id
 _symmetry_equiv_pos_as_xyz
  1  'x, y, z'
loop_
 _atom_site_type_symbol
 _atom_site_label
 _atom_site_symmetry_multiplicity
 _atom_site_fract_x
 _atom_site_fract_y
 _atom_site_fract_z
 _atom_site_occupancy
  Li  Li0  1  0.66666667  0.33333333  0.19301200  1
  Li  Li1  1  0.33333333  0.66666667  0.05548600  1
  Li  Li2  1  0.33333333  0.66666667  0.55440900  1
  Li  Li3  1  0.33333333  0.66666667  0.74021900  1
  Li  Li4  1  0.33333333  0.66666667  0.94685800  1
  Li  Li5  1  0.66666667  0.33333333  0.87425700  1
  Li  Li6  1  0.66666667  0.33333333  0.69391800  1
  Li  Li7  1  0.00000000  0.00000000  0.80459100  1
  Li  Li8  1  0.00000000  0.00000000  0.62766600  1
  Li  Li9  1  0.00000000  0.00000000  0.12702400  1
  Ti  Ti10  1  0.66666667  0.33333333  0.99012500  1
  Ti  Ti11  1  0.66666667  0.33333333  0.08167400  1
  Ti  Ti12  1  0.66666667  0.33333333  0.49065500  1
  Ti  Ti13  1  0.66666667  0.33333333  0.58186900  1
  Ti  Ti14  1  0.66666667  0.33333333  0.27837100  1
  Ti  Ti15  1  0.66666667  0.33333333  0.36922200  1
  Ti  Ti16  1  0.00000000  0.00000000  0.71523300  1
  Ti  Ti17  1  0.00000000  0.00000000  0.51101200  1
  Ti  Ti18  1  0.00000000  0.00000000  0.42555700  1
  Ti  Ti19  1  0.00000000  0.00000000  0.01047500  1
  Ti  Ti20  1  0.00000000  0.00000000  0.92044900  1
  Nb  Nb21  1  0.33333333  0.66666667  0.64652900  1
  Nb  Nb22  1  0.33333333  0.66666667  0.14708100  1
  Nb  Nb23  1  0.33333333  0.66666667  0.85567300  1
  Nb  Nb24  1  0.33333333  0.66666667  0.35157500  1
  Nb  Nb25  1  0.66666667  0.33333333  0.78404300  1
  Nb  Nb26  1  0.00000000  0.00000000  0.21842400  1
  O  O27  1  0.37212533  0.37716467  0.10729200  1
  O  O28  1  0.34414733  0.28906467  0.24930400  1
  O  O29  1  0.37477233  0.36843167  0.82150700  1
  O  O30  1  0.35581833  0.29847967  0.53410600  1
  O  O31  1  0.62620333  0.63035367  0.60713800  1
  O  O32  1  0.32988733  0.04464367  0.74911800  1
  O  O33  1  0.61524833  0.59063567  0.32550900  1
  O  O34  1  0.35538533  0.05661567  0.03386100  1
  O  O35  1  0.36964633  0.99584967  0.60713800  1
  O  O36  1  0.40936433  0.02461267  0.32550900  1
  O  O37  1  0.70123033  0.64461467  0.03386100  1
  O  O38  1  0.94266133  0.64418167  0.53410600  1
  O  O39  1  0.63156833  0.00634067  0.82150700  1
  O  O40  1  0.62283533  0.99496067  0.10729200  1
  O  O41  1  0.67177233  0.99816867  0.39187600  1
  O  O42  1  0.70152033  0.05733867  0.53410600  1
  O  O43  1  0.99365933  0.62522767  0.82150700  1
  O  O44  1  0.71093533  0.05508267  0.24930400  1
  O  O45  1  0.67247333  0.95811167  0.67906700  1
  O  O46  1  0.00503933  0.62787467  0.10729200  1
  O  O47  1  0.72461333  0.03630267  0.96483300  1
  O  O48  1  0.94338433  0.29876967  0.03386100  1
  O  O49  1  0.66286733  0.70486067  0.89257300  1
  O  O50  1  0.97538733  0.38475167  0.32550900  1
  O  O51  1  0.95535633  0.28524367  0.74911800  1
  O  O52  1  0.67759833  0.71032567  0.17797500  1
  O  O53  1  0.93796233  0.24902167  0.46406800  1
  O  O54  1  0.00415033  0.37379667  0.60713800  1
  O  O55  1  0.04199333  0.33713267  0.89257300  1
  O  O56  1  0.71475633  0.67011267  0.74911800  1
  O  O57  1  0.03272733  0.32240167  0.17797500  1
  O  O58  1  0.75097833  0.68894067  0.46406800  1
  O  O59  1  0.96369733  0.68831067  0.96483300  1
  O  O60  1  0.28563833  0.32752667  0.67906700  1
  O  O61  1  0.94491733  0.65585267  0.24930400  1
  O  O62  1  0.32639633  0.32822767  0.39187600  1
  O  O63  1  0.31168933  0.27538667  0.96483300  1
  O  O64  1  0.04188833  0.71436167  0.67906700  1
  O  O65  1  0.00183133  0.67360367  0.39187600  1
  O  O66  1  0.31105933  0.06203767  0.46406800  1
  O  O67  1  0.28967433  0.96727267  0.17797500  1
  O  O68  1  0.29513933  0.95800667  0.89257300  1
