# generated using pymatgen
data_Er2Sb2O7
_symmetry_space_group_name_H-M   'P 1'
_cell_length_a   7.51709145
_cell_length_b   7.51709145
_cell_length_c   18.42524200
_cell_angle_alpha   90.00000000
_cell_angle_beta   90.00000000
_cell_angle_gamma   120.00000000
_symmetry_Int_Tables_number   1
_chemical_formula_structural   Er2Sb2O7
_chemical_formula_sum   'Er12 Sb12 O42'
_cell_volume   901.66144545
_cell_formula_units_Z   6
loop_
 _symmetry_equiv_pos_site_id
 _symmetry_equiv_pos_as_xyz
  1  'x, y, z'
loop_
 _atom_site_type_symbol
 _atom_site_label
 _atom_site_symmetry_multiplicity
 _atom_site_fract_x
 _atom_site_fract_y
 _atom_site_fract_z
 _atom_site_occupancy
  Er  Er0  1  0.00000000  0.83416700  0.66666667  1
  Er  Er1  1  0.00000000  0.83418900  0.16666667  1
  Er  Er2  1  0.17525800  0.67552600  0.01117900  1
  Er  Er3  1  0.16583300  0.16583300  0.00000000  1
  Er  Er4  1  0.50026800  0.82474200  0.67784567  1
  Er  Er5  1  0.16581100  0.16581100  0.50000000  1
  Er  Er6  1  0.32447400  0.49973200  0.34451233  1
  Er  Er7  1  0.49973200  0.32447400  0.65548767  1
  Er  Er8  1  0.67552600  0.17525800  0.98882100  1
  Er  Er9  1  0.82474200  0.50026800  0.32215433  1
  Er  Er10  1  0.83418900  0.00000000  0.83333333  1
  Er  Er11  1  0.83416700  0.00000000  0.33333333  1
  Sb  Sb12  1  0.00000000  0.32596400  0.16666667  1
  Sb  Sb13  1  0.00000000  0.30451500  0.66666667  1
  Sb  Sb14  1  0.16906700  0.66988200  0.50164000  1
  Sb  Sb15  1  0.50081500  0.83093300  0.16830667  1
  Sb  Sb16  1  0.33011800  0.49918500  0.83497333  1
  Sb  Sb17  1  0.30451500  0.00000000  0.33333333  1
  Sb  Sb18  1  0.67403600  0.67403600  0.50000000  1
  Sb  Sb19  1  0.32596400  0.00000000  0.83333333  1
  Sb  Sb20  1  0.69548500  0.69548500  0.00000000  1
  Sb  Sb21  1  0.49918500  0.33011800  0.16502667  1
  Sb  Sb22  1  0.66988200  0.16906700  0.49836000  1
  Sb  Sb23  1  0.83093300  0.50081500  0.83169333  1
  O  O24  1  0.01854800  0.85118200  0.28402600  1
  O  O25  1  0.99303100  0.79995800  0.80214000  1
  O  O26  1  0.11425100  0.66434700  0.39375800  1
  O  O27  1  0.03998300  0.41823700  0.81406500  1
  O  O28  1  0.32442300  0.98777800  0.95807500  1
  O  O29  1  0.22859200  0.68385800  0.60758100  1
  O  O30  1  0.01222200  0.33664500  0.29140833  1
  O  O31  1  0.20015500  0.67119200  0.13853500  1
  O  O32  1  0.37825400  0.96001700  0.48073167  1
  O  O33  1  0.45526600  0.77140800  0.27424767  1
  O  O34  1  0.47103700  0.79984500  0.80520167  1
  O  O35  1  0.33565300  0.44990400  0.72709133  1
  O  O36  1  0.14881800  0.16736600  0.61735933  1
  O  O37  1  0.32880800  0.52896300  0.47186833  1
  O  O38  1  0.20004200  0.19307300  0.13547333  1
  O  O39  1  0.16736600  0.14881800  0.38264067  1
  O  O40  1  0.31614200  0.54473400  0.94091433  1
  O  O41  1  0.19307300  0.20004200  0.86452667  1
  O  O42  1  0.55009600  0.88574900  0.06042467  1
  O  O43  1  0.58176300  0.62174600  0.14739833  1
  O  O44  1  0.80692700  0.00696900  0.46880667  1
  O  O45  1  0.66335500  0.67557700  0.62474167  1
  O  O46  1  0.44990400  0.33565300  0.27290867  1
  O  O47  1  0.62174600  0.58176300  0.85260167  1
  O  O48  1  0.33664500  0.01222200  0.70859167  1
  O  O49  1  0.83263400  0.98145200  0.95069267  1
  O  O50  1  0.54473400  0.31614200  0.05908567  1
  O  O51  1  0.67557700  0.66335500  0.37525833  1
  O  O52  1  0.52896300  0.32880800  0.52813167  1
  O  O53  1  0.41823700  0.03998300  0.18593500  1
  O  O54  1  0.68385800  0.22859200  0.39241900  1
  O  O55  1  0.67119200  0.20015500  0.86146500  1
  O  O56  1  0.88574900  0.55009600  0.93957533  1
  O  O57  1  0.98145200  0.83263400  0.04930733  1
  O  O58  1  0.79984500  0.47103700  0.19479833  1
  O  O59  1  0.00696900  0.80692700  0.53119333  1
  O  O60  1  0.77140800  0.45526600  0.72575233  1
  O  O61  1  0.66434700  0.11425100  0.60624200  1
  O  O62  1  0.96001700  0.37825400  0.51926833  1
  O  O63  1  0.79995800  0.99303100  0.19786000  1
  O  O64  1  0.98777800  0.32442300  0.04192500  1
  O  O65  1  0.85118200  0.01854800  0.71597400  1
