# generated using pymatgen
data_Zr4MnO9
_symmetry_space_group_name_H-M   'P 1'
_cell_length_a   5.21942497
_cell_length_b   6.13861813
_cell_length_c   6.30544193
_cell_angle_alpha   80.95576062
_cell_angle_beta   66.89155228
_cell_angle_gamma   68.13446752
_symmetry_Int_Tables_number   1
_chemical_formula_structural   Zr4MnO9
_chemical_formula_sum   'Zr4 Mn1 O9'
_cell_volume   172.43485885
_cell_formula_units_Z   1
loop_
 _symmetry_equiv_pos_site_id
 _symmetry_equiv_pos_as_xyz
  1  'x, y, z'
loop_
 _atom_site_type_symbol
 _atom_site_label
 _atom_site_symmetry_multiplicity
 _atom_site_fract_x
 _atom_site_fract_y
 _atom_site_fract_z
 _atom_site_occupancy
  Zr  Zr0  1  0.42675275  0.79930525  0.41278200  1
  Zr  Zr1  1  0.94501075  0.03142650  0.00744925  1
  Zr  Zr2  1  0.55968425  0.22331875  0.63454300  1
  Zr  Zr3  1  0.83367050  0.60876325  0.76952875  1
  Mn  Mn4  1  0.19505025  0.36203600  0.21076125  1
  O  O5  1  0.80725075  0.72194325  0.08743000  1
  O  O6  1  0.92956825  0.94935275  0.68535600  1
  O  O7  1  0.77234500  0.46965025  0.48913525  1
  O  O8  1  0.18144475  0.99302750  0.21586625  1
  O  O9  1  0.58132475  0.09653200  0.33930775  1
  O  O10  1  0.24358900  0.53249275  0.48925175  1
  O  O11  1  0.42915975  0.85809050  0.74380925  1
  O  O12  1  0.13779550  0.30740200  0.87717550  1
  O  O13  1  0.60735100  0.34666075  0.93760575  1
