# generated using pymatgen
data_Na5GdO4
_symmetry_space_group_name_H-M   'P 1'
_cell_length_a   5.59570700
_cell_length_b   7.59843300
_cell_length_c   7.91711600
_cell_angle_alpha   90.00000000
_cell_angle_beta   90.00000000
_cell_angle_gamma   90.00000000
_symmetry_Int_Tables_number   1
_chemical_formula_structural   Na5GdO4
_chemical_formula_sum   'Na10 Gd2 O8'
_cell_volume   336.62472578
_cell_formula_units_Z   2
loop_
 _symmetry_equiv_pos_site_id
 _symmetry_equiv_pos_as_xyz
  1  'x, y, z'
loop_
 _atom_site_type_symbol
 _atom_site_label
 _atom_site_symmetry_multiplicity
 _atom_site_fract_x
 _atom_site_fract_y
 _atom_site_fract_z
 _atom_site_occupancy
  Na  Na0  1  0.25523100  0.76114500  0.80752300  1
  Na  Na1  1  0.25523100  0.23885500  0.80752300  1
  Na  Na2  1  0.79533200  0.50000000  0.00000000  1
  Na  Na3  1  0.25523100  0.23885500  0.19247700  1
  Na  Na4  1  0.25523100  0.76114500  0.19247700  1
  Na  Na5  1  0.74476900  0.26114500  0.30752300  1
  Na  Na6  1  0.74476900  0.73885500  0.30752300  1
  Na  Na7  1  0.20466800  0.00000000  0.50000000  1
  Na  Na8  1  0.74476900  0.26114500  0.69247700  1
  Na  Na9  1  0.74476900  0.73885500  0.69247700  1
  Gd  Gd10  1  0.77942800  0.00000000  0.00000000  1
  Gd  Gd11  1  0.22057200  0.50000000  0.50000000  1
  O  O12  1  0.98839800  0.00000000  0.76527800  1
  O  O13  1  0.56875200  0.23918200  0.00000000  1
  O  O14  1  0.56875200  0.76081800  0.00000000  1
  O  O15  1  0.98839800  0.00000000  0.23472200  1
  O  O16  1  0.01160200  0.50000000  0.26527800  1
  O  O17  1  0.43124800  0.26081800  0.50000000  1
  O  O18  1  0.43124800  0.73918200  0.50000000  1
  O  O19  1  0.01160200  0.50000000  0.73472200  1
