# generated using pymatgen
data_LiSb(PO3)4
_symmetry_space_group_name_H-M   'P 1'
_cell_length_a   16.42099400
_cell_length_b   7.48510600
_cell_length_c   9.75771955
_cell_angle_alpha   90.00000000
_cell_angle_beta   124.09443313
_cell_angle_gamma   90.00000000
_symmetry_Int_Tables_number   1
_chemical_formula_structural   LiSb(PO3)4
_chemical_formula_sum   'Li4 Sb4 P16 O48'
_cell_volume   993.19900758
_cell_formula_units_Z   4
loop_
 _symmetry_equiv_pos_site_id
 _symmetry_equiv_pos_as_xyz
  1  'x, y, z'
loop_
 _atom_site_type_symbol
 _atom_site_label
 _atom_site_symmetry_multiplicity
 _atom_site_fract_x
 _atom_site_fract_y
 _atom_site_fract_z
 _atom_site_occupancy
  Li  Li0  1  0.00000000  0.00000000  0.50000000  1
  Li  Li1  1  0.00000000  0.00000000  0.00000000  1
  Li  Li2  1  0.50000000  0.50000000  0.50000000  1
  Li  Li3  1  0.50000000  0.50000000  0.00000000  1
  Sb  Sb4  1  0.00000000  0.72415900  0.75000000  1
  Sb  Sb5  1  0.00000000  0.27584100  0.25000000  1
  Sb  Sb6  1  0.50000000  0.22415900  0.75000000  1
  Sb  Sb7  1  0.50000000  0.77584100  0.25000000  1
  P  P8  1  0.63829250  0.04646450  0.16084900  1
  P  P9  1  0.65255600  0.66575900  0.09761000  1
  P  P10  1  0.84744400  0.16575900  0.40239000  1
  P  P11  1  0.86170750  0.54646450  0.33915100  1
  P  P12  1  0.13829250  0.45353550  0.66084900  1
  P  P13  1  0.15255600  0.83424100  0.59761000  1
  P  P14  1  0.34744400  0.33424100  0.90239000  1
  P  P15  1  0.36170750  0.95353550  0.83915100  1
  P  P16  1  0.13829250  0.54646450  0.16084900  1
  P  P17  1  0.15255600  0.16575900  0.09761000  1
  P  P18  1  0.34744400  0.66575900  0.40239000  1
  P  P19  1  0.36170750  0.04646450  0.33915100  1
  P  P20  1  0.63829250  0.95353550  0.66084900  1
  P  P21  1  0.65255600  0.33424100  0.59761000  1
  P  P22  1  0.84744400  0.83424100  0.90239000  1
  P  P23  1  0.86170750  0.45353550  0.83915100  1
  O  O24  1  0.62298600  0.62732900  0.21668500  1
  O  O25  1  0.60547200  0.19729100  0.03771500  1
  O  O26  1  0.73777550  0.09574050  0.33225600  1
  O  O27  1  0.66646650  0.88057050  0.09167800  1
  O  O28  1  0.93236050  0.50432550  0.79142200  1
  O  O29  1  0.83353350  0.38057050  0.40832200  1
  O  O30  1  0.76222450  0.59574050  0.16774400  1
  O  O31  1  0.91574850  0.09273150  0.57212500  1
  O  O32  1  0.89452800  0.69729100  0.46228500  1
  O  O33  1  0.08425150  0.09273150  0.92787500  1
  O  O34  1  0.87701400  0.12732900  0.28331500  1
  O  O35  1  0.06763950  0.50432550  0.70857800  1
  O  O36  1  0.93236050  0.49567450  0.29142200  1
  O  O37  1  0.12298600  0.87267100  0.71668500  1
  O  O38  1  0.91574850  0.90726850  0.07212500  1
  O  O39  1  0.10547200  0.30270900  0.53771500  1
  O  O40  1  0.08425150  0.90726850  0.42787500  1
  O  O41  1  0.23777550  0.40425950  0.83225600  1
  O  O42  1  0.16646650  0.61942950  0.59167800  1
  O  O43  1  0.06763950  0.49567450  0.20857800  1
  O  O44  1  0.33353350  0.11942950  0.90832200  1
  O  O45  1  0.26222450  0.90425950  0.66774400  1
  O  O46  1  0.39452800  0.80270900  0.96228500  1
  O  O47  1  0.37701400  0.37267100  0.78331500  1
  O  O48  1  0.12298600  0.12732900  0.21668500  1
  O  O49  1  0.10547200  0.69729100  0.03771500  1
  O  O50  1  0.23777550  0.59574050  0.33225600  1
  O  O51  1  0.16646650  0.38057050  0.09167800  1
  O  O52  1  0.43236050  0.00432550  0.79142200  1
  O  O53  1  0.33353350  0.88057050  0.40832200  1
  O  O54  1  0.26222450  0.09574050  0.16774400  1
  O  O55  1  0.41574850  0.59273150  0.57212500  1
  O  O56  1  0.39452800  0.19729100  0.46228500  1
  O  O57  1  0.58425150  0.59273150  0.92787500  1
  O  O58  1  0.37701400  0.62732900  0.28331500  1
  O  O59  1  0.56763950  0.00432550  0.70857800  1
  O  O60  1  0.43236050  0.99567450  0.29142200  1
  O  O61  1  0.62298600  0.37267100  0.71668500  1
  O  O62  1  0.41574850  0.40726850  0.07212500  1
  O  O63  1  0.60547200  0.80270900  0.53771500  1
  O  O64  1  0.58425150  0.40726850  0.42787500  1
  O  O65  1  0.73777550  0.90425950  0.83225600  1
  O  O66  1  0.66646650  0.11942950  0.59167800  1
  O  O67  1  0.56763950  0.99567450  0.20857800  1
  O  O68  1  0.83353350  0.61942950  0.90832200  1
  O  O69  1  0.76222450  0.40425950  0.66774400  1
  O  O70  1  0.89452800  0.30270900  0.96228500  1
  O  O71  1  0.87701400  0.87267100  0.78331500  1
