# generated using pymatgen
data_Li3Mn3FeO8
_symmetry_space_group_name_H-M   'P 1'
_cell_length_a   5.80627002
_cell_length_b   5.89934517
_cell_length_c   9.50893476
_cell_angle_alpha   90.91506426
_cell_angle_beta   90.60134672
_cell_angle_gamma   118.69867346
_symmetry_Int_Tables_number   1
_chemical_formula_structural   Li3Mn3FeO8
_chemical_formula_sum   'Li6 Mn6 Fe2 O16'
_cell_volume   285.60238206
_cell_formula_units_Z   2
loop_
 _symmetry_equiv_pos_site_id
 _symmetry_equiv_pos_as_xyz
  1  'x, y, z'
loop_
 _atom_site_type_symbol
 _atom_site_label
 _atom_site_symmetry_multiplicity
 _atom_site_fract_x
 _atom_site_fract_y
 _atom_site_fract_z
 _atom_site_occupancy
  Li  Li0  1  0.66124900  0.84445100  0.44350000  1
  Li  Li1  1  0.17177900  0.35165800  0.44746100  1
  Li  Li2  1  0.16697400  0.83195500  0.44392900  1
  Li  Li3  1  0.82165500  0.16392700  0.94188500  1
  Li  Li4  1  0.82532600  0.64518100  0.94038000  1
  Li  Li5  1  0.35341800  0.17447600  0.94344500  1
  Mn  Mn6  1  0.66183200  0.83181300  0.71192800  1
  Mn  Mn7  1  0.16872100  0.34202100  0.71332700  1
  Mn  Mn8  1  0.16537000  0.83458400  0.71099400  1
  Mn  Mn9  1  0.83266400  0.16062300  0.21356400  1
  Mn  Mn10  1  0.82981400  0.65634800  0.21593400  1
  Mn  Mn11  1  0.33649700  0.16236900  0.21759700  1
  Fe  Fe12  1  0.33264300  0.65196400  0.99439900  1
  Fe  Fe13  1  0.66532000  0.34601800  0.48766900  1
  O  O14  1  0.01829900  0.01852500  0.81832200  1
  O  O15  1  0.01839300  0.02982400  0.32559600  1
  O  O16  1  0.68467800  0.82675600  0.09460600  1
  O  O17  1  0.47851400  0.50243300  0.84029200  1
  O  O18  1  0.18819700  0.31725200  0.09358900  1
  O  O19  1  0.31159500  0.65424900  0.60079100  1
  O  O20  1  0.47916400  0.95279100  0.83892900  1
  O  O21  1  0.02733600  0.49612000  0.85132000  1
  O  O22  1  0.84410800  0.18654300  0.59396600  1
  O  O23  1  0.16474000  0.83270000  0.10516400  1
  O  O24  1  0.95475700  0.48252100  0.34576300  1
  O  O25  1  0.50197100  0.03914100  0.35466700  1
  O  O26  1  0.64618100  0.28979000  0.09993700  1
  O  O27  1  0.84016400  0.69697800  0.59022200  1
  O  O28  1  0.51469000  0.48013800  0.34016500  1
  O  O29  1  0.33395400  0.19660500  0.59029400  1
