# generated using pymatgen
data_MgZr3Tl10(MoO4)12
_symmetry_space_group_name_H-M   'P 1'
_cell_length_a   10.86642563
_cell_length_b   10.86642563
_cell_length_c   38.90985622
_cell_angle_alpha   90.00000000
_cell_angle_beta   90.00000000
_cell_angle_gamma   120.00000000
_symmetry_Int_Tables_number   1
_chemical_formula_structural   MgZr3Tl10(MoO4)12
_chemical_formula_sum   'Mg3 Zr9 Tl30 Mo36 O144'
_cell_volume   3978.90602242
_cell_formula_units_Z   3
loop_
 _symmetry_equiv_pos_site_id
 _symmetry_equiv_pos_as_xyz
  1  'x, y, z'
loop_
 _atom_site_type_symbol
 _atom_site_label
 _atom_site_symmetry_multiplicity
 _atom_site_fract_x
 _atom_site_fract_y
 _atom_site_fract_z
 _atom_site_occupancy
  Mg  Mg0  1  0.33333333  0.66666667  0.16666667  1
  Mg  Mg1  1  0.00000000  0.00000000  0.50000000  1
  Mg  Mg2  1  0.66666667  0.33333333  0.83333333  1
  Zr  Zr3  1  0.00000000  0.00000000  0.00000000  1
  Zr  Zr4  1  0.00000000  0.00000000  0.24758700  1
  Zr  Zr5  1  0.66666667  0.33333333  0.08574633  1
  Zr  Zr6  1  0.66666667  0.33333333  0.33333333  1
  Zr  Zr7  1  0.66666667  0.33333333  0.58092033  1
  Zr  Zr8  1  0.33333333  0.66666667  0.41907967  1
  Zr  Zr9  1  0.33333333  0.66666667  0.66666667  1
  Zr  Zr10  1  0.33333333  0.66666667  0.91425367  1
  Zr  Zr11  1  0.00000000  0.00000000  0.75241300  1
  Tl  Tl12  1  0.00000000  0.00000000  0.10543500  1
  Tl  Tl13  1  0.33333333  0.66666667  0.06356467  1
  Tl  Tl14  1  0.95171933  0.66666667  0.16666667  1
  Tl  Tl15  1  0.33333333  0.28505267  0.16666667  1
  Tl  Tl16  1  0.71494733  0.04828067  0.16666667  1
  Tl  Tl17  1  0.33333333  0.66666667  0.26976867  1
  Tl  Tl18  1  0.38839100  0.00000000  0.00000000  1
  Tl  Tl19  1  0.61160900  0.61160900  0.00000000  1
  Tl  Tl20  1  0.00000000  0.38839100  0.00000000  1
  Tl  Tl21  1  0.66666667  0.33333333  0.22789833  1
  Tl  Tl22  1  0.66666667  0.33333333  0.43876833  1
  Tl  Tl23  1  0.00000000  0.00000000  0.39689800  1
  Tl  Tl24  1  0.61838600  0.00000000  0.50000000  1
  Tl  Tl25  1  0.00000000  0.61838600  0.50000000  1
  Tl  Tl26  1  0.38161400  0.38161400  0.50000000  1
  Tl  Tl27  1  1.00000000  0.00000000  0.60310200  1
  Tl  Tl28  1  0.05505767  0.33333333  0.33333333  1
  Tl  Tl29  1  0.27827567  0.94494233  0.33333333  1
  Tl  Tl30  1  0.66666667  0.72172433  0.33333333  1
  Tl  Tl31  1  0.33333333  0.66666667  0.56123167  1
  Tl  Tl32  1  0.33333333  0.66666667  0.77210167  1
  Tl  Tl33  1  0.66666667  0.33333333  0.73023133  1
  Tl  Tl34  1  0.28505267  0.33333333  0.83333333  1
  Tl  Tl35  1  0.66666667  0.95171933  0.83333333  1
  Tl  Tl36  1  0.04828067  0.71494733  0.83333333  1
  Tl  Tl37  1  0.66666667  0.33333333  0.93643533  1
  Tl  Tl38  1  0.72172433  0.66666667  0.66666667  1
  Tl  Tl39  1  0.94494233  0.27827567  0.66666667  1
  Tl  Tl40  1  0.33333333  0.05505767  0.66666667  1
  Tl  Tl41  1  0.00000000  0.00000000  0.89456500  1
  Mo  Mo42  1  0.96152667  0.68185833  0.04964933  1
  Mo  Mo43  1  0.31814167  0.27966833  0.04964933  1
  Mo  Mo44  1  0.02077267  0.39377033  0.11604333  1
  Mo  Mo45  1  0.72033167  0.03847333  0.04964933  1
  Mo  Mo46  1  0.37299767  0.97922733  0.11604333  1
  Mo  Mo47  1  0.60622967  0.62700233  0.11604333  1
  Mo  Mo48  1  0.06043700  0.35410600  0.21729000  1
  Mo  Mo49  1  0.29366900  0.93956300  0.21729000  1
  Mo  Mo50  1  0.94633500  0.65147500  0.28368400  1
  Mo  Mo51  1  0.64589400  0.70633100  0.21729000  1
  Mo  Mo52  1  0.34852500  0.29486000  0.28368400  1
  Mo  Mo53  1  0.70514000  0.05366500  0.28368400  1
  Mo  Mo54  1  0.62819333  0.01519167  0.38298267  1
  Mo  Mo55  1  0.98480833  0.61300167  0.38298267  1
  Mo  Mo56  1  0.68743933  0.72710367  0.44937667  1
  Mo  Mo57  1  0.38699833  0.37180667  0.38298267  1
  Mo  Mo58  1  0.03966433  0.31256067  0.44937667  1
  Mo  Mo59  1  0.27289633  0.96033567  0.44937667  1
  Mo  Mo60  1  0.72710367  0.68743933  0.55062333  1
  Mo  Mo61  1  0.96033567  0.27289633  0.55062333  1
  Mo  Mo62  1  0.61300167  0.98480833  0.61701733  1
  Mo  Mo63  1  0.31256067  0.03966433  0.55062333  1
  Mo  Mo64  1  0.01519167  0.62819333  0.61701733  1
  Mo  Mo65  1  0.37180667  0.38699833  0.61701733  1
  Mo  Mo66  1  0.29486000  0.34852500  0.71631600  1
  Mo  Mo67  1  0.65147500  0.94633500  0.71631600  1
  Mo  Mo68  1  0.35410600  0.06043700  0.78271000  1
  Mo  Mo69  1  0.05366500  0.70514000  0.71631600  1
  Mo  Mo70  1  0.70633100  0.64589400  0.78271000  1
  Mo  Mo71  1  0.93956300  0.29366900  0.78271000  1
  Mo  Mo72  1  0.39377033  0.02077267  0.88395667  1
  Mo  Mo73  1  0.62700233  0.60622967  0.88395667  1
  Mo  Mo74  1  0.27966833  0.31814167  0.95035067  1
  Mo  Mo75  1  0.97922733  0.37299767  0.88395667  1
  Mo  Mo76  1  0.68185833  0.96152667  0.95035067  1
  Mo  Mo77  1  0.03847333  0.72033167  0.95035067  1
  O  O78  1  0.82914900  0.86213400  0.21714700  1
  O  O79  1  0.03298500  0.17085100  0.21714700  1
  O  O80  1  0.13786600  0.96701500  0.21714700  1
  O  O81  1  0.86276033  0.03144567  0.28239067  1
  O  O82  1  0.74920367  0.23143833  0.30189933  1
  O  O83  1  0.76856167  0.51776533  0.30189933  1
  O  O84  1  0.96855433  0.83131467  0.28239067  1
  O  O85  1  0.16868533  0.13723967  0.28239067  1
  O  O86  1  0.10495467  0.68278133  0.02791833  1
  O  O87  1  0.48223467  0.25079633  0.30189933  1
  O  O88  1  0.31721867  0.42217333  0.02791833  1
  O  O89  1  0.06528067  0.39530333  0.07236533  1
  O  O90  1  0.00917700  0.73013000  0.09248000  1
  O  O91  1  0.57782667  0.89504533  0.02791833  1
  O  O92  1  0.33002267  0.93471933  0.07236533  1
  O  O93  1  0.26987000  0.27904700  0.09248000  1
  O  O94  1  0.02259200  0.24925600  0.13704500  1
  O  O95  1  0.60469667  0.66997733  0.07236533  1
  O  O96  1  0.14787900  0.56210700  0.13461500  1
  O  O97  1  0.22666400  0.97740800  0.13704500  1
  O  O98  1  0.72095300  0.99082300  0.09248000  1
  O  O99  1  0.41422800  0.85212100  0.13461500  1
  O  O100  1  0.91592267  0.35592533  0.19628833  1
  O  O101  1  0.43789300  0.58577200  0.13461500  1
  O  O102  1  0.22877367  0.48121233  0.19871833  1
  O  O103  1  0.75074400  0.77333600  0.13704500  1
  O  O104  1  0.25243867  0.77122633  0.19871833  1
  O  O105  1  0.94571367  0.60320333  0.24085333  1
  O  O106  1  0.44000267  0.08407733  0.19628833  1
  O  O107  1  0.51878767  0.74756133  0.19871833  1
  O  O108  1  0.06197000  0.39861400  0.26096800  1
  O  O109  1  0.64407467  0.55999733  0.19628833  1
  O  O110  1  0.39679667  0.34251033  0.24085333  1
  O  O111  1  0.33664400  0.93803000  0.26096800  1
  O  O112  1  0.08884000  0.65055200  0.30541500  1
  O  O113  1  0.65748967  0.05428633  0.24085333  1
  O  O114  1  0.60138600  0.66335600  0.26096800  1
  O  O115  1  0.34944800  0.43828800  0.30541500  1
  O  O116  1  0.18443200  0.10189500  0.03143400  1
  O  O117  1  0.56171200  0.91116000  0.30541500  1
  O  O118  1  0.49798133  0.30188767  0.05094267  1
  O  O119  1  0.69811233  0.19609367  0.05094267  1
  O  O120  1  0.89810500  0.08253700  0.03143400  1
  O  O121  1  0.91746300  0.81556800  0.03143400  1
  O  O122  1  0.80390633  0.50201867  0.05094267  1
  O  O123  1  0.52880067  0.16248233  0.11618633  1
  O  O124  1  0.63368167  0.47119933  0.11618633  1
  O  O125  1  0.83751767  0.36631833  0.11618633  1
  O  O126  1  0.49581567  0.19546733  0.55048033  1
  O  O127  1  0.69965167  0.50418433  0.55048033  1
  O  O128  1  0.80453267  0.30034833  0.55048033  1
  O  O129  1  0.52942700  0.36477900  0.61572400  1
  O  O130  1  0.41587033  0.56477167  0.63523267  1
  O  O131  1  0.43522833  0.85109867  0.63523267  1
  O  O132  1  0.63522100  0.16464800  0.61572400  1
  O  O133  1  0.83535200  0.47057300  0.61572400  1
  O  O134  1  0.77162133  0.01611467  0.36125167  1
  O  O135  1  0.14890133  0.58412967  0.63523267  1
  O  O136  1  0.98388533  0.75550667  0.36125167  1
  O  O137  1  0.73194733  0.72863667  0.40569867  1
  O  O138  1  0.67584367  0.06346333  0.42581333  1
  O  O139  1  0.24449333  0.22837867  0.36125167  1
  O  O140  1  0.99668933  0.26805267  0.40569867  1
  O  O141  1  0.93653667  0.61238033  0.42581333  1
  O  O142  1  0.68925867  0.58258933  0.47037833  1
  O  O143  1  0.27136333  0.00331067  0.40569867  1
  O  O144  1  0.81454567  0.89544033  0.46794833  1
  O  O145  1  0.89333067  0.31074133  0.47037833  1
  O  O146  1  0.38761967  0.32415633  0.42581333  1
  O  O147  1  0.08089467  0.18545433  0.46794833  1
  O  O148  1  0.58258933  0.68925867  0.52962167  1
  O  O149  1  0.10455967  0.91910533  0.46794833  1
  O  O150  1  0.89544033  0.81454567  0.53205167  1
  O  O151  1  0.41741067  0.10666933  0.47037833  1
  O  O152  1  0.91910533  0.10455967  0.53205167  1
  O  O153  1  0.61238033  0.93653667  0.57418667  1
  O  O154  1  0.10666933  0.41741067  0.52962167  1
  O  O155  1  0.18545433  0.08089467  0.53205167  1
  O  O156  1  0.72863667  0.73194733  0.59430133  1
  O  O157  1  0.31074133  0.89333067  0.52962167  1
  O  O158  1  0.06346333  0.67584367  0.57418667  1
  O  O159  1  0.00331067  0.27136333  0.59430133  1
  O  O160  1  0.75550667  0.98388533  0.63874833  1
  O  O161  1  0.32415633  0.38761967  0.57418667  1
  O  O162  1  0.26805267  0.99668933  0.59430133  1
  O  O163  1  0.01611467  0.77162133  0.63874833  1
  O  O164  1  0.85109867  0.43522833  0.36476733  1
  O  O165  1  0.22837867  0.24449333  0.63874833  1
  O  O166  1  0.16464800  0.63522100  0.38427600  1
  O  O167  1  0.36477900  0.52942700  0.38427600  1
  O  O168  1  0.56477167  0.41587033  0.36476733  1
  O  O169  1  0.58412967  0.14890133  0.36476733  1
  O  O170  1  0.47057300  0.83535200  0.38427600  1
  O  O171  1  0.19546733  0.49581567  0.44951967  1
  O  O172  1  0.30034833  0.80453267  0.44951967  1
  O  O173  1  0.50418433  0.69965167  0.44951967  1
  O  O174  1  0.16248233  0.52880067  0.88381367  1
  O  O175  1  0.36631833  0.83751767  0.88381367  1
  O  O176  1  0.47119933  0.63368167  0.88381367  1
  O  O177  1  0.19609367  0.69811233  0.94905733  1
  O  O178  1  0.08253700  0.89810500  0.96856600  1
  O  O179  1  0.10189500  0.18443200  0.96856600  1
  O  O180  1  0.30188767  0.49798133  0.94905733  1
  O  O181  1  0.50201867  0.80390633  0.94905733  1
  O  O182  1  0.43828800  0.34944800  0.69458500  1
  O  O183  1  0.81556800  0.91746300  0.96856600  1
  O  O184  1  0.65055200  0.08884000  0.69458500  1
  O  O185  1  0.39861400  0.06197000  0.73903200  1
  O  O186  1  0.34251033  0.39679667  0.75914667  1
  O  O187  1  0.91116000  0.56171200  0.69458500  1
  O  O188  1  0.66335600  0.60138600  0.73903200  1
  O  O189  1  0.60320333  0.94571367  0.75914667  1
  O  O190  1  0.35592533  0.91592267  0.80371167  1
  O  O191  1  0.93803000  0.33664400  0.73903200  1
  O  O192  1  0.48121233  0.22877367  0.80128167  1
  O  O193  1  0.55999733  0.64407467  0.80371167  1
  O  O194  1  0.05428633  0.65748967  0.75914667  1
  O  O195  1  0.74756133  0.51878767  0.80128167  1
  O  O196  1  0.24925600  0.02259200  0.86295500  1
  O  O197  1  0.77122633  0.25243867  0.80128167  1
  O  O198  1  0.56210700  0.14787900  0.86538500  1
  O  O199  1  0.08407733  0.44000267  0.80371167  1
  O  O200  1  0.58577200  0.43789300  0.86538500  1
  O  O201  1  0.27904700  0.26987000  0.90752000  1
  O  O202  1  0.77333600  0.75074400  0.86295500  1
  O  O203  1  0.85212100  0.41422800  0.86538500  1
  O  O204  1  0.39530333  0.06528067  0.92763467  1
  O  O205  1  0.97740800  0.22666400  0.86295500  1
  O  O206  1  0.73013000  0.00917700  0.90752000  1
  O  O207  1  0.66997733  0.60469667  0.92763467  1
  O  O208  1  0.42217333  0.31721867  0.97208167  1
  O  O209  1  0.99082300  0.72095300  0.90752000  1
  O  O210  1  0.93471933  0.33002267  0.92763467  1
  O  O211  1  0.68278133  0.10495467  0.97208167  1
  O  O212  1  0.51776533  0.76856167  0.69810067  1
  O  O213  1  0.89504533  0.57782667  0.97208167  1
  O  O214  1  0.83131467  0.96855433  0.71760933  1
  O  O215  1  0.03144567  0.86276033  0.71760933  1
  O  O216  1  0.23143833  0.74920367  0.69810067  1
  O  O217  1  0.25079633  0.48223467  0.69810067  1
  O  O218  1  0.13723967  0.16868533  0.71760933  1
  O  O219  1  0.86213400  0.82914900  0.78285300  1
  O  O220  1  0.96701500  0.13786600  0.78285300  1
  O  O221  1  0.17085100  0.03298500  0.78285300  1
