# generated using pymatgen
data_BaCa2I6
_symmetry_space_group_name_H-M   'P 1'
_cell_length_a   8.65773500
_cell_length_b   7.76948200
_cell_length_c   23.97326285
_cell_angle_alpha   90.00000000
_cell_angle_beta   93.31039569
_cell_angle_gamma   90.00000000
_symmetry_Int_Tables_number   1
_chemical_formula_structural   BaCa2I6
_chemical_formula_sum   'Ba4 Ca8 I24'
_cell_volume   1609.89744924
_cell_formula_units_Z   4
loop_
 _symmetry_equiv_pos_site_id
 _symmetry_equiv_pos_as_xyz
  1  'x, y, z'
loop_
 _atom_site_type_symbol
 _atom_site_label
 _atom_site_symmetry_multiplicity
 _atom_site_fract_x
 _atom_site_fract_y
 _atom_site_fract_z
 _atom_site_occupancy
  Ba  Ba0  1  0.14520900  0.46873800  0.90367600  1
  Ba  Ba1  1  0.14520900  0.03126200  0.40367600  1
  Ba  Ba2  1  0.85479100  0.96873800  0.59632400  1
  Ba  Ba3  1  0.85479100  0.53126200  0.09632400  1
  Ca  Ca4  1  0.25338000  0.01223700  0.74743200  1
  Ca  Ca5  1  0.37530900  0.53166500  0.58854500  1
  Ca  Ca6  1  0.25338000  0.48776300  0.24743200  1
  Ca  Ca7  1  0.37530900  0.96833500  0.08854500  1
  Ca  Ca8  1  0.62469100  0.03166500  0.91145500  1
  Ca  Ca9  1  0.74662000  0.51223700  0.75256800  1
  Ca  Ca10  1  0.62469100  0.46833500  0.41145500  1
  Ca  Ca11  1  0.74662000  0.98776300  0.25256800  1
  I  I12  1  0.03658100  0.70916500  0.70047100  1
  I  I13  1  0.17683000  0.22456900  0.64097500  1
  I  I14  1  0.13401600  0.76401900  0.52335800  1
  I  I15  1  0.03658100  0.79083500  0.20047100  1
  I  I16  1  0.17683000  0.27543100  0.14097500  1
  I  I17  1  0.13401600  0.73598100  0.02335800  1
  I  I18  1  0.38463600  0.21628600  0.98529900  1
  I  I19  1  0.34367400  0.81820600  0.85603500  1
  I  I20  1  0.47603800  0.29231500  0.81203700  1
  I  I21  1  0.52396200  0.79231500  0.68796300  1
  I  I22  1  0.38463600  0.28371400  0.48529900  1
  I  I23  1  0.65632600  0.31820600  0.64396500  1
  I  I24  1  0.34367400  0.68179400  0.35603500  1
  I  I25  1  0.61536400  0.71628600  0.51470100  1
  I  I26  1  0.47603800  0.20768500  0.31203700  1
  I  I27  1  0.52396200  0.70768500  0.18796300  1
  I  I28  1  0.65632600  0.18179400  0.14396500  1
  I  I29  1  0.61536400  0.78371400  0.01470100  1
  I  I30  1  0.86598400  0.26401900  0.97664200  1
  I  I31  1  0.82317000  0.72456900  0.85902500  1
  I  I32  1  0.96341900  0.20916500  0.79952900  1
  I  I33  1  0.86598400  0.23598100  0.47664200  1
  I  I34  1  0.82317000  0.77543100  0.35902500  1
  I  I35  1  0.96341900  0.29083500  0.29952900  1
