# generated using pymatgen
data_Li2CrO3
_symmetry_space_group_name_H-M   'P 1'
_cell_length_a   12.62295710
_cell_length_b   2.91066966
_cell_length_c   5.96964233
_cell_angle_alpha   90.00000000
_cell_angle_beta   104.20399247
_cell_angle_gamma   90.00000000
_symmetry_Int_Tables_number   1
_chemical_formula_structural   Li2CrO3
_chemical_formula_sum   'Li8 Cr4 O12'
_cell_volume   212.62680306
_cell_formula_units_Z   4
loop_
 _symmetry_equiv_pos_site_id
 _symmetry_equiv_pos_as_xyz
  1  'x, y, z'
loop_
 _atom_site_type_symbol
 _atom_site_label
 _atom_site_symmetry_multiplicity
 _atom_site_fract_x
 _atom_site_fract_y
 _atom_site_fract_z
 _atom_site_occupancy
  Li  Li0  1  0.50000000  0.50000000  0.50000000  1
  Li  Li1  1  0.50000000  0.50000000  0.00000000  1
  Li  Li2  1  0.66019150  0.00000000  0.33550350  1
  Li  Li3  1  0.33980850  0.00000000  0.66449650  1
  Li  Li4  1  0.00000000  0.00000000  0.50000000  1
  Li  Li5  1  0.00000000  0.00000000  0.00000000  1
  Li  Li6  1  0.16019150  0.50000000  0.33550350  1
  Li  Li7  1  0.83980850  0.50000000  0.66449650  1
  Cr  Cr8  1  0.65734750  0.00000000  0.82407050  1
  Cr  Cr9  1  0.34265250  0.00000000  0.17592950  1
  Cr  Cr10  1  0.15734750  0.50000000  0.82407050  1
  Cr  Cr11  1  0.84265250  0.50000000  0.17592950  1
  O  O12  1  0.16942850  0.00000000  0.61421050  1
  O  O13  1  0.32698250  0.50000000  0.93826550  1
  O  O14  1  0.33057150  0.50000000  0.38578950  1
  O  O15  1  0.48839900  0.00000000  0.24355950  1
  O  O16  1  0.51160100  0.00000000  0.75644050  1
  O  O17  1  0.17301750  0.00000000  0.06173450  1
  O  O18  1  0.66942850  0.50000000  0.61421050  1
  O  O19  1  0.82698250  0.00000000  0.93826550  1
  O  O20  1  0.83057150  0.00000000  0.38578950  1
  O  O21  1  0.98839900  0.50000000  0.24355950  1
  O  O22  1  0.01160100  0.50000000  0.75644050  1
  O  O23  1  0.67301750  0.50000000  0.06173450  1
