# generated using pymatgen
data_Ga3NO3
_symmetry_space_group_name_H-M   'P 1'
_cell_length_a   6.14117700
_cell_length_b   8.36532903
_cell_length_c   8.41894618
_cell_angle_alpha   60.49253098
_cell_angle_beta   89.46183435
_cell_angle_gamma   89.30409086
_symmetry_Int_Tables_number   1
_chemical_formula_structural   Ga3NO3
_chemical_formula_sum   'Ga12 N4 O12'
_cell_volume   376.37584655
_cell_formula_units_Z   4
loop_
 _symmetry_equiv_pos_site_id
 _symmetry_equiv_pos_as_xyz
  1  'x, y, z'
loop_
 _atom_site_type_symbol
 _atom_site_label
 _atom_site_symmetry_multiplicity
 _atom_site_fract_x
 _atom_site_fract_y
 _atom_site_fract_z
 _atom_site_occupancy
  Ga  Ga0  1  0.54416500  0.90690500  0.25790500  1
  Ga  Ga1  1  0.85154900  0.56669400  0.50446300  1
  Ga  Ga2  1  0.53411600  0.26077300  0.82840900  1
  Ga  Ga3  1  0.84888100  0.92086400  0.57232000  1
  Ga  Ga4  1  0.85061700  0.50251300  0.91986900  1
  Ga  Ga5  1  0.04385500  0.08966900  0.16697400  1
  Ga  Ga6  1  0.33579100  0.42492900  0.08372900  1
  Ga  Ga7  1  0.54052900  0.83828000  0.90509400  1
  Ga  Ga8  1  0.04009500  0.74317000  0.08874300  1
  Ga  Ga9  1  0.32963600  0.09122500  0.49208000  1
  Ga  Ga10  1  0.33193800  0.48813100  0.43509400  1
  Ga  Ga11  1  0.05311000  0.16980500  0.74428200  1
  N  N12  1  0.07189100  0.34219700  0.04916200  1
  N  N13  1  0.06941700  0.03543600  0.62034100  1
  N  N14  1  0.07464300  0.62196600  0.33778800  1
  N  N15  1  0.29863800  0.31828700  0.68145900  1
  O  O16  1  0.57392100  0.65253700  0.38556900  1
  O  O17  1  0.79673700  0.98791900  0.32171500  1
  O  O18  1  0.79863900  0.32112400  0.69439500  1
  O  O19  1  0.54838000  0.99838500  0.00301600  1
  O  O20  1  0.03543700  0.99861400  0.00171300  1
  O  O21  1  0.86670600  0.66429300  0.66562000  1
  O  O22  1  0.56624400  0.95559100  0.65073200  1
  O  O23  1  0.57554700  0.38494700  0.96367300  1
  O  O24  1  0.30325300  0.00355000  0.31664300  1
  O  O25  1  0.79587000  0.69278100  0.98330900  1
  O  O26  1  0.30254800  0.68410500  0.99711200  1
  O  O27  1  0.42119500  0.33530900  0.32879000  1
