# generated using pymatgen
data_V3Cr3(TeO8)2
_symmetry_space_group_name_H-M   'P 1'
_cell_length_a   5.98350200
_cell_length_b   6.01294200
_cell_length_c   9.24748291
_cell_angle_alpha   90.24807874
_cell_angle_beta   90.89411852
_cell_angle_gamma   119.70592130
_symmetry_Int_Tables_number   1
_chemical_formula_structural   V3Cr3(TeO8)2
_chemical_formula_sum   'V3 Cr3 Te2 O16'
_cell_volume   288.92238549
_cell_formula_units_Z   1
loop_
 _symmetry_equiv_pos_site_id
 _symmetry_equiv_pos_as_xyz
  1  'x, y, z'
loop_
 _atom_site_type_symbol
 _atom_site_label
 _atom_site_symmetry_multiplicity
 _atom_site_fract_x
 _atom_site_fract_y
 _atom_site_fract_z
 _atom_site_occupancy
  V  V0  1  0.66100700  0.82976400  0.22373900  1
  V  V1  1  0.83429100  0.66394500  0.71506500  1
  V  V2  1  0.82396000  0.17068100  0.71681500  1
  Cr  Cr3  1  0.17334500  0.83132600  0.20765700  1
  Cr  Cr4  1  0.17310300  0.34151600  0.20784200  1
  Cr  Cr5  1  0.34078700  0.17367200  0.70517800  1
  Te  Te6  1  0.32611200  0.66396300  0.48942500  1
  Te  Te7  1  0.66105300  0.33040300  0.99136000  1
  O  O8  1  0.17214200  0.82913000  0.59470200  1
  O  O9  1  0.04658800  0.52473600  0.33878600  1
  O  O10  1  0.35574900  0.67712400  0.10904500  1
  O  O11  1  0.99095900  0.99612700  0.29841200  1
  O  O12  1  0.99873400  0.01421900  0.79624400  1
  O  O13  1  0.16771700  0.34532300  0.59317200  1
  O  O14  1  0.48043900  0.95480900  0.34662700  1
  O  O15  1  0.48324400  0.52472400  0.34756400  1
  O  O16  1  0.34142500  0.16894200  0.09558800  1
  O  O17  1  0.64821900  0.82470100  0.59792400  1
  O  O18  1  0.51904700  0.47316700  0.84438200  1
  O  O19  1  0.52414600  0.04402000  0.84152300  1
  O  O20  1  0.67902300  0.32904000  0.60736500  1
  O  O21  1  0.82268400  0.65041600  0.09885500  1
  O  O22  1  0.95397000  0.46893400  0.84944300  1
  O  O23  1  0.82225700  0.16952400  0.09900600  1
