# generated using pymatgen
data_ZrTlCuS3
_symmetry_space_group_name_H-M   'P 1'
_cell_length_a   3.74106200
_cell_length_b   14.39716400
_cell_length_c   9.82592600
_cell_angle_alpha   90.00000000
_cell_angle_beta   90.00000000
_cell_angle_gamma   90.00000000
_symmetry_Int_Tables_number   1
_chemical_formula_structural   ZrTlCuS3
_chemical_formula_sum   'Zr4 Tl4 Cu4 S12'
_cell_volume   529.23108692
_cell_formula_units_Z   4
loop_
 _symmetry_equiv_pos_site_id
 _symmetry_equiv_pos_as_xyz
  1  'x, y, z'
loop_
 _atom_site_type_symbol
 _atom_site_label
 _atom_site_symmetry_multiplicity
 _atom_site_fract_x
 _atom_site_fract_y
 _atom_site_fract_z
 _atom_site_occupancy
  Zr  Zr0  1  0.00000000  0.00000000  0.00000000  1
  Zr  Zr1  1  0.00000000  0.00000000  0.50000000  1
  Zr  Zr2  1  0.50000000  0.50000000  0.00000000  1
  Zr  Zr3  1  0.50000000  0.50000000  0.50000000  1
  Tl  Tl4  1  0.00000000  0.25447400  0.75000000  1
  Tl  Tl5  1  0.50000000  0.24552600  0.25000000  1
  Tl  Tl6  1  0.50000000  0.75447400  0.75000000  1
  Tl  Tl7  1  0.00000000  0.74552600  0.25000000  1
  Cu  Cu8  1  0.00000000  0.46429800  0.25000000  1
  Cu  Cu9  1  0.50000000  0.03570200  0.75000000  1
  Cu  Cu10  1  0.50000000  0.96429800  0.25000000  1
  Cu  Cu11  1  0.00000000  0.53570200  0.75000000  1
  S  S12  1  0.00000000  0.37917200  0.05238300  1
  S  S13  1  0.50000000  0.12082800  0.94761700  1
  S  S14  1  0.50000000  0.12082800  0.55238300  1
  S  S15  1  0.00000000  0.06251300  0.25000000  1
  S  S16  1  0.50000000  0.43748700  0.75000000  1
  S  S17  1  0.00000000  0.37917200  0.44761700  1
  S  S18  1  0.50000000  0.87917200  0.05238300  1
  S  S19  1  0.00000000  0.62082800  0.94761700  1
  S  S20  1  0.00000000  0.62082800  0.55238300  1
  S  S21  1  0.50000000  0.56251300  0.25000000  1
  S  S22  1  0.00000000  0.93748700  0.75000000  1
  S  S23  1  0.50000000  0.87917200  0.44761700  1
