# generated using pymatgen
data_Sn2P2O7
_symmetry_space_group_name_H-M   'P 1'
_cell_length_a   7.03127300
_cell_length_b   7.03127300
_cell_length_c   25.55367100
_cell_angle_alpha   90.00000000
_cell_angle_beta   90.00000000
_cell_angle_gamma   90.00000000
_symmetry_Int_Tables_number   1
_chemical_formula_structural   Sn2P2O7
_chemical_formula_sum   'Sn16 P16 O56'
_cell_volume   1263.34282985
_cell_formula_units_Z   8
loop_
 _symmetry_equiv_pos_site_id
 _symmetry_equiv_pos_as_xyz
  1  'x, y, z'
loop_
 _atom_site_type_symbol
 _atom_site_label
 _atom_site_symmetry_multiplicity
 _atom_site_fract_x
 _atom_site_fract_y
 _atom_site_fract_z
 _atom_site_occupancy
  Sn  Sn0  1  0.11849500  0.63673000  0.88431100  1
  Sn  Sn1  1  0.12006200  0.21973700  0.00208000  1
  Sn  Sn2  1  0.19405500  0.54741600  0.24435500  1
  Sn  Sn3  1  0.20110300  0.26486100  0.63876500  1
  Sn  Sn4  1  0.21973700  0.87993800  0.75208000  1
  Sn  Sn5  1  0.26486100  0.79889700  0.38876500  1
  Sn  Sn6  1  0.36327000  0.11849500  0.13431100  1
  Sn  Sn7  1  0.45258400  0.19405500  0.49435500  1
  Sn  Sn8  1  0.54741600  0.80594500  0.99435500  1
  Sn  Sn9  1  0.63673000  0.88150500  0.63431100  1
  Sn  Sn10  1  0.73513900  0.20110300  0.88876500  1
  Sn  Sn11  1  0.78026300  0.12006200  0.25208000  1
  Sn  Sn12  1  0.79889700  0.73513900  0.13876500  1
  Sn  Sn13  1  0.80594500  0.45258400  0.74435500  1
  Sn  Sn14  1  0.87993800  0.78026300  0.50208000  1
  Sn  Sn15  1  0.88150500  0.36327000  0.38431100  1
  P  P16  1  0.04866600  0.71117500  0.02071400  1
  P  P17  1  0.13695600  0.74718200  0.62208300  1
  P  P18  1  0.25281800  0.13695600  0.87208300  1
  P  P19  1  0.28882500  0.04866600  0.27071400  1
  P  P20  1  0.28023900  0.65334500  0.11844200  1
  P  P21  1  0.30522900  0.37306400  0.77598500  1
  P  P22  1  0.34665500  0.28023900  0.36844200  1
  P  P23  1  0.37306400  0.69477100  0.52598500  1
  P  P24  1  0.62693600  0.30522900  0.02598500  1
  P  P25  1  0.65334500  0.71976100  0.86844200  1
  P  P26  1  0.69477100  0.62693600  0.27598500  1
  P  P27  1  0.71976100  0.34665500  0.61844200  1
  P  P28  1  0.71117500  0.95133400  0.77071400  1
  P  P29  1  0.74718200  0.86304400  0.37208300  1
  P  P30  1  0.86304400  0.25281800  0.12208300  1
  P  P31  1  0.95133400  0.28882500  0.52071400  1
  O  O32  1  0.01723300  0.55853900  0.97902800  1
  O  O33  1  0.03975100  0.17930000  0.09214800  1
  O  O34  1  0.08534600  0.26146400  0.89207900  1
  O  O35  1  0.09993900  0.60148800  0.66464300  1
  O  O36  1  0.12839100  0.18090600  0.25182600  1
  O  O37  1  0.13609200  0.21319700  0.54589700  1
  O  O38  1  0.14314100  0.77200300  0.15328700  1
  O  O39  1  0.15973700  0.59063900  0.06663600  1
  O  O40  1  0.16518200  0.52913700  0.79423800  1
  O  O41  1  0.17930000  0.96024900  0.84214800  1
  O  O42  1  0.18090600  0.87160900  0.00182600  1
  O  O43  1  0.20390800  0.22435600  0.74100000  1
  O  O44  1  0.21319700  0.86390800  0.29589700  1
  O  O45  1  0.22097600  0.44626400  0.34878900  1
  O  O46  1  0.22435600  0.79609200  0.49100000  1
  O  O47  1  0.22799700  0.14314100  0.40328700  1
  O  O48  1  0.26222300  0.62770100  0.57910200  1
  O  O49  1  0.26146400  0.91465400  0.64207900  1
  O  O50  1  0.34081000  0.46874100  0.14504200  1
  O  O51  1  0.37229900  0.26222300  0.82910200  1
  O  O52  1  0.39851200  0.09993900  0.91464300  1
  O  O53  1  0.40936100  0.15973700  0.31663600  1
  O  O54  1  0.44146100  0.01723300  0.22902800  1
  O  O55  1  0.46874100  0.65919000  0.89504200  1
  O  O56  1  0.47086300  0.16518200  0.04423800  1
  O  O57  1  0.44626400  0.77902400  0.09878900  1
  O  O58  1  0.45573500  0.51370200  0.50275500  1
  O  O59  1  0.48629800  0.45573500  0.75275500  1
  O  O60  1  0.51370200  0.54426500  0.25275500  1
  O  O61  1  0.54426500  0.48629800  0.00275500  1
  O  O62  1  0.55373600  0.22097600  0.59878900  1
  O  O63  1  0.52913700  0.83481800  0.54423800  1
  O  O64  1  0.53125900  0.34081000  0.39504200  1
  O  O65  1  0.55853900  0.98276700  0.72902800  1
  O  O66  1  0.59063900  0.84026300  0.81663600  1
  O  O67  1  0.60148800  0.90006100  0.41464300  1
  O  O68  1  0.62770100  0.73777700  0.32910200  1
  O  O69  1  0.65919000  0.53125900  0.64504200  1
  O  O70  1  0.73853600  0.08534600  0.14207900  1
  O  O71  1  0.73777700  0.37229900  0.07910200  1
  O  O72  1  0.77200300  0.85685900  0.90328700  1
  O  O73  1  0.77564400  0.20390800  0.99100000  1
  O  O74  1  0.77902400  0.55373600  0.84878900  1
  O  O75  1  0.78680300  0.13609200  0.79589700  1
  O  O76  1  0.79609200  0.77564400  0.24100000  1
  O  O77  1  0.81909400  0.12839100  0.50182600  1
  O  O78  1  0.82070000  0.03975100  0.34214800  1
  O  O79  1  0.83481800  0.47086300  0.29423800  1
  O  O80  1  0.84026300  0.40936100  0.56663600  1
  O  O81  1  0.85685900  0.22799700  0.65328700  1
  O  O82  1  0.86390800  0.78680300  0.04589700  1
  O  O83  1  0.87160900  0.81909400  0.75182600  1
  O  O84  1  0.90006100  0.39851200  0.16464300  1
  O  O85  1  0.91465400  0.73853600  0.39207900  1
  O  O86  1  0.96024900  0.82070000  0.59214800  1
  O  O87  1  0.98276700  0.44146100  0.47902800  1
