# generated using pymatgen
data_Li3V2(PO4)3
_symmetry_space_group_name_H-M   'P 1'
_cell_length_a   14.84342600
_cell_length_b   8.83203000
_cell_length_c   8.62726951
_cell_angle_alpha   90.00000000
_cell_angle_beta   123.55724078
_cell_angle_gamma   90.00000000
_symmetry_Int_Tables_number   1
_chemical_formula_structural   Li3V2(PO4)3
_chemical_formula_sum   'Li12 V8 P12 O48'
_cell_volume   942.51257521
_cell_formula_units_Z   4
loop_
 _symmetry_equiv_pos_site_id
 _symmetry_equiv_pos_as_xyz
  1  'x, y, z'
loop_
 _atom_site_type_symbol
 _atom_site_label
 _atom_site_symmetry_multiplicity
 _atom_site_fract_x
 _atom_site_fract_y
 _atom_site_fract_z
 _atom_site_occupancy
  Li  Li0  1  0.24897600  0.75436700  0.77809100  1
  Li  Li1  1  0.50000000  0.15088700  0.50000000  1
  Li  Li2  1  0.75102400  0.75436700  0.22190900  1
  Li  Li3  1  0.50000000  0.84603300  0.00000000  1
  Li  Li4  1  0.20201050  0.95566850  0.40416600  1
  Li  Li5  1  0.79798950  0.95566850  0.59583400  1
  Li  Li6  1  0.74897600  0.25436700  0.77809100  1
  Li  Li7  1  0.00000000  0.65088700  0.50000000  1
  Li  Li8  1  0.25102400  0.25436700  0.22190900  1
  Li  Li9  1  0.00000000  0.34603300  0.00000000  1
  Li  Li10  1  0.70201050  0.45566850  0.40416600  1
  Li  Li11  1  0.29798950  0.45566850  0.59583400  1
  V  V12  1  0.60835750  0.25351850  0.89220100  1
  V  V13  1  0.39164250  0.25351850  0.10779900  1
  V  V14  1  0.60463250  0.75002550  0.39573000  1
  V  V15  1  0.39536750  0.75002550  0.60427000  1
  V  V16  1  0.10835750  0.75351850  0.89220100  1
  V  V17  1  0.89164250  0.75351850  0.10779900  1
  V  V18  1  0.10463250  0.25002550  0.39573000  1
  V  V19  1  0.89536750  0.25002550  0.60427000  1
  P  P20  1  0.64907500  0.90033100  0.79875300  1
  P  P21  1  0.35092500  0.90033100  0.20124700  1
  P  P22  1  0.50000000  0.45341500  0.50000000  1
  P  P23  1  0.50000000  0.54215600  0.00000000  1
  P  P24  1  0.64337150  0.10591950  0.29362600  1
  P  P25  1  0.35662850  0.10591950  0.70637400  1
  P  P26  1  0.14907500  0.40033100  0.79875300  1
  P  P27  1  0.85092500  0.40033100  0.20124700  1
  P  P28  1  0.00000000  0.95341500  0.50000000  1
  P  P29  1  0.00000000  0.04215600  0.00000000  1
  P  P30  1  0.14337150  0.60591950  0.29362600  1
  P  P31  1  0.85662850  0.60591950  0.70637400  1
  O  O32  1  0.35656250  0.14536750  0.87712000  1
  O  O33  1  0.93768100  0.94594400  0.05619800  1
  O  O34  1  0.65593800  0.07634300  0.79873900  1
  O  O35  1  0.54068900  0.16126200  0.28025100  1
  O  O36  1  0.73970450  0.83230150  0.98723500  1
  O  O37  1  0.54222600  0.84663300  0.77021500  1
  O  O38  1  0.26029550  0.83230150  0.01276500  1
  O  O39  1  0.34406200  0.07634300  0.20126100  1
  O  O40  1  0.41398050  0.34653350  0.34608600  1
  O  O41  1  0.06231900  0.94594400  0.94380200  1
  O  O42  1  0.41470500  0.65020600  0.84061600  1
  O  O43  1  0.64343750  0.14536750  0.12288000  1
  O  O44  1  0.33944550  0.85267250  0.36243900  1
  O  O45  1  0.58601950  0.34653350  0.65391400  1
  O  O46  1  0.93774000  0.04945800  0.56097700  1
  O  O47  1  0.58529500  0.65020600  0.15938400  1
  O  O48  1  0.65955750  0.92914050  0.31726900  1
  O  O49  1  0.73867950  0.17256350  0.48149000  1
  O  O50  1  0.45931100  0.16126200  0.71974900  1
  O  O51  1  0.26132050  0.17256350  0.51851000  1
  O  O52  1  0.45777400  0.84663300  0.22978500  1
  O  O53  1  0.34044250  0.92914050  0.68273100  1
  O  O54  1  0.06226000  0.04945800  0.43902300  1
  O  O55  1  0.66055450  0.85267250  0.63756100  1
  O  O56  1  0.85656250  0.64536750  0.87712000  1
  O  O57  1  0.43768100  0.44594400  0.05619800  1
  O  O58  1  0.15593800  0.57634300  0.79873900  1
  O  O59  1  0.04068900  0.66126200  0.28025100  1
  O  O60  1  0.23970450  0.33230150  0.98723500  1
  O  O61  1  0.04222600  0.34663300  0.77021500  1
  O  O62  1  0.76029550  0.33230150  0.01276500  1
  O  O63  1  0.84406200  0.57634300  0.20126100  1
  O  O64  1  0.91398050  0.84653350  0.34608600  1
  O  O65  1  0.56231900  0.44594400  0.94380200  1
  O  O66  1  0.91470500  0.15020600  0.84061600  1
  O  O67  1  0.14343750  0.64536750  0.12288000  1
  O  O68  1  0.83944550  0.35267250  0.36243900  1
  O  O69  1  0.08601950  0.84653350  0.65391400  1
  O  O70  1  0.43774000  0.54945800  0.56097700  1
  O  O71  1  0.08529500  0.15020600  0.15938400  1
  O  O72  1  0.15955750  0.42914050  0.31726900  1
  O  O73  1  0.23867950  0.67256350  0.48149000  1
  O  O74  1  0.95931100  0.66126200  0.71974900  1
  O  O75  1  0.76132050  0.67256350  0.51851000  1
  O  O76  1  0.95777400  0.34663300  0.22978500  1
  O  O77  1  0.84044250  0.42914050  0.68273100  1
  O  O78  1  0.56226000  0.54945800  0.43902300  1
  O  O79  1  0.16055450  0.35267250  0.63756100  1
