# generated using pymatgen
data_Na2SnO3
_symmetry_space_group_name_H-M   'P 1'
_cell_length_a   5.62491400
_cell_length_b   9.71995200
_cell_length_c   5.85071794
_cell_angle_alpha   90.00000000
_cell_angle_beta   108.98662479
_cell_angle_gamma   90.00000000
_symmetry_Int_Tables_number   1
_chemical_formula_structural   Na2SnO3
_chemical_formula_sum   'Na8 Sn4 O12'
_cell_volume   302.47823435
_cell_formula_units_Z   4
loop_
 _symmetry_equiv_pos_site_id
 _symmetry_equiv_pos_as_xyz
  1  'x, y, z'
loop_
 _atom_site_type_symbol
 _atom_site_label
 _atom_site_symmetry_multiplicity
 _atom_site_fract_x
 _atom_site_fract_y
 _atom_site_fract_z
 _atom_site_occupancy
  Na  Na0  1  0.50000000  0.00000000  0.00000000  1
  Na  Na1  1  0.50000000  0.65572500  0.00000000  1
  Na  Na2  1  0.50000000  0.34427500  0.00000000  1
  Na  Na3  1  0.00000000  0.00000000  0.50000000  1
  Na  Na4  1  0.00000000  0.50000000  0.00000000  1
  Na  Na5  1  0.00000000  0.15572500  0.00000000  1
  Na  Na6  1  0.00000000  0.84427500  0.00000000  1
  Na  Na7  1  0.50000000  0.50000000  0.50000000  1
  Sn  Sn8  1  0.50000000  0.83150500  0.50000000  1
  Sn  Sn9  1  0.50000000  0.16849500  0.50000000  1
  Sn  Sn10  1  0.00000000  0.33150500  0.50000000  1
  Sn  Sn11  1  0.00000000  0.66849500  0.50000000  1
  O  O12  1  0.25744050  0.18249150  0.71337000  1
  O  O13  1  0.74255950  0.81750850  0.28663000  1
  O  O14  1  0.29687200  0.00000000  0.28713200  1
  O  O15  1  0.25744050  0.81750850  0.71337000  1
  O  O16  1  0.74255950  0.18249150  0.28663000  1
  O  O17  1  0.70312800  0.00000000  0.71286800  1
  O  O18  1  0.75744050  0.68249150  0.71337000  1
  O  O19  1  0.24255950  0.31750850  0.28663000  1
  O  O20  1  0.79687200  0.50000000  0.28713200  1
  O  O21  1  0.75744050  0.31750850  0.71337000  1
  O  O22  1  0.24255950  0.68249150  0.28663000  1
  O  O23  1  0.20312800  0.50000000  0.71286800  1
