# generated using pymatgen
data_V3OF11
_symmetry_space_group_name_H-M   'P 1'
_cell_length_a   5.27071000
_cell_length_b   5.44345329
_cell_length_c   14.61490194
_cell_angle_alpha   79.54211173
_cell_angle_beta   89.95822849
_cell_angle_gamma   89.96054993
_symmetry_Int_Tables_number   1
_chemical_formula_structural   V3OF11
_chemical_formula_sum   'V6 O2 F22'
_cell_volume   412.34858159
_cell_formula_units_Z   2
loop_
 _symmetry_equiv_pos_site_id
 _symmetry_equiv_pos_as_xyz
  1  'x, y, z'
loop_
 _atom_site_type_symbol
 _atom_site_label
 _atom_site_symmetry_multiplicity
 _atom_site_fract_x
 _atom_site_fract_y
 _atom_site_fract_z
 _atom_site_occupancy
  V  V0  1  0.49823600  0.66770500  0.66556200  1
  V  V1  1  0.00000000  0.50000000  0.00000000  1
  V  V2  1  0.50176400  0.33229500  0.33443800  1
  V  V3  1  0.99312500  0.16562400  0.67242500  1
  V  V4  1  0.50000000  0.00000000  0.00000000  1
  V  V5  1  0.00687500  0.83437600  0.32757500  1
  O  O6  1  0.91812800  0.12330200  0.78171900  1
  O  O7  1  0.08187200  0.87669800  0.21828100  1
  F  F8  1  0.70458200  0.64018000  0.30889500  1
  F  F9  1  0.79906700  0.47084400  0.64087500  1
  F  F10  1  0.20093300  0.52915600  0.35912500  1
  F  F11  1  0.58588400  0.62351200  0.78419400  1
  F  F12  1  0.91356300  0.45646400  0.11859800  1
  F  F13  1  0.58430400  0.28962200  0.45236600  1
  F  F14  1  0.08643700  0.54353600  0.88140200  1
  F  F15  1  0.41411600  0.37648800  0.21580600  1
  F  F16  1  0.08798600  0.21038000  0.54942900  1
  F  F17  1  0.70037300  0.30879900  0.97502000  1
  F  F18  1  0.79861800  0.13769500  0.30855200  1
  F  F19  1  0.70597800  0.97442400  0.64084600  1
  F  F20  1  0.29541800  0.35982000  0.69110500  1
  F  F21  1  0.20046700  0.19146100  0.02495600  1
  F  F22  1  0.29402200  0.02557600  0.35915400  1
  F  F23  1  0.58604700  0.95656900  0.11857300  1
  F  F24  1  0.91201400  0.78962000  0.45057100  1
  F  F25  1  0.41395300  0.04343100  0.88142700  1
  F  F26  1  0.41569600  0.71037800  0.54763400  1
  F  F27  1  0.79953300  0.80853900  0.97504400  1
  F  F28  1  0.20138200  0.86230500  0.69144800  1
  F  F29  1  0.29962700  0.69120100  0.02498000  1
