# generated using pymatgen
data_Li4Ti3Cr3(NiO8)2
_symmetry_space_group_name_H-M   'P 1'
_cell_length_a   10.14729800
_cell_length_b   5.87581200
_cell_length_c   9.65946393
_cell_angle_alpha   90.00000000
_cell_angle_beta   90.02515579
_cell_angle_gamma   90.00000000
_symmetry_Int_Tables_number   1
_chemical_formula_structural   Li4Ti3Cr3(NiO8)2
_chemical_formula_sum   'Li8 Ti6 Cr6 Ni4 O32'
_cell_volume   575.93210646
_cell_formula_units_Z   2
loop_
 _symmetry_equiv_pos_site_id
 _symmetry_equiv_pos_as_xyz
  1  'x, y, z'
loop_
 _atom_site_type_symbol
 _atom_site_label
 _atom_site_symmetry_multiplicity
 _atom_site_fract_x
 _atom_site_fract_y
 _atom_site_fract_z
 _atom_site_occupancy
  Li  Li0  1  0.66875700  0.00000000  0.89308900  1
  Li  Li1  1  0.99359500  0.00000000  0.99633300  1
  Li  Li2  1  0.99531400  0.00000000  0.49828300  1
  Li  Li3  1  0.33596800  0.00000000  0.39517300  1
  Li  Li4  1  0.16875700  0.50000000  0.89308900  1
  Li  Li5  1  0.49359500  0.50000000  0.99633300  1
  Li  Li6  1  0.49531400  0.50000000  0.49828300  1
  Li  Li7  1  0.83596800  0.50000000  0.39517300  1
  Ti  Ti8  1  0.58816950  0.24708250  0.21679100  1
  Ti  Ti9  1  0.58816950  0.75291750  0.21679100  1
  Ti  Ti10  1  0.17459100  0.00000000  0.72083400  1
  Ti  Ti11  1  0.08816950  0.74708250  0.21679100  1
  Ti  Ti12  1  0.08816950  0.25291750  0.21679100  1
  Ti  Ti13  1  0.67459100  0.50000000  0.72083400  1
  Cr  Cr14  1  0.83287900  0.00000000  0.21109900  1
  Cr  Cr15  1  0.41897200  0.24687300  0.71141400  1
  Cr  Cr16  1  0.41897200  0.75312700  0.71141400  1
  Cr  Cr17  1  0.33287900  0.50000000  0.21109900  1
  Cr  Cr18  1  0.91897200  0.74687300  0.71141400  1
  Cr  Cr19  1  0.91897200  0.25312700  0.71141400  1
  Ni  Ni20  1  0.66571400  0.00000000  0.48976800  1
  Ni  Ni21  1  0.33267000  0.00000000  0.98928000  1
  Ni  Ni22  1  0.16571400  0.50000000  0.48976800  1
  Ni  Ni23  1  0.83267000  0.50000000  0.98928000  1
  O  O24  1  0.57589950  0.25839050  0.60610300  1
  O  O25  1  0.51850300  0.00000000  0.33112100  1
  O  O26  1  0.66265900  0.00000000  0.10191300  1
  O  O27  1  0.00042800  0.00000000  0.31400300  1
  O  O28  1  0.00213200  0.00000000  0.81259200  1
  O  O29  1  0.57589950  0.74160950  0.60610300  1
  O  O30  1  0.74337350  0.22133250  0.33064400  1
  O  O31  1  0.74337350  0.77866750  0.33064400  1
  O  O32  1  0.15845100  0.00000000  0.10452200  1
  O  O33  1  0.83915600  0.00000000  0.61258200  1
  O  O34  1  0.26112550  0.22513450  0.83118600  1
  O  O35  1  0.26112550  0.77486550  0.83118600  1
  O  O36  1  0.33095300  0.00000000  0.60202200  1
  O  O37  1  0.41604050  0.26358250  0.10828400  1
  O  O38  1  0.48103800  0.00000000  0.82633700  1
  O  O39  1  0.41604050  0.73641750  0.10828400  1
  O  O40  1  0.07589950  0.75839050  0.60610300  1
  O  O41  1  0.01850300  0.50000000  0.33112100  1
  O  O42  1  0.16265900  0.50000000  0.10191300  1
  O  O43  1  0.50042800  0.50000000  0.31400300  1
  O  O44  1  0.50213200  0.50000000  0.81259200  1
  O  O45  1  0.07589950  0.24160950  0.60610300  1
  O  O46  1  0.24337350  0.72133250  0.33064400  1
  O  O47  1  0.24337350  0.27866750  0.33064400  1
  O  O48  1  0.65845100  0.50000000  0.10452200  1
  O  O49  1  0.33915600  0.50000000  0.61258200  1
  O  O50  1  0.76112550  0.72513450  0.83118600  1
  O  O51  1  0.76112550  0.27486550  0.83118600  1
  O  O52  1  0.83095300  0.50000000  0.60202200  1
  O  O53  1  0.91604050  0.76358250  0.10828400  1
  O  O54  1  0.98103800  0.50000000  0.82633700  1
  O  O55  1  0.91604050  0.23641750  0.10828400  1
