# generated using pymatgen
data_Li10Cr3Fe3(NiO8)2
_symmetry_space_group_name_H-M   'P 1'
_cell_length_a   10.36264000
_cell_length_b   5.96490200
_cell_length_c   9.83837766
_cell_angle_alpha   90.00000000
_cell_angle_beta   90.26046597
_cell_angle_gamma   90.00000000
_symmetry_Int_Tables_number   1
_chemical_formula_structural   Li10Cr3Fe3(NiO8)2
_chemical_formula_sum   'Li20 Cr6 Fe6 Ni4 O32'
_cell_volume   608.12481537
_cell_formula_units_Z   2
loop_
 _symmetry_equiv_pos_site_id
 _symmetry_equiv_pos_as_xyz
  1  'x, y, z'
loop_
 _atom_site_type_symbol
 _atom_site_label
 _atom_site_symmetry_multiplicity
 _atom_site_fract_x
 _atom_site_fract_y
 _atom_site_fract_z
 _atom_site_occupancy
  Li  Li0  1  0.61153700  0.79475500  0.05873900  1
  Li  Li1  1  0.51501600  0.50000000  0.98355600  1
  Li  Li2  1  0.51725200  0.50000000  0.48471900  1
  Li  Li3  1  0.61153700  0.20524500  0.05873900  1
  Li  Li4  1  0.68362500  0.00000000  0.28335200  1
  Li  Li5  1  0.81796600  0.00000000  0.05767100  1
  Li  Li6  1  0.91295300  0.29314800  0.55828700  1
  Li  Li7  1  0.84662200  0.50000000  0.78322200  1
  Li  Li8  1  0.71068600  0.50000000  0.55739600  1
  Li  Li9  1  0.91295300  0.70685200  0.55828700  1
  Li  Li10  1  0.11153700  0.29475500  0.05873900  1
  Li  Li11  1  0.01501600  0.00000000  0.98355600  1
  Li  Li12  1  0.01725200  0.00000000  0.48471900  1
  Li  Li13  1  0.11153700  0.70524500  0.05873900  1
  Li  Li14  1  0.18362500  0.50000000  0.28335200  1
  Li  Li15  1  0.31796600  0.50000000  0.05767100  1
  Li  Li16  1  0.41295300  0.79314800  0.55828700  1
  Li  Li17  1  0.34662200  0.00000000  0.78322200  1
  Li  Li18  1  0.21068600  0.00000000  0.55739600  1
  Li  Li19  1  0.41295300  0.20685200  0.55828700  1
  Cr  Cr20  1  0.59810950  0.75012450  0.78543200  1
  Cr  Cr21  1  0.59810950  0.24987550  0.78543200  1
  Cr  Cr22  1  0.68517000  0.50000000  0.28564900  1
  Cr  Cr23  1  0.09810950  0.25012450  0.78543200  1
  Cr  Cr24  1  0.09810950  0.74987550  0.78543200  1
  Cr  Cr25  1  0.18517000  0.00000000  0.28564900  1
  Fe  Fe26  1  0.84502600  0.00000000  0.78497200  1
  Fe  Fe27  1  0.93212400  0.25907800  0.28534500  1
  Fe  Fe28  1  0.93212400  0.74092200  0.28534500  1
  Fe  Fe29  1  0.34502600  0.50000000  0.78497200  1
  Fe  Fe30  1  0.43212400  0.75907800  0.28534500  1
  Fe  Fe31  1  0.43212400  0.24092200  0.28534500  1
  Ni  Ni32  1  0.68176700  0.00000000  0.52985500  1
  Ni  Ni33  1  0.84952300  0.50000000  0.02953600  1
  Ni  Ni34  1  0.18176700  0.50000000  0.52985500  1
  Ni  Ni35  1  0.34952300  0.00000000  0.02953600  1
  O  O36  1  0.59859550  0.74695850  0.40214000  1
  O  O37  1  0.52268900  0.00000000  0.66707700  1
  O  O38  1  0.67956900  0.00000000  0.90242600  1
  O  O39  1  0.75910650  0.75935850  0.66783200  1
  O  O40  1  0.51566700  0.50000000  0.67405600  1
  O  O41  1  0.51860100  0.50000000  0.17289700  1
  O  O42  1  0.59859550  0.25304150  0.40214000  1
  O  O43  1  0.75910650  0.24064150  0.66783200  1
  O  O44  1  0.67602800  0.50000000  0.90213100  1
  O  O45  1  0.85540000  0.00000000  0.40572900  1
  O  O46  1  0.77008150  0.26767350  0.16722200  1
  O  O47  1  0.77008150  0.73232650  0.16722200  1
  O  O48  1  0.84852700  0.50000000  0.40426600  1
  O  O49  1  0.93419500  0.24075600  0.90351500  1
  O  O50  1  0.50855600  0.00000000  0.16686500  1
  O  O51  1  0.93419500  0.75924400  0.90351500  1
  O  O52  1  0.09859550  0.24695850  0.40214000  1
  O  O53  1  0.02268900  0.50000000  0.66707700  1
  O  O54  1  0.17956900  0.50000000  0.90242600  1
  O  O55  1  0.25910650  0.25935850  0.66783200  1
  O  O56  1  0.01566700  0.00000000  0.67405600  1
  O  O57  1  0.01860100  0.00000000  0.17289700  1
  O  O58  1  0.09859550  0.75304150  0.40214000  1
  O  O59  1  0.25910650  0.74064150  0.66783200  1
  O  O60  1  0.17602800  0.00000000  0.90213100  1
  O  O61  1  0.35540000  0.50000000  0.40572900  1
  O  O62  1  0.27008150  0.76767350  0.16722200  1
  O  O63  1  0.27008150  0.23232650  0.16722200  1
  O  O64  1  0.34852700  0.00000000  0.40426600  1
  O  O65  1  0.43419500  0.74075600  0.90351500  1
  O  O66  1  0.00855600  0.50000000  0.16686500  1
  O  O67  1  0.43419500  0.25924400  0.90351500  1
