# generated using pymatgen
data_Sr(IO3)2
_symmetry_space_group_name_H-M   'P 1'
_cell_length_a   6.04189700
_cell_length_b   6.21067700
_cell_length_c   18.12898900
_cell_angle_alpha   90.00000000
_cell_angle_beta   90.00000000
_cell_angle_gamma   90.00000000
_symmetry_Int_Tables_number   1
_chemical_formula_structural   Sr(IO3)2
_chemical_formula_sum   'Sr4 I8 O24'
_cell_volume   680.27709137
_cell_formula_units_Z   4
loop_
 _symmetry_equiv_pos_site_id
 _symmetry_equiv_pos_as_xyz
  1  'x, y, z'
loop_
 _atom_site_type_symbol
 _atom_site_label
 _atom_site_symmetry_multiplicity
 _atom_site_fract_x
 _atom_site_fract_y
 _atom_site_fract_z
 _atom_site_occupancy
  Sr  Sr0  1  0.70951300  0.17171300  0.09597200  1
  Sr  Sr1  1  0.20951300  0.32828700  0.90402800  1
  Sr  Sr2  1  0.29048700  0.67171300  0.40402800  1
  Sr  Sr3  1  0.79048700  0.82828700  0.59597200  1
  I  I4  1  0.97104200  0.13559400  0.42107200  1
  I  I5  1  0.25318700  0.21172100  0.20979000  1
  I  I6  1  0.75318700  0.28827900  0.79021000  1
  I  I7  1  0.47104200  0.36440600  0.57892800  1
  I  I8  1  0.02895800  0.63559400  0.07892800  1
  I  I9  1  0.74681300  0.71172100  0.29021000  1
  I  I10  1  0.24681300  0.78827900  0.70979000  1
  I  I11  1  0.52895800  0.86440600  0.92107200  1
  O  O12  1  0.10725000  0.01518700  0.33937600  1
  O  O13  1  0.05287400  0.02678800  0.16642700  1
  O  O14  1  0.49920300  0.03735200  0.21128400  1
  O  O15  1  0.46925000  0.09196100  0.98345000  1
  O  O16  1  0.84241100  0.13154500  0.87210000  1
  O  O17  1  0.70181100  0.19408900  0.54687800  1
  O  O18  1  0.20181100  0.30591100  0.45312200  1
  O  O19  1  0.34241100  0.36845500  0.12790000  1
  O  O20  1  0.96925000  0.40803900  0.01655000  1
  O  O21  1  0.99920300  0.46264800  0.78871600  1
  O  O22  1  0.55287400  0.47321200  0.83357300  1
  O  O23  1  0.60725000  0.48481300  0.66062400  1
  O  O24  1  0.89275000  0.51518700  0.16062400  1
  O  O25  1  0.94712600  0.52678800  0.33357300  1
  O  O26  1  0.50079700  0.53735200  0.28871600  1
  O  O27  1  0.53075000  0.59196100  0.51655000  1
  O  O28  1  0.15758900  0.63154500  0.62790000  1
  O  O29  1  0.29818900  0.69408900  0.95312200  1
  O  O30  1  0.79818900  0.80591100  0.04687800  1
  O  O31  1  0.65758900  0.86845500  0.37210000  1
  O  O32  1  0.03075000  0.90803900  0.48345000  1
  O  O33  1  0.00079700  0.96264800  0.71128400  1
  O  O34  1  0.44712600  0.97321200  0.66642700  1
  O  O35  1  0.39275000  0.98481300  0.83937600  1
