# generated using pymatgen
data_Li2Mn(SiO3)2
_symmetry_space_group_name_H-M   'P 1'
_cell_length_a   5.90481121
_cell_length_b   9.91109987
_cell_length_c   9.29351106
_cell_angle_alpha   90.00000000
_cell_angle_beta   90.06560049
_cell_angle_gamma   90.00000000
_symmetry_Int_Tables_number   1
_chemical_formula_structural   Li2Mn(SiO3)2
_chemical_formula_sum   'Li8 Mn4 Si8 O24'
_cell_volume   543.88540510
_cell_formula_units_Z   4
loop_
 _symmetry_equiv_pos_site_id
 _symmetry_equiv_pos_as_xyz
  1  'x, y, z'
loop_
 _atom_site_type_symbol
 _atom_site_label
 _atom_site_symmetry_multiplicity
 _atom_site_fract_x
 _atom_site_fract_y
 _atom_site_fract_z
 _atom_site_occupancy
  Li  Li0  1  0.44255425  0.08897225  0.10337050  1
  Li  Li1  1  0.44255425  0.91102775  0.60337050  1
  Li  Li2  1  0.55896075  0.17384125  0.36789450  1
  Li  Li3  1  0.55896075  0.82615875  0.86789450  1
  Li  Li4  1  0.94255425  0.58897225  0.10337050  1
  Li  Li5  1  0.94255425  0.41102775  0.60337050  1
  Li  Li6  1  0.05896075  0.67384125  0.36789450  1
  Li  Li7  1  0.05896075  0.32615875  0.86789450  1
  Mn  Mn8  1  0.51247375  0.24604575  0.74437550  1
  Mn  Mn9  1  0.51247375  0.75395425  0.24437550  1
  Mn  Mn10  1  0.01247375  0.74604575  0.74437550  1
  Mn  Mn11  1  0.01247375  0.25395425  0.24437550  1
  Si  Si12  1  0.15956375  0.02942825  0.86587700  1
  Si  Si13  1  0.15956375  0.97057175  0.36587700  1
  Si  Si14  1  0.83420125  0.03066775  0.63387600  1
  Si  Si15  1  0.83420125  0.96933225  0.13387600  1
  Si  Si16  1  0.65956375  0.52942825  0.86587700  1
  Si  Si17  1  0.65956375  0.47057175  0.36587700  1
  Si  Si18  1  0.33420125  0.53066775  0.63387600  1
  Si  Si19  1  0.33420125  0.46933225  0.13387600  1
  O  O20  1  0.25905125  0.10257225  0.28171250  1
  O  O21  1  0.25905125  0.89742775  0.78171250  1
  O  O22  1  0.34978675  0.14066175  0.90819250  1
  O  O23  1  0.34978675  0.85933825  0.40819250  1
  O  O24  1  0.61041775  0.11332075  0.58067150  1
  O  O25  1  0.61041775  0.88667925  0.08067150  1
  O  O26  1  0.75385425  0.11849925  0.18929900  1
  O  O27  1  0.75385425  0.88150075  0.68929900  1
  O  O28  1  0.46179725  0.61177075  0.76990750  1
  O  O29  1  0.46179725  0.38822925  0.26990750  1
  O  O30  1  0.03128175  0.02495025  0.51065750  1
  O  O31  1  0.03128175  0.97504975  0.01065750  1
  O  O32  1  0.75905125  0.60257225  0.28171250  1
  O  O33  1  0.75905125  0.39742775  0.78171250  1
  O  O34  1  0.84978675  0.64066175  0.90819250  1
  O  O35  1  0.84978675  0.35933825  0.40819250  1
  O  O36  1  0.11041775  0.61332075  0.58067150  1
  O  O37  1  0.11041775  0.38667925  0.08067150  1
  O  O38  1  0.25385425  0.61849925  0.18929900  1
  O  O39  1  0.25385425  0.38150075  0.68929900  1
  O  O40  1  0.96179725  0.11177075  0.76990750  1
  O  O41  1  0.96179725  0.88822925  0.26990750  1
  O  O42  1  0.53128175  0.52495025  0.51065750  1
  O  O43  1  0.53128175  0.47504975  0.01065750  1
