# generated using pymatgen
data_Li5AuO4
_symmetry_space_group_name_H-M   'P 1'
_cell_length_a   5.96464400
_cell_length_b   7.47148000
_cell_length_c   19.20415200
_cell_angle_alpha   90.00000000
_cell_angle_beta   90.00000000
_cell_angle_gamma   90.00000000
_symmetry_Int_Tables_number   1
_chemical_formula_structural   Li5AuO4
_chemical_formula_sum   'Li40 Au8 O32'
_cell_volume   855.82762509
_cell_formula_units_Z   8
loop_
 _symmetry_equiv_pos_site_id
 _symmetry_equiv_pos_as_xyz
  1  'x, y, z'
loop_
 _atom_site_type_symbol
 _atom_site_label
 _atom_site_symmetry_multiplicity
 _atom_site_fract_x
 _atom_site_fract_y
 _atom_site_fract_z
 _atom_site_occupancy
  Li  Li0  1  0.75000000  0.75000000  0.25000000  1
  Li  Li1  1  0.50000000  0.00000000  0.14588100  1
  Li  Li2  1  0.00000000  0.00000000  0.35411900  1
  Li  Li3  1  0.75000000  0.75000000  0.39085100  1
  Li  Li4  1  0.75000000  0.25000000  0.39588100  1
  Li  Li5  1  0.75000000  0.75000000  0.10914900  1
  Li  Li6  1  0.75000000  0.25000000  0.10411900  1
  Li  Li7  1  0.00000000  0.00000000  0.00000000  1
  Li  Li8  1  0.50000000  0.00000000  0.35914900  1
  Li  Li9  1  0.00000000  0.00000000  0.14085100  1
  Li  Li10  1  0.75000000  0.25000000  0.75000000  1
  Li  Li11  1  0.50000000  0.50000000  0.64588100  1
  Li  Li12  1  0.00000000  0.50000000  0.85411900  1
  Li  Li13  1  0.75000000  0.25000000  0.89085100  1
  Li  Li14  1  0.75000000  0.75000000  0.89588100  1
  Li  Li15  1  0.75000000  0.25000000  0.60914900  1
  Li  Li16  1  0.75000000  0.75000000  0.60411900  1
  Li  Li17  1  0.00000000  0.50000000  0.50000000  1
  Li  Li18  1  0.50000000  0.50000000  0.85914900  1
  Li  Li19  1  0.00000000  0.50000000  0.64085100  1
  Li  Li20  1  0.25000000  0.75000000  0.75000000  1
  Li  Li21  1  0.00000000  0.00000000  0.64588100  1
  Li  Li22  1  0.50000000  0.00000000  0.85411900  1
  Li  Li23  1  0.25000000  0.75000000  0.89085100  1
  Li  Li24  1  0.25000000  0.25000000  0.89588100  1
  Li  Li25  1  0.25000000  0.75000000  0.60914900  1
  Li  Li26  1  0.25000000  0.25000000  0.60411900  1
  Li  Li27  1  0.50000000  0.00000000  0.50000000  1
  Li  Li28  1  0.00000000  0.00000000  0.85914900  1
  Li  Li29  1  0.50000000  0.00000000  0.64085100  1
  Li  Li30  1  0.25000000  0.25000000  0.25000000  1
  Li  Li31  1  0.00000000  0.50000000  0.14588100  1
  Li  Li32  1  0.50000000  0.50000000  0.35411900  1
  Li  Li33  1  0.25000000  0.25000000  0.39085100  1
  Li  Li34  1  0.25000000  0.75000000  0.39588100  1
  Li  Li35  1  0.25000000  0.25000000  0.10914900  1
  Li  Li36  1  0.25000000  0.75000000  0.10411900  1
  Li  Li37  1  0.50000000  0.50000000  0.00000000  1
  Li  Li38  1  0.00000000  0.50000000  0.35914900  1
  Li  Li39  1  0.50000000  0.50000000  0.14085100  1
  Au  Au40  1  0.50000000  0.00000000  0.00000000  1
  Au  Au41  1  0.75000000  0.25000000  0.25000000  1
  Au  Au42  1  0.50000000  0.50000000  0.50000000  1
  Au  Au43  1  0.75000000  0.75000000  0.75000000  1
  Au  Au44  1  0.00000000  0.00000000  0.50000000  1
  Au  Au45  1  0.25000000  0.25000000  0.75000000  1
  Au  Au46  1  0.00000000  0.50000000  0.00000000  1
  Au  Au47  1  0.25000000  0.75000000  0.25000000  1
  O  O48  1  0.24900750  0.00430850  0.42634400  1
  O  O49  1  0.25099250  0.00430850  0.07365600  1
  O  O50  1  0.49900750  0.74569150  0.17634400  1
  O  O51  1  0.00099250  0.74569150  0.32365600  1
  O  O52  1  0.99900750  0.25430850  0.32365600  1
  O  O53  1  0.50099250  0.25430850  0.17634400  1
  O  O54  1  0.75099250  0.99569150  0.42634400  1
  O  O55  1  0.74900750  0.99569150  0.07365600  1
  O  O56  1  0.24900750  0.50430850  0.92634400  1
  O  O57  1  0.25099250  0.50430850  0.57365600  1
  O  O58  1  0.49900750  0.24569150  0.67634400  1
  O  O59  1  0.00099250  0.24569150  0.82365600  1
  O  O60  1  0.99900750  0.75430850  0.82365600  1
  O  O61  1  0.50099250  0.75430850  0.67634400  1
  O  O62  1  0.75099250  0.49569150  0.92634400  1
  O  O63  1  0.74900750  0.49569150  0.57365600  1
  O  O64  1  0.74900750  0.00430850  0.92634400  1
  O  O65  1  0.75099250  0.00430850  0.57365600  1
  O  O66  1  0.99900750  0.74569150  0.67634400  1
  O  O67  1  0.50099250  0.74569150  0.82365600  1
  O  O68  1  0.49900750  0.25430850  0.82365600  1
  O  O69  1  0.00099250  0.25430850  0.67634400  1
  O  O70  1  0.25099250  0.99569150  0.92634400  1
  O  O71  1  0.24900750  0.99569150  0.57365600  1
  O  O72  1  0.74900750  0.50430850  0.42634400  1
  O  O73  1  0.75099250  0.50430850  0.07365600  1
  O  O74  1  0.99900750  0.24569150  0.17634400  1
  O  O75  1  0.50099250  0.24569150  0.32365600  1
  O  O76  1  0.49900750  0.75430850  0.32365600  1
  O  O77  1  0.00099250  0.75430850  0.17634400  1
  O  O78  1  0.25099250  0.49569150  0.42634400  1
  O  O79  1  0.24900750  0.49569150  0.07365600  1
