# generated using pymatgen
data_Lu3TaO7
_symmetry_space_group_name_H-M   'P 1'
_cell_length_a   7.37578000
_cell_length_b   10.34178200
_cell_length_c   7.35539700
_cell_angle_alpha   90.00000000
_cell_angle_beta   90.00000000
_cell_angle_gamma   90.00000000
_symmetry_Int_Tables_number   1
_chemical_formula_structural   Lu3TaO7
_chemical_formula_sum   'Lu12 Ta4 O28'
_cell_volume   561.06018617
_cell_formula_units_Z   4
loop_
 _symmetry_equiv_pos_site_id
 _symmetry_equiv_pos_as_xyz
  1  'x, y, z'
loop_
 _atom_site_type_symbol
 _atom_site_label
 _atom_site_symmetry_multiplicity
 _atom_site_fract_x
 _atom_site_fract_y
 _atom_site_fract_z
 _atom_site_occupancy
  Lu  Lu0  1  0.73200050  0.26616550  0.25285400  1
  Lu  Lu1  1  0.26799950  0.26616550  0.24714600  1
  Lu  Lu2  1  0.47351600  0.00000000  0.00000000  1
  Lu  Lu3  1  0.52648400  0.00000000  0.50000000  1
  Lu  Lu4  1  0.26799950  0.73383450  0.75285400  1
  Lu  Lu5  1  0.73200050  0.73383450  0.74714600  1
  Lu  Lu6  1  0.23200050  0.76616550  0.25285400  1
  Lu  Lu7  1  0.76799950  0.76616550  0.24714600  1
  Lu  Lu8  1  0.97351600  0.50000000  0.00000000  1
  Lu  Lu9  1  0.02648400  0.50000000  0.50000000  1
  Lu  Lu10  1  0.76799950  0.23383450  0.75285400  1
  Lu  Lu11  1  0.23200050  0.23383450  0.74714600  1
  Ta  Ta12  1  0.00309100  0.00000000  0.50000000  1
  Ta  Ta13  1  0.99690900  0.00000000  0.00000000  1
  Ta  Ta14  1  0.50309100  0.50000000  0.50000000  1
  Ta  Ta15  1  0.49690900  0.50000000  0.00000000  1
  O  O16  1  0.50000000  0.57375000  0.75000000  1
  O  O17  1  0.50000000  0.86029700  0.75000000  1
  O  O18  1  0.19027200  0.87107300  0.53955300  1
  O  O19  1  0.80972800  0.87107300  0.96044700  1
  O  O20  1  0.50000000  0.87068900  0.25000000  1
  O  O21  1  0.79387800  0.87585000  0.53069200  1
  O  O22  1  0.20612200  0.87585000  0.96930800  1
  O  O23  1  0.20612200  0.12415000  0.03069200  1
  O  O24  1  0.79387800  0.12415000  0.46930800  1
  O  O25  1  0.50000000  0.12931100  0.75000000  1
  O  O26  1  0.80972800  0.12892700  0.03955300  1
  O  O27  1  0.19027200  0.12892700  0.46044700  1
  O  O28  1  0.50000000  0.13970300  0.25000000  1
  O  O29  1  0.50000000  0.42625000  0.25000000  1
  O  O30  1  0.00000000  0.07375000  0.75000000  1
  O  O31  1  0.00000000  0.36029700  0.75000000  1
  O  O32  1  0.69027200  0.37107300  0.53955300  1
  O  O33  1  0.30972800  0.37107300  0.96044700  1
  O  O34  1  0.00000000  0.37068900  0.25000000  1
  O  O35  1  0.29387800  0.37585000  0.53069200  1
  O  O36  1  0.70612200  0.37585000  0.96930800  1
  O  O37  1  0.70612200  0.62415000  0.03069200  1
  O  O38  1  0.29387800  0.62415000  0.46930800  1
  O  O39  1  0.00000000  0.62931100  0.75000000  1
  O  O40  1  0.30972800  0.62892700  0.03955300  1
  O  O41  1  0.69027200  0.62892700  0.46044700  1
  O  O42  1  0.00000000  0.63970300  0.25000000  1
  O  O43  1  0.00000000  0.92625000  0.25000000  1
