# generated using pymatgen
data_BaLa2Br8
_symmetry_space_group_name_H-M   'P 1'
_cell_length_a   13.94167000
_cell_length_b   13.94167000
_cell_length_c   8.34817000
_cell_angle_alpha   90.00000000
_cell_angle_beta   90.00000000
_cell_angle_gamma   90.00000000
_symmetry_Int_Tables_number   1
_chemical_formula_structural   BaLa2Br8
_chemical_formula_sum   'Ba4 La8 Br32'
_cell_volume   1622.63515855
_cell_formula_units_Z   4
loop_
 _symmetry_equiv_pos_site_id
 _symmetry_equiv_pos_as_xyz
  1  'x, y, z'
loop_
 _atom_site_type_symbol
 _atom_site_label
 _atom_site_symmetry_multiplicity
 _atom_site_fract_x
 _atom_site_fract_y
 _atom_site_fract_z
 _atom_site_occupancy
  Ba  Ba0  1  0.00000000  0.00000000  0.00000000  1
  Ba  Ba1  1  0.50000000  0.00000000  0.75000000  1
  Ba  Ba2  1  0.50000000  0.50000000  0.50000000  1
  Ba  Ba3  1  0.00000000  0.50000000  0.25000000  1
  La  La4  1  0.36355950  0.28966650  0.05316450  1
  La  La5  1  0.78966650  0.13644050  0.44683550  1
  La  La6  1  0.21033350  0.86355950  0.44683550  1
  La  La7  1  0.63644050  0.71033350  0.05316450  1
  La  La8  1  0.86355950  0.78966650  0.55316450  1
  La  La9  1  0.28966650  0.63644050  0.94683550  1
  La  La10  1  0.71033350  0.36355950  0.94683550  1
  La  La11  1  0.13644050  0.21033350  0.55316450  1
  Br  Br12  1  0.54691200  0.35644900  0.20833400  1
  Br  Br13  1  0.52685250  0.26195250  0.80578050  1
  Br  Br14  1  0.32892350  0.25270450  0.41388250  1
  Br  Br15  1  0.75270450  0.17107650  0.08611750  1
  Br  Br16  1  0.39287200  0.08822200  0.06341100  1
  Br  Br17  1  0.58822200  0.10712800  0.43658900  1
  Br  Br18  1  0.23804750  0.02685250  0.69421950  1
  Br  Br19  1  0.14355100  0.04691200  0.29166600  1
  Br  Br20  1  0.85644900  0.95308800  0.29166600  1
  Br  Br21  1  0.76195250  0.97314750  0.69421950  1
  Br  Br22  1  0.41177800  0.89287200  0.43658900  1
  Br  Br23  1  0.60712800  0.91177800  0.06341100  1
  Br  Br24  1  0.24729550  0.82892350  0.08611750  1
  Br  Br25  1  0.67107650  0.74729550  0.41388250  1
  Br  Br26  1  0.47314750  0.73804750  0.80578050  1
  Br  Br27  1  0.45308800  0.64355100  0.20833400  1
  Br  Br28  1  0.04691200  0.85644900  0.70833400  1
  Br  Br29  1  0.02685250  0.76195250  0.30578050  1
  Br  Br30  1  0.82892350  0.75270450  0.91388250  1
  Br  Br31  1  0.25270450  0.67107650  0.58611750  1
  Br  Br32  1  0.89287200  0.58822200  0.56341100  1
  Br  Br33  1  0.08822200  0.60712800  0.93658900  1
  Br  Br34  1  0.73804750  0.52685250  0.19421950  1
  Br  Br35  1  0.64355100  0.54691200  0.79166600  1
  Br  Br36  1  0.35644900  0.45308800  0.79166600  1
  Br  Br37  1  0.26195250  0.47314750  0.19421950  1
  Br  Br38  1  0.91177800  0.39287200  0.93658900  1
  Br  Br39  1  0.10712800  0.41177800  0.56341100  1
  Br  Br40  1  0.74729550  0.32892350  0.58611750  1
  Br  Br41  1  0.17107650  0.24729550  0.91388250  1
  Br  Br42  1  0.97314750  0.23804750  0.30578050  1
  Br  Br43  1  0.95308800  0.14355100  0.70833400  1
