# generated using pymatgen
data_CsLiF2
_symmetry_space_group_name_H-M   'P 1'
_cell_length_a   6.13145600
_cell_length_b   11.94540200
_cell_length_c   8.24499213
_cell_angle_alpha   90.00000000
_cell_angle_beta   93.73765080
_cell_angle_gamma   90.00000000
_symmetry_Int_Tables_number   1
_chemical_formula_structural   CsLiF2
_chemical_formula_sum   'Cs8 Li8 F16'
_cell_volume   602.60107399
_cell_formula_units_Z   8
loop_
 _symmetry_equiv_pos_site_id
 _symmetry_equiv_pos_as_xyz
  1  'x, y, z'
loop_
 _atom_site_type_symbol
 _atom_site_label
 _atom_site_symmetry_multiplicity
 _atom_site_fract_x
 _atom_site_fract_y
 _atom_site_fract_z
 _atom_site_occupancy
  Cs  Cs0  1  0.26023750  0.59162450  0.56736600  1
  Cs  Cs1  1  0.73976250  0.59162450  0.93263400  1
  Cs  Cs2  1  0.23976250  0.90837550  0.43263400  1
  Cs  Cs3  1  0.76023750  0.90837550  0.06736600  1
  Cs  Cs4  1  0.76023750  0.09162450  0.56736600  1
  Cs  Cs5  1  0.23976250  0.09162450  0.93263400  1
  Cs  Cs6  1  0.73976250  0.40837550  0.43263400  1
  Cs  Cs7  1  0.26023750  0.40837550  0.06736600  1
  Li  Li8  1  0.25386900  0.70048800  0.13879000  1
  Li  Li9  1  0.24613100  0.79951200  0.86121000  1
  Li  Li10  1  0.75386900  0.79951200  0.63879000  1
  Li  Li11  1  0.74613100  0.70048800  0.36121000  1
  Li  Li12  1  0.75386900  0.20048800  0.13879000  1
  Li  Li13  1  0.74613100  0.29951200  0.86121000  1
  Li  Li14  1  0.25386900  0.29951200  0.63879000  1
  Li  Li15  1  0.24613100  0.20048800  0.36121000  1
  F  F16  1  0.50000000  0.63432100  0.25000000  1
  F  F17  1  0.50000000  0.82087300  0.75000000  1
  F  F18  1  0.00000000  0.86567900  0.75000000  1
  F  F19  1  0.00000000  0.67912700  0.25000000  1
  F  F20  1  0.72370500  0.85649100  0.42149200  1
  F  F21  1  0.27629500  0.85649100  0.07850800  1
  F  F22  1  0.77629500  0.64350900  0.57850800  1
  F  F23  1  0.22370500  0.64350900  0.92149200  1
  F  F24  1  0.00000000  0.13432100  0.25000000  1
  F  F25  1  0.00000000  0.32087300  0.75000000  1
  F  F26  1  0.50000000  0.36567900  0.75000000  1
  F  F27  1  0.50000000  0.17912700  0.25000000  1
  F  F28  1  0.22370500  0.35649100  0.42149200  1
  F  F29  1  0.77629500  0.35649100  0.07850800  1
  F  F30  1  0.27629500  0.14350900  0.57850800  1
  F  F31  1  0.72370500  0.14350900  0.92149200  1
