# generated using pymatgen
data_Li3Sb(PO4)2
_symmetry_space_group_name_H-M   'P 1'
_cell_length_a   8.62162800
_cell_length_b   5.71530800
_cell_length_c   6.32637949
_cell_angle_alpha   90.00000000
_cell_angle_beta   91.61386319
_cell_angle_gamma   90.00000000
_symmetry_Int_Tables_number   1
_chemical_formula_structural   Li3Sb(PO4)2
_chemical_formula_sum   'Li6 Sb2 P4 O16'
_cell_volume   311.61033518
_cell_formula_units_Z   2
loop_
 _symmetry_equiv_pos_site_id
 _symmetry_equiv_pos_as_xyz
  1  'x, y, z'
loop_
 _atom_site_type_symbol
 _atom_site_label
 _atom_site_symmetry_multiplicity
 _atom_site_fract_x
 _atom_site_fract_y
 _atom_site_fract_z
 _atom_site_occupancy
  Li  Li0  1  0.33783500  0.00000000  0.70492200  1
  Li  Li1  1  0.00000000  0.00000000  0.50000000  1
  Li  Li2  1  0.66216500  0.00000000  0.29507800  1
  Li  Li3  1  0.83783500  0.50000000  0.70492200  1
  Li  Li4  1  0.50000000  0.50000000  0.50000000  1
  Li  Li5  1  0.16216500  0.50000000  0.29507800  1
  Sb  Sb6  1  0.00000000  0.00000000  0.00000000  1
  Sb  Sb7  1  0.50000000  0.50000000  0.00000000  1
  P  P8  1  0.35246400  0.00000000  0.23962800  1
  P  P9  1  0.64753600  0.00000000  0.76037200  1
  P  P10  1  0.85246400  0.50000000  0.23962800  1
  P  P11  1  0.14753600  0.50000000  0.76037200  1
  O  O12  1  0.76289000  0.00000000  0.58124200  1
  O  O13  1  0.72930800  0.00000000  0.98085700  1
  O  O14  1  0.46602000  0.21899700  0.25755900  1
  O  O15  1  0.46602000  0.78100300  0.25755900  1
  O  O16  1  0.53398000  0.21899700  0.74244100  1
  O  O17  1  0.53398000  0.78100300  0.74244100  1
  O  O18  1  0.27069200  0.00000000  0.01914300  1
  O  O19  1  0.23711000  0.00000000  0.41875800  1
  O  O20  1  0.26289000  0.50000000  0.58124200  1
  O  O21  1  0.22930800  0.50000000  0.98085700  1
  O  O22  1  0.96602000  0.71899700  0.25755900  1
  O  O23  1  0.96602000  0.28100300  0.25755900  1
  O  O24  1  0.03398000  0.71899700  0.74244100  1
  O  O25  1  0.03398000  0.28100300  0.74244100  1
  O  O26  1  0.77069200  0.50000000  0.01914300  1
  O  O27  1  0.73711000  0.50000000  0.41875800  1
