# generated using pymatgen
data_CaMgAsO4F
_symmetry_space_group_name_H-M   'P 1'
_cell_length_a   6.80703200
_cell_length_b   9.05795200
_cell_length_c   7.20614326
_cell_angle_alpha   90.00000000
_cell_angle_beta   113.55987243
_cell_angle_gamma   90.00000000
_symmetry_Int_Tables_number   1
_chemical_formula_structural   CaMgAsO4F
_chemical_formula_sum   'Ca4 Mg4 As4 O16 F4'
_cell_volume   407.27792760
_cell_formula_units_Z   4
loop_
 _symmetry_equiv_pos_site_id
 _symmetry_equiv_pos_as_xyz
  1  'x, y, z'
loop_
 _atom_site_type_symbol
 _atom_site_label
 _atom_site_symmetry_multiplicity
 _atom_site_fract_x
 _atom_site_fract_y
 _atom_site_fract_z
 _atom_site_occupancy
  Ca  Ca0  1  0.50000000  0.83173800  0.75000000  1
  Ca  Ca1  1  0.50000000  0.16826200  0.25000000  1
  Ca  Ca2  1  0.00000000  0.33173800  0.75000000  1
  Ca  Ca3  1  0.00000000  0.66826200  0.25000000  1
  Mg  Mg4  1  0.00000000  0.00000000  0.00000000  1
  Mg  Mg5  1  0.00000000  0.00000000  0.50000000  1
  Mg  Mg6  1  0.50000000  0.50000000  0.00000000  1
  Mg  Mg7  1  0.50000000  0.50000000  0.50000000  1
  As  As8  1  0.50000000  0.17819500  0.75000000  1
  As  As9  1  0.50000000  0.82180500  0.25000000  1
  As  As10  1  0.00000000  0.67819500  0.75000000  1
  As  As11  1  0.00000000  0.32180500  0.25000000  1
  O  O12  1  0.67929200  0.05983600  0.92171600  1
  O  O13  1  0.32070800  0.05983600  0.57828400  1
  O  O14  1  0.61301750  0.71505850  0.11965200  1
  O  O15  1  0.38698250  0.71505850  0.38034800  1
  O  O16  1  0.38698250  0.28494150  0.88034800  1
  O  O17  1  0.61301750  0.28494150  0.61965200  1
  O  O18  1  0.32070800  0.94016400  0.07828400  1
  O  O19  1  0.67929200  0.94016400  0.42171600  1
  O  O20  1  0.17929200  0.55983600  0.92171600  1
  O  O21  1  0.82070800  0.55983600  0.57828400  1
  O  O22  1  0.11301750  0.21505850  0.11965200  1
  O  O23  1  0.88698250  0.21505850  0.38034800  1
  O  O24  1  0.88698250  0.78494150  0.88034800  1
  O  O25  1  0.11301750  0.78494150  0.61965200  1
  O  O26  1  0.82070800  0.44016400  0.07828400  1
  O  O27  1  0.17929200  0.44016400  0.42171600  1
  F  F28  1  0.50000000  0.58171100  0.75000000  1
  F  F29  1  0.50000000  0.41828900  0.25000000  1
  F  F30  1  0.00000000  0.08171100  0.75000000  1
  F  F31  1  0.00000000  0.91828900  0.25000000  1
