# generated using pymatgen
data_Li4Ti3Co3(SnO8)2
_symmetry_space_group_name_H-M   'P 1'
_cell_length_a   10.08252600
_cell_length_b   5.93078800
_cell_length_c   9.75275528
_cell_angle_alpha   90.00000000
_cell_angle_beta   90.10785607
_cell_angle_gamma   90.00000000
_symmetry_Int_Tables_number   1
_chemical_formula_structural   Li4Ti3Co3(SnO8)2
_chemical_formula_sum   'Li8 Ti6 Co6 Sn4 O32'
_cell_volume   583.18763613
_cell_formula_units_Z   2
loop_
 _symmetry_equiv_pos_site_id
 _symmetry_equiv_pos_as_xyz
  1  'x, y, z'
loop_
 _atom_site_type_symbol
 _atom_site_label
 _atom_site_symmetry_multiplicity
 _atom_site_fract_x
 _atom_site_fract_y
 _atom_site_fract_z
 _atom_site_occupancy
  Li  Li0  1  0.33130400  0.00000000  0.10900400  1
  Li  Li1  1  0.00893800  0.00000000  0.00730300  1
  Li  Li2  1  0.00398900  0.00000000  0.50704400  1
  Li  Li3  1  0.66656100  0.00000000  0.59881000  1
  Li  Li4  1  0.83130400  0.50000000  0.10900400  1
  Li  Li5  1  0.50893800  0.50000000  0.00730300  1
  Li  Li6  1  0.50398900  0.50000000  0.50704400  1
  Li  Li7  1  0.16656100  0.50000000  0.59881000  1
  Ti  Ti8  1  0.83075000  0.00000000  0.28505900  1
  Ti  Ti9  1  0.41289200  0.24593600  0.78438800  1
  Ti  Ti10  1  0.41289200  0.75406400  0.78438800  1
  Ti  Ti11  1  0.33075000  0.50000000  0.28505900  1
  Ti  Ti12  1  0.91289200  0.74593600  0.78438800  1
  Ti  Ti13  1  0.91289200  0.25406400  0.78438800  1
  Co  Co14  1  0.17449200  0.00000000  0.78795800  1
  Co  Co15  1  0.58611200  0.24461000  0.28594800  1
  Co  Co16  1  0.58611200  0.75539000  0.28594800  1
  Co  Co17  1  0.67449200  0.50000000  0.78795800  1
  Co  Co18  1  0.08611200  0.74461000  0.28594800  1
  Co  Co19  1  0.08611200  0.25539000  0.28594800  1
  Sn  Sn20  1  0.33266600  0.00000000  0.50383500  1
  Sn  Sn21  1  0.65838800  0.00000000  0.01382500  1
  Sn  Sn22  1  0.83266600  0.50000000  0.50383500  1
  Sn  Sn23  1  0.15838800  0.50000000  0.01382500  1
  O  O24  1  0.42182200  0.26051200  0.39621500  1
  O  O25  1  0.48541800  0.00000000  0.66577400  1
  O  O26  1  0.34012600  0.00000000  0.89587700  1
  O  O27  1  0.00310800  0.00000000  0.69511100  1
  O  O28  1  0.00331700  0.00000000  0.19340900  1
  O  O29  1  0.42182200  0.73948800  0.39621500  1
  O  O30  1  0.26852350  0.23562750  0.65224700  1
  O  O31  1  0.26852350  0.76437250  0.65224700  1
  O  O32  1  0.83381100  0.00000000  0.89756900  1
  O  O33  1  0.15789800  0.00000000  0.39426200  1
  O  O34  1  0.74071200  0.22357600  0.16464300  1
  O  O35  1  0.74071200  0.77642400  0.16464300  1
  O  O36  1  0.66609200  0.00000000  0.39043500  1
  O  O37  1  0.57328500  0.24964700  0.90201000  1
  O  O38  1  0.51578900  0.00000000  0.17499600  1
  O  O39  1  0.57328500  0.75035300  0.90201000  1
  O  O40  1  0.92182200  0.76051200  0.39621500  1
  O  O41  1  0.98541800  0.50000000  0.66577400  1
  O  O42  1  0.84012600  0.50000000  0.89587700  1
  O  O43  1  0.50310800  0.50000000  0.69511100  1
  O  O44  1  0.50331700  0.50000000  0.19340900  1
  O  O45  1  0.92182200  0.23948800  0.39621500  1
  O  O46  1  0.76852350  0.73562750  0.65224700  1
  O  O47  1  0.76852350  0.26437250  0.65224700  1
  O  O48  1  0.33381100  0.50000000  0.89756900  1
  O  O49  1  0.65789800  0.50000000  0.39426200  1
  O  O50  1  0.24071200  0.72357600  0.16464300  1
  O  O51  1  0.24071200  0.27642400  0.16464300  1
  O  O52  1  0.16609200  0.50000000  0.39043500  1
  O  O53  1  0.07328500  0.74964700  0.90201000  1
  O  O54  1  0.01578900  0.50000000  0.17499600  1
  O  O55  1  0.07328500  0.25035300  0.90201000  1
