# generated using pymatgen
data_LiMnAlO4
_symmetry_space_group_name_H-M   'P 1'
_cell_length_a   5.74844000
_cell_length_b   5.74844000
_cell_length_c   8.05224200
_cell_angle_alpha   90.00000000
_cell_angle_beta   90.00000000
_cell_angle_gamma   90.00000000
_symmetry_Int_Tables_number   1
_chemical_formula_structural   LiMnAlO4
_chemical_formula_sum   'Li4 Mn4 Al4 O16'
_cell_volume   266.08281350
_cell_formula_units_Z   4
loop_
 _symmetry_equiv_pos_site_id
 _symmetry_equiv_pos_as_xyz
  1  'x, y, z'
loop_
 _atom_site_type_symbol
 _atom_site_label
 _atom_site_symmetry_multiplicity
 _atom_site_fract_x
 _atom_site_fract_y
 _atom_site_fract_z
 _atom_site_occupancy
  Li  Li0  1  0.00000000  0.22751300  0.00000000  1
  Li  Li1  1  0.00000000  0.77248700  0.50000000  1
  Li  Li2  1  0.22751300  0.00000000  0.25000000  1
  Li  Li3  1  0.77248700  0.00000000  0.75000000  1
  Mn  Mn4  1  0.23378700  0.50000000  0.25000000  1
  Mn  Mn5  1  0.50000000  0.23378700  0.00000000  1
  Mn  Mn6  1  0.50000000  0.76621300  0.50000000  1
  Mn  Mn7  1  0.76621300  0.50000000  0.75000000  1
  Al  Al8  1  0.25620350  0.25620350  0.62500000  1
  Al  Al9  1  0.25620350  0.74379650  0.87500000  1
  Al  Al10  1  0.74379650  0.25620350  0.37500000  1
  Al  Al11  1  0.74379650  0.74379650  0.12500000  1
  O  O12  1  0.00733400  0.26762900  0.25997300  1
  O  O13  1  0.00733400  0.73237100  0.24002700  1
  O  O14  1  0.26762900  0.00733400  0.99002700  1
  O  O15  1  0.26762900  0.99266600  0.50997300  1
  O  O16  1  0.26392000  0.48848700  0.01046500  1
  O  O17  1  0.26392000  0.51151300  0.48953500  1
  O  O18  1  0.48848700  0.26392000  0.23953500  1
  O  O19  1  0.48848700  0.73608000  0.26046500  1
  O  O20  1  0.51151300  0.26392000  0.76046500  1
  O  O21  1  0.51151300  0.73608000  0.73953500  1
  O  O22  1  0.73608000  0.51151300  0.51046500  1
  O  O23  1  0.73608000  0.48848700  0.98953500  1
  O  O24  1  0.73237100  0.99266600  0.49002700  1
  O  O25  1  0.73237100  0.00733400  0.00997300  1
  O  O26  1  0.99266600  0.26762900  0.74002700  1
  O  O27  1  0.99266600  0.73237100  0.75997300  1
