# generated using pymatgen
data_Li2NiO2F
_symmetry_space_group_name_H-M   'P 1'
_cell_length_a   8.17007563
_cell_length_b   5.83766787
_cell_length_c   9.54962866
_cell_angle_alpha   90.00000000
_cell_angle_beta   114.51264014
_cell_angle_gamma   90.00000000
_symmetry_Int_Tables_number   1
_chemical_formula_structural   Li2NiO2F
_chemical_formula_sum   'Li16 Ni8 O16 F8'
_cell_volume   414.41090609
_cell_formula_units_Z   8
loop_
 _symmetry_equiv_pos_site_id
 _symmetry_equiv_pos_as_xyz
  1  'x, y, z'
loop_
 _atom_site_type_symbol
 _atom_site_label
 _atom_site_symmetry_multiplicity
 _atom_site_fract_x
 _atom_site_fract_y
 _atom_site_fract_z
 _atom_site_occupancy
  Li  Li0  1  0.11512450  0.37585550  0.99466500  1
  Li  Li1  1  0.78484950  0.62166450  0.83206600  1
  Li  Li2  1  0.46580900  0.88187800  0.66973800  1
  Li  Li3  1  0.62925550  0.64295250  0.49544600  1
  Li  Li4  1  0.61512450  0.12414450  0.49466500  1
  Li  Li5  1  0.28484950  0.87833550  0.33206600  1
  Li  Li6  1  0.46580900  0.11812200  0.16973800  1
  Li  Li7  1  0.12925550  0.85704750  0.99544600  1
  Li  Li8  1  0.61512450  0.87585550  0.99466500  1
  Li  Li9  1  0.28484950  0.12166450  0.83206600  1
  Li  Li10  1  0.96580900  0.38187800  0.66973800  1
  Li  Li11  1  0.12925550  0.14295250  0.49544600  1
  Li  Li12  1  0.11512450  0.62414450  0.49466500  1
  Li  Li13  1  0.78484950  0.37833550  0.33206600  1
  Li  Li14  1  0.96580900  0.61812200  0.16973800  1
  Li  Li15  1  0.62925550  0.35704750  0.99544600  1
  Ni  Ni16  1  0.79269600  0.11460600  0.83431800  1
  Ni  Ni17  1  0.95297850  0.87244050  0.67228100  1
  Ni  Ni18  1  0.79269600  0.88539400  0.33431800  1
  Ni  Ni19  1  0.45297850  0.62755950  0.17228100  1
  Ni  Ni20  1  0.29269600  0.61460600  0.83431800  1
  Ni  Ni21  1  0.45297850  0.37244050  0.67228100  1
  Ni  Ni22  1  0.29269600  0.38539400  0.33431800  1
  Ni  Ni23  1  0.95297850  0.12755950  0.17228100  1
  O  O24  1  0.52028850  0.59999150  0.82443200  1
  O  O25  1  0.05911150  0.62248050  0.82588300  1
  O  O26  1  0.72096600  0.89703200  0.67449200  1
  O  O27  1  0.87692350  0.67322150  0.50042000  1
  O  O28  1  0.55911150  0.87751950  0.32588300  1
  O  O29  1  0.52028850  0.40000850  0.32443200  1
  O  O30  1  0.72096600  0.10296800  0.17449200  1
  O  O31  1  0.37692350  0.82677850  0.00042000  1
  O  O32  1  0.02028850  0.09999150  0.82443200  1
  O  O33  1  0.55911150  0.12248050  0.82588300  1
  O  O34  1  0.22096600  0.39703200  0.67449200  1
  O  O35  1  0.37692350  0.17322150  0.50042000  1
  O  O36  1  0.05911150  0.37751950  0.32588300  1
  O  O37  1  0.02028850  0.90000850  0.32443200  1
  O  O38  1  0.22096600  0.60296800  0.17449200  1
  O  O39  1  0.87692350  0.32677850  0.00042000  1
  F  F40  1  0.70456600  0.39574500  0.66492100  1
  F  F41  1  0.37350500  0.65718500  0.50110700  1
  F  F42  1  0.20456600  0.10425500  0.16492100  1
  F  F43  1  0.37350500  0.34281500  0.00110700  1
  F  F44  1  0.20456600  0.89574500  0.66492100  1
  F  F45  1  0.87350500  0.15718500  0.50110700  1
  F  F46  1  0.70456600  0.60425500  0.16492100  1
  F  F47  1  0.87350500  0.84281500  0.00110700  1
