# generated using pymatgen
data_Sm2Zr2O7
_symmetry_space_group_name_H-M   'P 1'
_cell_length_a   7.98392100
_cell_length_b   5.63867400
_cell_length_c   13.92435714
_cell_angle_alpha   90.00000000
_cell_angle_beta   98.44164931
_cell_angle_gamma   90.00000000
_symmetry_Int_Tables_number   1
_chemical_formula_structural   Sm2Zr2O7
_chemical_formula_sum   'Sm8 Zr8 O28'
_cell_volume   620.06540179
_cell_formula_units_Z   4
loop_
 _symmetry_equiv_pos_site_id
 _symmetry_equiv_pos_as_xyz
  1  'x, y, z'
loop_
 _atom_site_type_symbol
 _atom_site_label
 _atom_site_symmetry_multiplicity
 _atom_site_fract_x
 _atom_site_fract_y
 _atom_site_fract_z
 _atom_site_occupancy
  Sm  Sm0  1  0.86103400  0.16635500  0.43819600  1
  Sm  Sm1  1  0.76547700  0.72507600  0.07750200  1
  Sm  Sm2  1  0.71478600  0.25443400  0.86936000  1
  Sm  Sm3  1  0.64168100  0.74012900  0.60352600  1
  Sm  Sm4  1  0.35831900  0.24012900  0.39647400  1
  Sm  Sm5  1  0.28521400  0.75443400  0.13064000  1
  Sm  Sm6  1  0.23452300  0.22507600  0.92249800  1
  Sm  Sm7  1  0.13896600  0.66635500  0.56180400  1
  Zr  Zr8  1  0.92538600  0.23297200  0.68094900  1
  Zr  Zr9  1  0.97134400  0.73658600  0.88185800  1
  Zr  Zr10  1  0.58827400  0.72183000  0.32538600  1
  Zr  Zr11  1  0.53051600  0.23514100  0.12322400  1
  Zr  Zr12  1  0.46948400  0.73514100  0.87677600  1
  Zr  Zr13  1  0.41172600  0.22183000  0.67461400  1
  Zr  Zr14  1  0.02865600  0.23658600  0.11814200  1
  Zr  Zr15  1  0.07461400  0.73297200  0.31905100  1
  O  O16  1  0.92021500  0.94941500  0.58538800  1
  O  O17  1  0.99533600  0.07404400  0.82450300  1
  O  O18  1  0.82818900  0.85192500  0.31707800  1
  O  O19  1  0.77761100  0.13174600  0.11330500  1
  O  O20  1  0.85660900  0.45360100  0.56667100  1
  O  O21  1  0.93210700  0.45451500  0.97952100  1
  O  O22  1  0.86478500  0.53280900  0.77083900  1
  O  O23  1  0.63134700  0.39786000  0.38055500  1
  O  O24  1  0.57871500  0.57821600  0.17427300  1
  O  O25  1  0.72837300  0.85428900  0.91502900  1
  O  O26  1  0.67568800  0.10700600  0.70009300  1
  O  O27  1  0.58472600  0.92495900  0.44964900  1
  O  O28  1  0.44426100  0.95787200  0.02184500  1
  O  O29  1  0.47805100  0.02673300  0.23209000  1
  O  O30  1  0.52194900  0.52673300  0.76791000  1
  O  O31  1  0.55573900  0.45787200  0.97815500  1
  O  O32  1  0.41527400  0.42495900  0.55035100  1
  O  O33  1  0.32431200  0.60700600  0.29990700  1
  O  O34  1  0.27162700  0.35428900  0.08497100  1
  O  O35  1  0.42128500  0.07821600  0.82572700  1
  O  O36  1  0.36865300  0.89786000  0.61944500  1
  O  O37  1  0.13521500  0.03280900  0.22916100  1
  O  O38  1  0.06789300  0.95451500  0.02047900  1
  O  O39  1  0.14339100  0.95360100  0.43332900  1
  O  O40  1  0.22238900  0.63174600  0.88669500  1
  O  O41  1  0.17181100  0.35192500  0.68292200  1
  O  O42  1  0.00466400  0.57404400  0.17549700  1
  O  O43  1  0.07978500  0.44941500  0.41461200  1
