# generated using pymatgen
data_Li10Cr(SiO5)2
_symmetry_space_group_name_H-M   'P 1'
_cell_length_a   30.08432270
_cell_length_b   6.13186919
_cell_length_c   5.16146571
_cell_angle_alpha   90.00000000
_cell_angle_beta   99.29824107
_cell_angle_gamma   90.00000000
_symmetry_Int_Tables_number   1
_chemical_formula_structural   Li10Cr(SiO5)2
_chemical_formula_sum   'Li40 Cr4 Si8 O40'
_cell_volume   939.64111299
_cell_formula_units_Z   4
loop_
 _symmetry_equiv_pos_site_id
 _symmetry_equiv_pos_as_xyz
  1  'x, y, z'
loop_
 _atom_site_type_symbol
 _atom_site_label
 _atom_site_symmetry_multiplicity
 _atom_site_fract_x
 _atom_site_fract_y
 _atom_site_fract_z
 _atom_site_occupancy
  Li  Li0  1  0.48936314  0.00000000  0.23635616  1
  Li  Li1  1  0.43294427  0.78727649  0.60220682  1
  Li  Li2  1  0.43294427  0.21272351  0.60220682  1
  Li  Li3  1  0.36718253  0.50000000  0.71510656  1
  Li  Li4  1  0.36803443  0.71666675  0.26093803  1
  Li  Li5  1  0.36803443  0.28333325  0.26093803  1
  Li  Li6  1  0.32384110  0.00000000  0.56333949  1
  Li  Li7  1  0.30406716  0.74489035  0.89553404  1
  Li  Li8  1  0.30406716  0.25510965  0.89553404  1
  Li  Li9  1  0.26901264  0.00000000  0.16984428  1
  Li  Li10  1  0.23098736  0.50000000  0.83015572  1
  Li  Li11  1  0.19593284  0.75510965  0.10446596  1
  Li  Li12  1  0.19593284  0.24489035  0.10446596  1
  Li  Li13  1  0.17316891  0.50000000  0.42378984  1
  Li  Li14  1  0.13196557  0.21666675  0.73906197  1
  Li  Li15  1  0.13196557  0.78333325  0.73906197  1
  Li  Li16  1  0.13281747  0.00000000  0.28489344  1
  Li  Li17  1  0.06705573  0.71272351  0.39779318  1
  Li  Li18  1  0.06705573  0.28727649  0.39779318  1
  Li  Li19  1  0.01063686  0.50000000  0.76364384  1
  Li  Li20  1  0.98936314  0.50000000  0.23635616  1
  Li  Li21  1  0.93294427  0.28727649  0.60220682  1
  Li  Li22  1  0.93294427  0.71272351  0.60220682  1
  Li  Li23  1  0.86718253  0.00000000  0.71510656  1
  Li  Li24  1  0.86803443  0.21666675  0.26093803  1
  Li  Li25  1  0.86803443  0.78333325  0.26093803  1
  Li  Li26  1  0.82384110  0.50000000  0.56333949  1
  Li  Li27  1  0.80406716  0.24489035  0.89553404  1
  Li  Li28  1  0.80406716  0.75510965  0.89553404  1
  Li  Li29  1  0.76901264  0.50000000  0.16984428  1
  Li  Li30  1  0.73098736  0.00000000  0.83015572  1
  Li  Li31  1  0.69593284  0.25510965  0.10446596  1
  Li  Li32  1  0.69593284  0.74489035  0.10446596  1
  Li  Li33  1  0.67316891  0.00000000  0.42378984  1
  Li  Li34  1  0.63196557  0.71666675  0.73906197  1
  Li  Li35  1  0.63196557  0.28333325  0.73906197  1
  Li  Li36  1  0.63281747  0.50000000  0.28489344  1
  Li  Li37  1  0.56705573  0.21272351  0.39779318  1
  Li  Li38  1  0.56705573  0.78727649  0.39779318  1
  Li  Li39  1  0.51063686  0.00000000  0.76364384  1
  Cr  Cr40  1  0.46357183  0.50000000  0.29682696  1
  Cr  Cr41  1  0.03642817  0.00000000  0.70317304  1
  Cr  Cr42  1  0.96357183  0.00000000  0.29682696  1
  Cr  Cr43  1  0.53642817  0.50000000  0.70317304  1
  Si  Si44  1  0.39858138  0.00000000  0.98821427  1
  Si  Si45  1  0.28003730  0.50000000  0.36595581  1
  Si  Si46  1  0.21996270  0.00000000  0.63404419  1
  Si  Si47  1  0.10141862  0.50000000  0.01178573  1
  Si  Si48  1  0.89858138  0.50000000  0.98821427  1
  Si  Si49  1  0.78003730  0.00000000  0.36595581  1
  Si  Si50  1  0.71996270  0.50000000  0.63404419  1
  Si  Si51  1  0.60141862  0.00000000  0.01178573  1
  O  O52  1  0.44857067  0.00000000  0.89401259  1
  O  O53  1  0.40688711  0.50000000  0.44452073  1
  O  O54  1  0.40362447  0.00000000  0.31297799  1
  O  O55  1  0.37007139  0.78273580  0.87339654  1
  O  O56  1  0.37007139  0.21726420  0.87339654  1
  O  O57  1  0.30564804  0.27835480  0.27824724  1
  O  O58  1  0.30564804  0.72164520  0.27824724  1
  O  O59  1  0.28517989  0.50000000  0.68745127  1
  O  O60  1  0.27058514  0.00000000  0.77565966  1
  O  O61  1  0.22941486  0.50000000  0.22434034  1
  O  O62  1  0.21482011  0.00000000  0.31254873  1
  O  O63  1  0.19435196  0.22164520  0.72175276  1
  O  O64  1  0.19435196  0.77835480  0.72175276  1
  O  O65  1  0.12992861  0.28273580  0.12660346  1
  O  O66  1  0.12992861  0.71726420  0.12660346  1
  O  O67  1  0.09637553  0.50000000  0.68702201  1
  O  O68  1  0.09311289  0.00000000  0.55547927  1
  O  O69  1  0.05142933  0.50000000  0.10598741  1
  O  O70  1  0.50000000  0.75061236  0.50000000  1
  O  O71  1  0.00000000  0.74938764  0.50000000  1
  O  O72  1  0.94857067  0.50000000  0.89401259  1
  O  O73  1  0.90688711  0.00000000  0.44452073  1
  O  O74  1  0.90362447  0.50000000  0.31297799  1
  O  O75  1  0.87007139  0.28273580  0.87339654  1
  O  O76  1  0.87007139  0.71726420  0.87339654  1
  O  O77  1  0.80564803  0.77835480  0.27824724  1
  O  O78  1  0.80564803  0.22164520  0.27824724  1
  O  O79  1  0.78517989  0.00000000  0.68745127  1
  O  O80  1  0.77058514  0.50000000  0.77565966  1
  O  O81  1  0.72941486  0.00000000  0.22434034  1
  O  O82  1  0.71482011  0.50000000  0.31254873  1
  O  O83  1  0.69435197  0.72164520  0.72175276  1
  O  O84  1  0.69435197  0.27835480  0.72175276  1
  O  O85  1  0.62992861  0.78273580  0.12660346  1
  O  O86  1  0.62992861  0.21726420  0.12660346  1
  O  O87  1  0.59637553  0.00000000  0.68702201  1
  O  O88  1  0.59311289  0.50000000  0.55547927  1
  O  O89  1  0.55142933  0.00000000  0.10598741  1
  O  O90  1  0.00000000  0.25061236  0.50000000  1
  O  O91  1  0.50000000  0.24938764  0.50000000  1
