# generated using pymatgen
data_GeWO4
_symmetry_space_group_name_H-M   'P 1'
_cell_length_a   5.05512900
_cell_length_b   5.58492100
_cell_length_c   11.70342700
_cell_angle_alpha   90.00000000
_cell_angle_beta   90.00000000
_cell_angle_gamma   90.00000000
_symmetry_Int_Tables_number   1
_chemical_formula_structural   GeWO4
_chemical_formula_sum   'Ge4 W4 O16'
_cell_volume   330.41695725
_cell_formula_units_Z   4
loop_
 _symmetry_equiv_pos_site_id
 _symmetry_equiv_pos_as_xyz
  1  'x, y, z'
loop_
 _atom_site_type_symbol
 _atom_site_label
 _atom_site_symmetry_multiplicity
 _atom_site_fract_x
 _atom_site_fract_y
 _atom_site_fract_z
 _atom_site_occupancy
  Ge  Ge0  1  0.17043100  0.25000000  0.00000000  1
  Ge  Ge1  1  0.32956900  0.25000000  0.50000000  1
  Ge  Ge2  1  0.82956900  0.75000000  0.00000000  1
  Ge  Ge3  1  0.67043100  0.75000000  0.50000000  1
  W  W4  1  0.75000000  0.14112700  0.25000000  1
  W  W5  1  0.75000000  0.35887300  0.75000000  1
  W  W6  1  0.25000000  0.64112700  0.25000000  1
  W  W7  1  0.25000000  0.85887300  0.75000000  1
  O  O8  1  0.89986400  0.10108500  0.09850400  1
  O  O9  1  0.60013600  0.10108500  0.40149600  1
  O  O10  1  0.49906900  0.12963500  0.79620200  1
  O  O11  1  0.00093100  0.12963500  0.70379800  1
  O  O12  1  0.49906900  0.37036500  0.20379800  1
  O  O13  1  0.00093100  0.37036500  0.29620200  1
  O  O14  1  0.60013600  0.39891500  0.59850400  1
  O  O15  1  0.89986400  0.39891500  0.90149600  1
  O  O16  1  0.10013600  0.60108500  0.09850400  1
  O  O17  1  0.39986400  0.60108500  0.40149600  1
  O  O18  1  0.99906900  0.62963500  0.70379800  1
  O  O19  1  0.50093100  0.62963500  0.79620200  1
  O  O20  1  0.50093100  0.87036500  0.20379800  1
  O  O21  1  0.99906900  0.87036500  0.29620200  1
  O  O22  1  0.39986400  0.89891500  0.59850400  1
  O  O23  1  0.10013600  0.89891500  0.90149600  1
