# generated using pymatgen
data_LiFe2OF5
_symmetry_space_group_name_H-M   'P 1'
_cell_length_a   6.69671600
_cell_length_b   6.69678800
_cell_length_c   18.44756911
_cell_angle_alpha   90.00000000
_cell_angle_beta   90.08459155
_cell_angle_gamma   90.00000000
_symmetry_Int_Tables_number   1
_chemical_formula_structural   LiFe2OF5
_chemical_formula_sum   'Li8 Fe16 O8 F40'
_cell_volume   827.30777283
_cell_formula_units_Z   8
loop_
 _symmetry_equiv_pos_site_id
 _symmetry_equiv_pos_as_xyz
  1  'x, y, z'
loop_
 _atom_site_type_symbol
 _atom_site_label
 _atom_site_symmetry_multiplicity
 _atom_site_fract_x
 _atom_site_fract_y
 _atom_site_fract_z
 _atom_site_occupancy
  Li  Li0  1  0.99562050  0.99595950  0.99825800  1
  Li  Li1  1  0.99562050  0.00404050  0.49825800  1
  Li  Li2  1  0.49610100  0.99588300  0.24821900  1
  Li  Li3  1  0.49610100  0.00411700  0.74821900  1
  Li  Li4  1  0.49562050  0.49595950  0.99825800  1
  Li  Li5  1  0.49562050  0.50404050  0.49825800  1
  Li  Li6  1  0.99610100  0.49588300  0.24821900  1
  Li  Li7  1  0.99610100  0.50411700  0.74821900  1
  Fe  Fe8  1  0.50105900  0.52205000  0.16634600  1
  Fe  Fe9  1  0.98819600  0.99801800  0.33888100  1
  Fe  Fe10  1  0.50105900  0.47795000  0.66634600  1
  Fe  Fe11  1  0.98819600  0.00198200  0.83888100  1
  Fe  Fe12  1  0.49961450  0.01169550  0.58888200  1
  Fe  Fe13  1  0.49961450  0.98830450  0.08888200  1
  Fe  Fe14  1  0.52203800  0.99837800  0.41631500  1
  Fe  Fe15  1  0.52203800  0.00162200  0.91631500  1
  Fe  Fe16  1  0.00105900  0.02205000  0.16634600  1
  Fe  Fe17  1  0.48819600  0.49801800  0.33888100  1
  Fe  Fe18  1  0.00105900  0.97795000  0.66634600  1
  Fe  Fe19  1  0.48819600  0.50198200  0.83888100  1
  Fe  Fe20  1  0.99961450  0.51169550  0.58888200  1
  Fe  Fe21  1  0.99961450  0.48830450  0.08888200  1
  Fe  Fe22  1  0.02203800  0.49837800  0.41631500  1
  Fe  Fe23  1  0.02203800  0.50162200  0.91631500  1
  O  O24  1  0.80011150  0.00016650  0.41316000  1
  O  O25  1  0.80011150  0.99983350  0.91316000  1
  O  O26  1  0.49873450  0.19985750  0.66317100  1
  O  O27  1  0.49873450  0.80014250  0.16317100  1
  O  O28  1  0.30011150  0.50016650  0.41316000  1
  O  O29  1  0.30011150  0.49983350  0.91316000  1
  O  O30  1  0.99873450  0.69985750  0.66317100  1
  O  O31  1  0.99873450  0.30014250  0.16317100  1
  F  F32  1  0.80033550  0.99940950  0.08455900  1
  F  F33  1  0.80033550  0.00059050  0.58455900  1
  F  F34  1  0.80821500  0.99832000  0.25042500  1
  F  F35  1  0.80821500  0.00168000  0.75042500  1
  F  F36  1  0.49879050  0.18570050  0.00205100  1
  F  F37  1  0.49877900  0.19163400  0.50040400  1
  F  F38  1  0.49909100  0.21020600  0.16249000  1
  F  F39  1  0.49957850  0.20053050  0.83443500  1
  F  F40  1  0.49950200  0.19757200  0.33398200  1
  F  F41  1  0.49957850  0.79946950  0.33443500  1
  F  F42  1  0.49950200  0.80242800  0.83398200  1
  F  F43  1  0.49909100  0.78979400  0.66249000  1
  F  F44  1  0.49877900  0.80836600  0.00040400  1
  F  F45  1  0.49879050  0.81429950  0.50205100  1
  F  F46  1  0.18558300  0.99845800  0.25204300  1
  F  F47  1  0.18558300  0.00154200  0.75204300  1
  F  F48  1  0.19836350  0.99985250  0.08388400  1
  F  F49  1  0.21028750  0.00024250  0.41249600  1
  F  F50  1  0.19836350  0.00014750  0.58388400  1
  F  F51  1  0.21028750  0.99975750  0.91249600  1
  F  F52  1  0.30033550  0.49940950  0.08455900  1
  F  F53  1  0.30033550  0.50059050  0.58455900  1
  F  F54  1  0.30821500  0.49832000  0.25042500  1
  F  F55  1  0.30821500  0.50168000  0.75042500  1
  F  F56  1  0.99879050  0.68570050  0.00205100  1
  F  F57  1  0.99877900  0.69163400  0.50040400  1
  F  F58  1  0.99909100  0.71020600  0.16249000  1
  F  F59  1  0.99957850  0.70053050  0.83443500  1
  F  F60  1  0.99950200  0.69757200  0.33398200  1
  F  F61  1  0.99957850  0.29946950  0.33443500  1
  F  F62  1  0.99950200  0.30242800  0.83398200  1
  F  F63  1  0.99909100  0.28979400  0.66249000  1
  F  F64  1  0.99877900  0.30836600  0.00040400  1
  F  F65  1  0.99879050  0.31429950  0.50205100  1
  F  F66  1  0.68558300  0.49845800  0.25204300  1
  F  F67  1  0.68558300  0.50154200  0.75204300  1
  F  F68  1  0.69836350  0.49985250  0.08388400  1
  F  F69  1  0.71028750  0.50024250  0.41249600  1
  F  F70  1  0.69836350  0.50014750  0.58388400  1
  F  F71  1  0.71028750  0.49975750  0.91249600  1
