# generated using pymatgen
data_UH12(NO7)2
_symmetry_space_group_name_H-M   'P 1'
_cell_length_a   8.17897200
_cell_length_b   13.11158800
_cell_length_c   11.25616200
_cell_angle_alpha   90.00000000
_cell_angle_beta   90.00000000
_cell_angle_gamma   90.00000000
_symmetry_Int_Tables_number   1
_chemical_formula_structural   UH12(NO7)2
_chemical_formula_sum   'U4 H48 N8 O56'
_cell_volume   1207.10305882
_cell_formula_units_Z   4
loop_
 _symmetry_equiv_pos_site_id
 _symmetry_equiv_pos_as_xyz
  1  'x, y, z'
loop_
 _atom_site_type_symbol
 _atom_site_label
 _atom_site_symmetry_multiplicity
 _atom_site_fract_x
 _atom_site_fract_y
 _atom_site_fract_z
 _atom_site_occupancy
  U  U0  1  0.12962300  0.00000000  0.24800400  1
  U  U1  1  0.87037700  0.00000000  0.74800400  1
  U  U2  1  0.62962300  0.50000000  0.24800400  1
  U  U3  1  0.37037700  0.50000000  0.74800400  1
  H  H4  1  0.32903600  0.27496400  0.67268600  1
  H  H5  1  0.67096400  0.27496400  0.17268600  1
  H  H6  1  0.58103700  0.27073400  0.30332300  1
  H  H7  1  0.41896300  0.27073400  0.80332300  1
  H  H8  1  0.41701050  0.23521350  0.98995400  1
  H  H9  1  0.58298950  0.23521350  0.48995400  1
  H  H10  1  0.33338700  0.20221200  0.49925800  1
  H  H11  1  0.66661300  0.20221200  0.99925800  1
  H  H12  1  0.56089900  0.13171900  0.42255400  1
  H  H13  1  0.43910100  0.13171900  0.92255400  1
  H  H14  1  0.76066850  0.13683950  0.09204000  1
  H  H15  1  0.23933150  0.13683950  0.59204000  1
  H  H16  1  0.23933150  0.86316050  0.59204000  1
  H  H17  1  0.76066850  0.86316050  0.09204000  1
  H  H18  1  0.56089900  0.86828100  0.42255400  1
  H  H19  1  0.43910100  0.86828100  0.92255400  1
  H  H20  1  0.33338700  0.79778800  0.49925800  1
  H  H21  1  0.66661300  0.79778800  0.99925800  1
  H  H22  1  0.41701050  0.76478650  0.98995400  1
  H  H23  1  0.58298950  0.76478650  0.48995400  1
  H  H24  1  0.41896300  0.72926600  0.80332300  1
  H  H25  1  0.58103700  0.72926600  0.30332300  1
  H  H26  1  0.67096400  0.72503600  0.17268600  1
  H  H27  1  0.32903600  0.72503600  0.67268600  1
  H  H28  1  0.82903600  0.77496400  0.67268600  1
  H  H29  1  0.17096400  0.77496400  0.17268600  1
  H  H30  1  0.08103700  0.77073400  0.30332300  1
  H  H31  1  0.91896300  0.77073400  0.80332300  1
  H  H32  1  0.91701050  0.73521350  0.98995400  1
  H  H33  1  0.08298950  0.73521350  0.48995400  1
  H  H34  1  0.83338700  0.70221200  0.49925800  1
  H  H35  1  0.16661300  0.70221200  0.99925800  1
  H  H36  1  0.06089900  0.63171900  0.42255400  1
  H  H37  1  0.93910100  0.63171900  0.92255400  1
  H  H38  1  0.26066850  0.63683950  0.09204000  1
  H  H39  1  0.73933150  0.63683950  0.59204000  1
  H  H40  1  0.73933150  0.36316050  0.59204000  1
  H  H41  1  0.26066850  0.36316050  0.09204000  1
  H  H42  1  0.06089900  0.36828100  0.42255400  1
  H  H43  1  0.93910100  0.36828100  0.92255400  1
  H  H44  1  0.83338700  0.29778800  0.49925800  1
  H  H45  1  0.16661300  0.29778800  0.99925800  1
  H  H46  1  0.91701050  0.26478650  0.98995400  1
  H  H47  1  0.08298950  0.26478650  0.48995400  1
  H  H48  1  0.91896300  0.22926600  0.80332300  1
  H  H49  1  0.08103700  0.22926600  0.30332300  1
  H  H50  1  0.17096400  0.22503600  0.17268600  1
  H  H51  1  0.82903600  0.22503600  0.67268600  1
  N  N52  1  0.52511100  0.00000000  0.66009300  1
  N  N53  1  0.47488900  0.00000000  0.16009300  1
  N  N54  1  0.79281900  0.00000000  0.35881600  1
  N  N55  1  0.20718100  0.00000000  0.85881600  1
  N  N56  1  0.02511100  0.50000000  0.66009300  1
  N  N57  1  0.97488900  0.50000000  0.16009300  1
  N  N58  1  0.29281900  0.50000000  0.35881600  1
  N  N59  1  0.70718100  0.50000000  0.85881600  1
  O  O60  1  0.62210950  0.31683250  0.23899900  1
  O  O61  1  0.37789050  0.31683250  0.73899900  1
  O  O62  1  0.48436250  0.20141350  0.92726800  1
  O  O63  1  0.51563750  0.20141350  0.42726800  1
  O  O64  1  0.75287950  0.20702050  0.06268300  1
  O  O65  1  0.24712050  0.20702050  0.56268300  1
  O  O66  1  0.39409200  0.08274000  0.17624800  1
  O  O67  1  0.60590800  0.08274000  0.67624800  1
  O  O68  1  0.86664100  0.08277800  0.33377900  1
  O  O69  1  0.13335900  0.08277800  0.83377900  1
  O  O70  1  0.65323100  0.00000000  0.40442200  1
  O  O71  1  0.78548400  0.00000000  0.89501000  1
  O  O72  1  0.62066600  0.00000000  0.13134000  1
  O  O73  1  0.04643000  0.00000000  0.09949300  1
  O  O74  1  0.21451600  0.00000000  0.39501000  1
  O  O75  1  0.37933400  0.00000000  0.63134000  1
  O  O76  1  0.34676900  0.00000000  0.90442200  1
  O  O77  1  0.95357000  0.00000000  0.59949300  1
  O  O78  1  0.86664100  0.91722200  0.33377900  1
  O  O79  1  0.13335900  0.91722200  0.83377900  1
  O  O80  1  0.60590800  0.91726000  0.67624800  1
  O  O81  1  0.39409200  0.91726000  0.17624800  1
  O  O82  1  0.75287950  0.79297950  0.06268300  1
  O  O83  1  0.24712050  0.79297950  0.56268300  1
  O  O84  1  0.48436250  0.79858650  0.92726800  1
  O  O85  1  0.51563750  0.79858650  0.42726800  1
  O  O86  1  0.62210950  0.68316750  0.23899900  1
  O  O87  1  0.37789050  0.68316750  0.73899900  1
  O  O88  1  0.12210950  0.81683250  0.23899900  1
  O  O89  1  0.87789050  0.81683250  0.73899900  1
  O  O90  1  0.98436250  0.70141350  0.92726800  1
  O  O91  1  0.01563750  0.70141350  0.42726800  1
  O  O92  1  0.25287950  0.70702050  0.06268300  1
  O  O93  1  0.74712050  0.70702050  0.56268300  1
  O  O94  1  0.89409200  0.58274000  0.17624800  1
  O  O95  1  0.10590800  0.58274000  0.67624800  1
  O  O96  1  0.36664100  0.58277800  0.33377900  1
  O  O97  1  0.63335900  0.58277800  0.83377900  1
  O  O98  1  0.15323100  0.50000000  0.40442200  1
  O  O99  1  0.28548400  0.50000000  0.89501000  1
  O  O100  1  0.12066600  0.50000000  0.13134000  1
  O  O101  1  0.54643000  0.50000000  0.09949300  1
  O  O102  1  0.71451600  0.50000000  0.39501000  1
  O  O103  1  0.87933400  0.50000000  0.63134000  1
  O  O104  1  0.84676900  0.50000000  0.90442200  1
  O  O105  1  0.45357000  0.50000000  0.59949300  1
  O  O106  1  0.36664100  0.41722200  0.33377900  1
  O  O107  1  0.63335900  0.41722200  0.83377900  1
  O  O108  1  0.10590800  0.41726000  0.67624800  1
  O  O109  1  0.89409200  0.41726000  0.17624800  1
  O  O110  1  0.25287950  0.29297950  0.06268300  1
  O  O111  1  0.74712050  0.29297950  0.56268300  1
  O  O112  1  0.98436250  0.29858650  0.92726800  1
  O  O113  1  0.01563750  0.29858650  0.42726800  1
  O  O114  1  0.12210950  0.18316750  0.23899900  1
  O  O115  1  0.87789050  0.18316750  0.73899900  1
