# generated using pymatgen
data_V2(OF)3
_symmetry_space_group_name_H-M   'P 1'
_cell_length_a   5.18642800
_cell_length_b   5.20032133
_cell_length_c   13.24879956
_cell_angle_alpha   91.45755823
_cell_angle_beta   89.31618209
_cell_angle_gamma   119.43581766
_symmetry_Int_Tables_number   1
_chemical_formula_structural   V2(OF)3
_chemical_formula_sum   'V6 O9 F9'
_cell_volume   311.10435457
_cell_formula_units_Z   3
loop_
 _symmetry_equiv_pos_site_id
 _symmetry_equiv_pos_as_xyz
  1  'x, y, z'
loop_
 _atom_site_type_symbol
 _atom_site_label
 _atom_site_symmetry_multiplicity
 _atom_site_fract_x
 _atom_site_fract_y
 _atom_site_fract_z
 _atom_site_occupancy
  V  V0  1  0.04590500  0.98933700  0.50023000  1
  V  V1  1  0.96112200  0.96977300  0.99116800  1
  V  V2  1  0.65945200  0.30757200  0.16079800  1
  V  V3  1  0.36783400  0.69830400  0.31930100  1
  V  V4  1  0.69224900  0.33262900  0.65962300  1
  V  V5  1  0.30125100  0.68200100  0.83219300  1
  O  O6  1  0.41544300  0.99257900  0.25356600  1
  O  O7  1  0.32372400  0.08616400  0.58231200  1
  O  O8  1  0.01118300  0.58598600  0.75430400  1
  O  O9  1  0.75053200  0.09652600  0.08550200  1
  O  O10  1  0.08514500  0.75629100  0.41895300  1
  O  O11  1  0.56866200  0.57714500  0.25335400  1
  O  O12  1  0.89962700  0.24775100  0.58306700  1
  O  O13  1  0.25634000  0.90547400  0.91712900  1
  O  O14  1  0.67308600  0.75499300  0.91668000  1
  F  F15  1  0.99719900  0.41487900  0.25743300  1
  F  F16  1  0.08637200  0.33955500  0.91608700  1
  F  F17  1  0.32557700  0.25562200  0.08262000  1
  F  F18  1  0.23708100  0.32480800  0.41949800  1
  F  F19  1  0.59120800  0.99604300  0.75222900  1
  F  F20  1  0.42668800  0.42030300  0.75230700  1
  F  F21  1  0.74379400  0.67949300  0.58317400  1
  F  F22  1  0.92627600  0.67730900  0.08858500  1
  F  F23  1  0.65425300  0.90946500  0.41988600  1
