# generated using pymatgen
data_La2(SiO3)3
_symmetry_space_group_name_H-M   'P 1'
_cell_length_a   5.56409100
_cell_length_b   7.59960412
_cell_length_c   8.68291263
_cell_angle_alpha   108.20773325
_cell_angle_beta   108.20598210
_cell_angle_gamma   91.72528525
_symmetry_Int_Tables_number   1
_chemical_formula_structural   La2(SiO3)3
_chemical_formula_sum   'La4 Si6 O18'
_cell_volume   327.97674568
_cell_formula_units_Z   2
loop_
 _symmetry_equiv_pos_site_id
 _symmetry_equiv_pos_as_xyz
  1  'x, y, z'
loop_
 _atom_site_type_symbol
 _atom_site_label
 _atom_site_symmetry_multiplicity
 _atom_site_fract_x
 _atom_site_fract_y
 _atom_site_fract_z
 _atom_site_occupancy
  La  La0  1  0.80709900  0.18344200  0.58360200  1
  La  La1  1  0.13224500  0.20395900  0.21777500  1
  La  La2  1  0.86775500  0.79604100  0.78222500  1
  La  La3  1  0.19290100  0.81655800  0.41639800  1
  Si  Si4  1  0.42991200  0.07699200  0.85950500  1
  Si  Si5  1  0.76293200  0.48745600  0.99783300  1
  Si  Si6  1  0.33973500  0.48123600  0.66792200  1
  Si  Si7  1  0.66026500  0.51876400  0.33207800  1
  Si  Si8  1  0.23706800  0.51254400  0.00216700  1
  Si  Si9  1  0.57008800  0.92300800  0.14049500  1
  O  O10  1  0.70072200  0.00614500  0.99897700  1
  O  O11  1  0.13184800  0.01554900  0.70983500  1
  O  O12  1  0.57420400  0.03076500  0.70585900  1
  O  O13  1  0.98676900  0.33373800  0.95599400  1
  O  O14  1  0.47087200  0.32313000  0.95244100  1
  O  O15  1  0.20415100  0.28681100  0.51463500  1
  O  O16  1  0.62265200  0.33776300  0.38504600  1
  O  O17  1  0.63927200  0.46957800  0.77843200  1
  O  O18  1  0.14903000  0.50966500  0.78622200  1
  O  O19  1  0.85097000  0.49033500  0.21377800  1
  O  O20  1  0.36072800  0.53042200  0.22156800  1
  O  O21  1  0.37734800  0.66223700  0.61495400  1
  O  O22  1  0.79584900  0.71318900  0.48536500  1
  O  O23  1  0.52912800  0.67687000  0.04755900  1
  O  O24  1  0.01323100  0.66626200  0.04400600  1
  O  O25  1  0.42579600  0.96923500  0.29414100  1
  O  O26  1  0.86815200  0.98445100  0.29016500  1
  O  O27  1  0.29927800  0.99385500  0.00102300  1
