# generated using pymatgen
data_Ti3Mn3(SnO8)2
_symmetry_space_group_name_H-M   'P 1'
_cell_length_a   10.21531200
_cell_length_b   5.90302800
_cell_length_c   9.52037695
_cell_angle_alpha   90.00000000
_cell_angle_beta   90.83498619
_cell_angle_gamma   90.00000000
_symmetry_Int_Tables_number   1
_chemical_formula_structural   Ti3Mn3(SnO8)2
_chemical_formula_sum   'Ti6 Mn6 Sn4 O32'
_cell_volume   574.02988571
_cell_formula_units_Z   2
loop_
 _symmetry_equiv_pos_site_id
 _symmetry_equiv_pos_as_xyz
  1  'x, y, z'
loop_
 _atom_site_type_symbol
 _atom_site_label
 _atom_site_symmetry_multiplicity
 _atom_site_fract_x
 _atom_site_fract_y
 _atom_site_fract_z
 _atom_site_occupancy
  Ti  Ti0  1  0.16022900  0.00000000  0.28732500  1
  Ti  Ti1  1  0.57882400  0.75070700  0.78749300  1
  Ti  Ti2  1  0.57882400  0.24929300  0.78749300  1
  Ti  Ti3  1  0.66022900  0.50000000  0.28732500  1
  Ti  Ti4  1  0.07882400  0.25070700  0.78749300  1
  Ti  Ti5  1  0.07882400  0.74929300  0.78749300  1
  Mn  Mn6  1  0.82781500  0.00000000  0.78667200  1
  Mn  Mn7  1  0.41321650  0.75365650  0.28761600  1
  Mn  Mn8  1  0.41321650  0.24634350  0.28761600  1
  Mn  Mn9  1  0.32781500  0.50000000  0.78667200  1
  Mn  Mn10  1  0.91321650  0.25365650  0.28761600  1
  Mn  Mn11  1  0.91321650  0.74634350  0.28761600  1
  Sn  Sn12  1  0.66976500  0.00000000  0.50741500  1
  Sn  Sn13  1  0.33406400  0.00000000  0.01066400  1
  Sn  Sn14  1  0.16976500  0.50000000  0.50741500  1
  Sn  Sn15  1  0.83406400  0.50000000  0.01066400  1
  O  O16  1  0.58274400  0.74376900  0.39386800  1
  O  O17  1  0.52126500  0.00000000  0.66590600  1
  O  O18  1  0.67014800  0.00000000  0.89378700  1
  O  O19  1  0.99589300  0.00000000  0.68871400  1
  O  O20  1  0.99502100  0.00000000  0.18844500  1
  O  O21  1  0.58274400  0.25623100  0.39386800  1
  O  O22  1  0.74347200  0.78247800  0.66896900  1
  O  O23  1  0.74347200  0.21752200  0.66896900  1
  O  O24  1  0.16576700  0.00000000  0.89259200  1
  O  O25  1  0.84124900  0.00000000  0.39363900  1
  O  O26  1  0.26223450  0.77746450  0.16906700  1
  O  O27  1  0.26223450  0.22253550  0.16906700  1
  O  O28  1  0.33793200  0.00000000  0.39157500  1
  O  O29  1  0.41926250  0.74551050  0.89460700  1
  O  O30  1  0.48117200  0.00000000  0.17431300  1
  O  O31  1  0.41926250  0.25448950  0.89460700  1
  O  O32  1  0.08274400  0.24376900  0.39386800  1
  O  O33  1  0.02126500  0.50000000  0.66590600  1
  O  O34  1  0.17014800  0.50000000  0.89378700  1
  O  O35  1  0.49589300  0.50000000  0.68871400  1
  O  O36  1  0.49502100  0.50000000  0.18844500  1
  O  O37  1  0.08274400  0.75623100  0.39386800  1
  O  O38  1  0.24347200  0.28247800  0.66896900  1
  O  O39  1  0.24347200  0.71752200  0.66896900  1
  O  O40  1  0.66576700  0.50000000  0.89259200  1
  O  O41  1  0.34124900  0.50000000  0.39363900  1
  O  O42  1  0.76223450  0.27746450  0.16906700  1
  O  O43  1  0.76223450  0.72253550  0.16906700  1
  O  O44  1  0.83793200  0.50000000  0.39157500  1
  O  O45  1  0.91926250  0.24551050  0.89460700  1
  O  O46  1  0.98117200  0.50000000  0.17431300  1
  O  O47  1  0.91926250  0.75448950  0.89460700  1
