# generated using pymatgen
data_NaTiO2
_symmetry_space_group_name_H-M   'P 1'
_cell_length_a   5.44124900
_cell_length_b   6.10252800
_cell_length_c   12.29145600
_cell_angle_alpha   90.00000000
_cell_angle_beta   90.00000000
_cell_angle_gamma   90.00000000
_symmetry_Int_Tables_number   1
_chemical_formula_structural   NaTiO2
_chemical_formula_sum   'Na8 Ti8 O16'
_cell_volume   408.14239812
_cell_formula_units_Z   8
loop_
 _symmetry_equiv_pos_site_id
 _symmetry_equiv_pos_as_xyz
  1  'x, y, z'
loop_
 _atom_site_type_symbol
 _atom_site_label
 _atom_site_symmetry_multiplicity
 _atom_site_fract_x
 _atom_site_fract_y
 _atom_site_fract_z
 _atom_site_occupancy
  Na  Na0  1  0.58768200  0.61283100  0.31401400  1
  Na  Na1  1  0.58768200  0.11283100  0.18598600  1
  Na  Na2  1  0.91231800  0.11283100  0.68598600  1
  Na  Na3  1  0.91231800  0.61283100  0.81401400  1
  Na  Na4  1  0.08768200  0.88716900  0.31401400  1
  Na  Na5  1  0.08768200  0.38716900  0.18598600  1
  Na  Na6  1  0.41231800  0.38716900  0.68598600  1
  Na  Na7  1  0.41231800  0.88716900  0.81401400  1
  Ti  Ti8  1  0.62222100  0.17024900  0.44170300  1
  Ti  Ti9  1  0.62222100  0.67024900  0.05829700  1
  Ti  Ti10  1  0.87777900  0.67024900  0.55829700  1
  Ti  Ti11  1  0.87777900  0.17024900  0.94170300  1
  Ti  Ti12  1  0.12222100  0.82975100  0.05829700  1
  Ti  Ti13  1  0.12222100  0.32975100  0.44170300  1
  Ti  Ti14  1  0.37777900  0.32975100  0.94170300  1
  Ti  Ti15  1  0.37777900  0.82975100  0.55829700  1
  O  O16  1  0.60643100  0.23407700  0.83212000  1
  O  O17  1  0.60643100  0.73407700  0.66788000  1
  O  O18  1  0.79704100  0.85940400  0.95599400  1
  O  O19  1  0.79704100  0.35940400  0.54400600  1
  O  O20  1  0.70295900  0.35940400  0.04400600  1
  O  O21  1  0.70295900  0.85940400  0.45599400  1
  O  O22  1  0.89356900  0.73407700  0.16788000  1
  O  O23  1  0.89356900  0.23407700  0.33212000  1
  O  O24  1  0.10643100  0.76592300  0.66788000  1
  O  O25  1  0.10643100  0.26592300  0.83212000  1
  O  O26  1  0.29704100  0.14059600  0.54400600  1
  O  O27  1  0.29704100  0.64059600  0.95599400  1
  O  O28  1  0.20295900  0.64059600  0.45599400  1
  O  O29  1  0.20295900  0.14059600  0.04400600  1
  O  O30  1  0.39356900  0.26592300  0.33212000  1
  O  O31  1  0.39356900  0.76592300  0.16788000  1
