# generated using pymatgen
data_Na3SiH5O6
_symmetry_space_group_name_H-M   'P 1'
_cell_length_a   6.16233900
_cell_length_b   10.55657700
_cell_length_c   18.90402200
_cell_angle_alpha   90.00000000
_cell_angle_beta   90.00000000
_cell_angle_gamma   90.00000000
_symmetry_Int_Tables_number   1
_chemical_formula_structural   Na3SiH5O6
_chemical_formula_sum   'Na24 Si8 H40 O48'
_cell_volume   1229.76724030
_cell_formula_units_Z   8
loop_
 _symmetry_equiv_pos_site_id
 _symmetry_equiv_pos_as_xyz
  1  'x, y, z'
loop_
 _atom_site_type_symbol
 _atom_site_label
 _atom_site_symmetry_multiplicity
 _atom_site_fract_x
 _atom_site_fract_y
 _atom_site_fract_z
 _atom_site_occupancy
  Na  Na0  1  0.78221900  0.50739000  0.18287700  1
  Na  Na1  1  0.21778100  0.00739000  0.31712300  1
  Na  Na2  1  0.71778100  0.49261000  0.68287700  1
  Na  Na3  1  0.28221900  0.99261000  0.81712300  1
  Na  Na4  1  0.21778100  0.49261000  0.81712300  1
  Na  Na5  1  0.78221900  0.99261000  0.68287700  1
  Na  Na6  1  0.28221900  0.50739000  0.31712300  1
  Na  Na7  1  0.71778100  0.00739000  0.18287700  1
  Na  Na8  1  0.96912800  0.78463500  0.10913600  1
  Na  Na9  1  0.03087200  0.28463500  0.39086400  1
  Na  Na10  1  0.53087200  0.21536500  0.60913600  1
  Na  Na11  1  0.46912800  0.71536500  0.89086400  1
  Na  Na12  1  0.03087200  0.21536500  0.89086400  1
  Na  Na13  1  0.96912800  0.71536500  0.60913600  1
  Na  Na14  1  0.46912800  0.78463500  0.39086400  1
  Na  Na15  1  0.53087200  0.28463500  0.10913600  1
  Na  Na16  1  0.26186700  0.45022000  0.98526300  1
  Na  Na17  1  0.73813300  0.95022000  0.51473700  1
  Na  Na18  1  0.23813300  0.54978000  0.48526300  1
  Na  Na19  1  0.76186700  0.04978000  0.01473700  1
  Na  Na20  1  0.73813300  0.54978000  0.01473700  1
  Na  Na21  1  0.26186700  0.04978000  0.48526300  1
  Na  Na22  1  0.76186700  0.45022000  0.51473700  1
  Na  Na23  1  0.23813300  0.95022000  0.98526300  1
  Si  Si24  1  0.27191400  0.57076000  0.12888500  1
  Si  Si25  1  0.72808600  0.07076000  0.37111500  1
  Si  Si26  1  0.22808600  0.42924000  0.62888500  1
  Si  Si27  1  0.77191400  0.92924000  0.87111500  1
  Si  Si28  1  0.72808600  0.42924000  0.87111500  1
  Si  Si29  1  0.27191400  0.92924000  0.62888500  1
  Si  Si30  1  0.77191400  0.57076000  0.37111500  1
  Si  Si31  1  0.22808600  0.07076000  0.12888500  1
  H  H32  1  0.18195400  0.39070900  0.18678600  1
  H  H33  1  0.81804600  0.89070900  0.31321400  1
  H  H34  1  0.31804600  0.60929100  0.68678600  1
  H  H35  1  0.68195400  0.10929100  0.81321400  1
  H  H36  1  0.81804600  0.60929100  0.81321400  1
  H  H37  1  0.18195400  0.10929100  0.68678600  1
  H  H38  1  0.68195400  0.39070900  0.31321400  1
  H  H39  1  0.31804600  0.89070900  0.18678600  1
  H  H40  1  0.11397700  0.66703800  0.00709000  1
  H  H41  1  0.88602300  0.16703800  0.49291000  1
  H  H42  1  0.38602300  0.33296200  0.50709000  1
  H  H43  1  0.61397700  0.83296200  0.99291000  1
  H  H44  1  0.88602300  0.33296200  0.99291000  1
  H  H45  1  0.11397700  0.83296200  0.50709000  1
  H  H46  1  0.61397700  0.66703800  0.49291000  1
  H  H47  1  0.38602300  0.16703800  0.00709000  1
  H  H48  1  0.52858100  0.76584800  0.06639100  1
  H  H49  1  0.47141900  0.26584800  0.43360900  1
  H  H50  1  0.97141900  0.23415200  0.56639100  1
  H  H51  1  0.02858100  0.73415200  0.93360900  1
  H  H52  1  0.47141900  0.23415200  0.93360900  1
  H  H53  1  0.52858100  0.73415200  0.56639100  1
  H  H54  1  0.02858100  0.76584800  0.43360900  1
  H  H55  1  0.97141900  0.26584800  0.06639100  1
  H  H56  1  0.56772200  0.73123100  0.18874600  1
  H  H57  1  0.43227800  0.23123100  0.31125400  1
  H  H58  1  0.93227800  0.26876900  0.68874600  1
  H  H59  1  0.06772200  0.76876900  0.81125400  1
  H  H60  1  0.43227800  0.26876900  0.81125400  1
  H  H61  1  0.56772200  0.76876900  0.68874600  1
  H  H62  1  0.06772200  0.73123100  0.31125400  1
  H  H63  1  0.93227800  0.23123100  0.18874600  1
  H  H64  1  0.24780800  0.73178700  0.24730600  1
  H  H65  1  0.75219200  0.23178700  0.25269400  1
  H  H66  1  0.25219200  0.26821300  0.74730600  1
  H  H67  1  0.74780800  0.76821300  0.75269400  1
  H  H68  1  0.75219200  0.26821300  0.75269400  1
  H  H69  1  0.24780800  0.76821300  0.74730600  1
  H  H70  1  0.74780800  0.73178700  0.25269400  1
  H  H71  1  0.25219200  0.23178700  0.24730600  1
  O  O72  1  0.48333600  0.49738500  0.09800200  1
  O  O73  1  0.51666400  0.99738500  0.40199800  1
  O  O74  1  0.01666400  0.50261500  0.59800200  1
  O  O75  1  0.98333600  0.00261500  0.90199800  1
  O  O76  1  0.51666400  0.50261500  0.90199800  1
  O  O77  1  0.48333600  0.00261500  0.59800200  1
  O  O78  1  0.98333600  0.49738500  0.40199800  1
  O  O79  1  0.01666400  0.99738500  0.09800200  1
  O  O80  1  0.31938000  0.71306000  0.16122200  1
  O  O81  1  0.68062000  0.21306000  0.33877800  1
  O  O82  1  0.18062000  0.28694000  0.66122200  1
  O  O83  1  0.81938000  0.78694000  0.83877800  1
  O  O84  1  0.68062000  0.28694000  0.83877800  1
  O  O85  1  0.31938000  0.78694000  0.66122200  1
  O  O86  1  0.81938000  0.71306000  0.33877800  1
  O  O87  1  0.18062000  0.21306000  0.16122200  1
  O  O88  1  0.07202800  0.57871400  0.07133800  1
  O  O89  1  0.92797200  0.07871400  0.42866200  1
  O  O90  1  0.42797200  0.42128600  0.57133800  1
  O  O91  1  0.57202800  0.92128600  0.92866200  1
  O  O92  1  0.92797200  0.42128600  0.92866200  1
  O  O93  1  0.07202800  0.92128600  0.57133800  1
  O  O94  1  0.57202800  0.57871400  0.42866200  1
  O  O95  1  0.42797200  0.07871400  0.07133800  1
  O  O96  1  0.17189500  0.48202600  0.19810000  1
  O  O97  1  0.82810500  0.98202600  0.30190000  1
  O  O98  1  0.32810500  0.51797400  0.69810000  1
  O  O99  1  0.67189500  0.01797400  0.80190000  1
  O  O100  1  0.82810500  0.51797400  0.80190000  1
  O  O101  1  0.17189500  0.01797400  0.69810000  1
  O  O102  1  0.67189500  0.48202600  0.30190000  1
  O  O103  1  0.32810500  0.98202600  0.19810000  1
  O  O104  1  0.65098600  0.77008600  0.03330400  1
  O  O105  1  0.34901400  0.27008600  0.46669600  1
  O  O106  1  0.84901400  0.22991400  0.53330400  1
  O  O107  1  0.15098600  0.72991400  0.96669600  1
  O  O108  1  0.34901400  0.22991400  0.96669600  1
  O  O109  1  0.65098600  0.72991400  0.53330400  1
  O  O110  1  0.15098600  0.77008600  0.46669600  1
  O  O111  1  0.84901400  0.27008600  0.03330400  1
  O  O112  1  0.72736400  0.74443500  0.20029300  1
  O  O113  1  0.27263600  0.24443500  0.29970700  1
  O  O114  1  0.77263600  0.25556500  0.70029300  1
  O  O115  1  0.22736400  0.75556500  0.79970700  1
  O  O116  1  0.27263600  0.25556500  0.79970700  1
  O  O117  1  0.72736400  0.75556500  0.70029300  1
  O  O118  1  0.22736400  0.74443500  0.29970700  1
  O  O119  1  0.77263600  0.24443500  0.20029300  1
