# generated using pymatgen
data_Ce(ClO4)3
_symmetry_space_group_name_H-M   'P 1'
_cell_length_a   8.52141160
_cell_length_b   8.52141160
_cell_length_c   25.42057383
_cell_angle_alpha   90.00000000
_cell_angle_beta   90.00000000
_cell_angle_gamma   120.00000000
_symmetry_Int_Tables_number   1
_chemical_formula_structural   Ce(ClO4)3
_chemical_formula_sum   'Ce6 Cl18 O72'
_cell_volume   1598.59727083
_cell_formula_units_Z   6
loop_
 _symmetry_equiv_pos_site_id
 _symmetry_equiv_pos_as_xyz
  1  'x, y, z'
loop_
 _atom_site_type_symbol
 _atom_site_label
 _atom_site_symmetry_multiplicity
 _atom_site_fract_x
 _atom_site_fract_y
 _atom_site_fract_z
 _atom_site_occupancy
  Ce  Ce0  1  0.66666667  0.33333333  0.27473933  1
  Ce  Ce1  1  0.33333333  0.66666667  0.10807267  1
  Ce  Ce2  1  0.33333333  0.66666667  0.60807267  1
  Ce  Ce3  1  0.00000000  0.00000000  0.44140600  1
  Ce  Ce4  1  0.00000000  0.00000000  0.94140600  1
  Ce  Ce5  1  0.66666667  0.33333333  0.77473933  1
  Cl  Cl6  1  0.69945767  0.67871133  0.33305233  1
  Cl  Cl7  1  0.98795533  0.63387567  0.16638567  1
  Cl  Cl8  1  0.36612433  0.35407967  0.16638567  1
  Cl  Cl9  1  0.97925367  0.30054233  0.33305233  1
  Cl  Cl10  1  0.32128867  0.02074633  0.33305233  1
  Cl  Cl11  1  0.64592033  0.01204467  0.16638567  1
  Cl  Cl12  1  0.36612433  0.01204467  0.66638567  1
  Cl  Cl13  1  0.65462200  0.96720900  0.49971900  1
  Cl  Cl14  1  0.03279100  0.68741300  0.49971900  1
  Cl  Cl15  1  0.64592033  0.63387567  0.66638567  1
  Cl  Cl16  1  0.98795533  0.35407967  0.66638567  1
  Cl  Cl17  1  0.31258700  0.34537800  0.49971900  1
  Cl  Cl18  1  0.03279100  0.34537800  0.99971900  1
  Cl  Cl19  1  0.32128867  0.30054233  0.83305233  1
  Cl  Cl20  1  0.69945767  0.02074633  0.83305233  1
  Cl  Cl21  1  0.31258700  0.96720900  0.99971900  1
  Cl  Cl22  1  0.65462200  0.68741300  0.99971900  1
  Cl  Cl23  1  0.97925367  0.67871133  0.83305233  1
  O  O24  1  0.24046633  0.08853167  0.01313467  1
  O  O25  1  0.90682500  0.49720800  0.20838200  1
  O  O26  1  0.26912467  0.16259133  0.15982733  1
  O  O27  1  0.79423200  0.67758100  0.28429800  1
  O  O28  1  0.98908567  0.53910133  0.11763133  1
  O  O29  1  0.17074200  0.39754200  0.32649400  1
  O  O30  1  0.16945867  0.42650833  0.04171533  1
  O  O31  1  0.89346667  0.73087533  0.15982733  1
  O  O32  1  0.24480167  0.42620033  0.17980133  1
  O  O33  1  0.50279200  0.40961700  0.20838200  1
  O  O34  1  0.46089867  0.44998433  0.11763133  1
  O  O35  1  0.18139867  0.75519833  0.17980133  1
  O  O36  1  0.22680000  0.82925800  0.32649400  1
  O  O37  1  0.91146833  0.15193467  0.01313467  1
  O  O38  1  0.88334900  0.20576800  0.28429800  1
  O  O39  1  0.25704967  0.83054133  0.04171533  1
  O  O40  1  0.57349167  0.74295033  0.04171533  1
  O  O41  1  0.60245800  0.77320000  0.32649400  1
  O  O42  1  0.57379967  0.81860133  0.17980133  1
  O  O43  1  0.32241900  0.11665100  0.28429800  1
  O  O44  1  0.55001567  0.01091433  0.11763133  1
  O  O45  1  0.84806533  0.75953367  0.01313467  1
  O  O46  1  0.59038300  0.09317500  0.20838200  1
  O  O47  1  0.83740867  0.10653333  0.15982733  1
  O  O48  1  0.90713300  0.42186500  0.34646800  1
  O  O49  1  0.57349167  0.83054133  0.54171533  1
  O  O50  1  0.93579133  0.49592467  0.49316067  1
  O  O51  1  0.46089867  0.01091433  0.61763133  1
  O  O52  1  0.65575233  0.87243467  0.45096467  1
  O  O53  1  0.83740867  0.73087533  0.65982733  1
  O  O54  1  0.83612533  0.75984167  0.37504867  1
  O  O55  1  0.56013333  0.06420867  0.49316067  1
  O  O56  1  0.91146833  0.75953367  0.51313467  1
  O  O57  1  0.16945867  0.74295033  0.54171533  1
  O  O58  1  0.12756533  0.78331767  0.45096467  1
  O  O59  1  0.84806533  0.08853167  0.51313467  1
  O  O60  1  0.89346667  0.16259133  0.65982733  1
  O  O61  1  0.57813500  0.48526800  0.34646800  1
  O  O62  1  0.55001567  0.53910133  0.61763133  1
  O  O63  1  0.92371633  0.16387467  0.37504867  1
  O  O64  1  0.24015833  0.07628367  0.37504867  1
  O  O65  1  0.26912467  0.10653333  0.65982733  1
  O  O66  1  0.24046633  0.15193467  0.51313467  1
  O  O67  1  0.98908567  0.44998433  0.61763133  1
  O  O68  1  0.21668233  0.34424767  0.45096467  1
  O  O69  1  0.51473200  0.09286700  0.34646800  1
  O  O70  1  0.25704967  0.42650833  0.54171533  1
  O  O71  1  0.50407533  0.43986667  0.49316067  1
  O  O72  1  0.57379967  0.75519833  0.67980133  1
  O  O73  1  0.24015833  0.16387467  0.87504867  1
  O  O74  1  0.60245800  0.82925800  0.82649400  1
  O  O75  1  0.12756533  0.34424767  0.95096467  1
  O  O76  1  0.32241900  0.20576800  0.78429800  1
  O  O77  1  0.50407533  0.06420867  0.99316067  1
  O  O78  1  0.50279200  0.09317500  0.70838200  1
  O  O79  1  0.22680000  0.39754200  0.82649400  1
  O  O80  1  0.57813500  0.09286700  0.84646800  1
  O  O81  1  0.83612533  0.07628367  0.87504867  1
  O  O82  1  0.79423200  0.11665100  0.78429800  1
  O  O83  1  0.51473200  0.42186500  0.84646800  1
  O  O84  1  0.56013333  0.49592467  0.99316067  1
  O  O85  1  0.24480167  0.81860133  0.67980133  1
  O  O86  1  0.21668233  0.87243467  0.95096467  1
  O  O87  1  0.59038300  0.49720800  0.70838200  1
  O  O88  1  0.90682500  0.40961700  0.70838200  1
  O  O89  1  0.93579133  0.43986667  0.99316067  1
  O  O90  1  0.90713300  0.48526800  0.84646800  1
  O  O91  1  0.65575233  0.78331767  0.95096467  1
  O  O92  1  0.88334900  0.67758100  0.78429800  1
  O  O93  1  0.18139867  0.42620033  0.67980133  1
  O  O94  1  0.92371633  0.75984167  0.87504867  1
  O  O95  1  0.17074200  0.77320000  0.82649400  1
