# generated using pymatgen
data_Li4V3Cr2Co(PO4)6
_symmetry_space_group_name_H-M   'P 1'
_cell_length_a   8.47614035
_cell_length_b   8.51585626
_cell_length_c   8.77966288
_cell_angle_alpha   62.17190121
_cell_angle_beta   62.85297800
_cell_angle_gamma   63.31214161
_symmetry_Int_Tables_number   1
_chemical_formula_structural   Li4V3Cr2Co(PO4)6
_chemical_formula_sum   'Li4 V3 Cr2 Co1 P6 O24'
_cell_volume   475.72071681
_cell_formula_units_Z   1
loop_
 _symmetry_equiv_pos_site_id
 _symmetry_equiv_pos_as_xyz
  1  'x, y, z'
loop_
 _atom_site_type_symbol
 _atom_site_label
 _atom_site_symmetry_multiplicity
 _atom_site_fract_x
 _atom_site_fract_y
 _atom_site_fract_z
 _atom_site_occupancy
  Li  Li0  1  0.75041900  0.14040600  0.35667500  1
  Li  Li1  1  0.23654900  0.84802700  0.66190200  1
  Li  Li2  1  0.65257900  0.23178400  0.84783200  1
  Li  Li3  1  0.85270100  0.65262300  0.22721800  1
  V  V4  1  0.35829100  0.35632000  0.35395500  1
  V  V5  1  0.14522300  0.14619900  0.14473700  1
  V  V6  1  0.64540300  0.64827500  0.65047400  1
  Cr  Cr7  1  0.00457600  0.00412400  0.99401300  1
  Cr  Cr8  1  0.49388300  0.50327800  0.50304500  1
  Co  Co9  1  0.84929600  0.84831400  0.84547400  1
  P  P10  1  0.06630500  0.74652400  0.45110400  1
  P  P11  1  0.43942500  0.05690400  0.75477500  1
  P  P12  1  0.75216800  0.44023200  0.04999700  1
  P  P13  1  0.24804100  0.54841700  0.96400600  1
  P  P14  1  0.55281700  0.95989700  0.25141800  1
  P  P15  1  0.94215400  0.24932900  0.53507500  1
  O  O16  1  0.46360300  0.90233600  0.69650900  1
  O  O17  1  0.69424700  0.46219200  0.89938100  1
  O  O18  1  0.90535500  0.68771600  0.48394300  1
  O  O19  1  0.07813900  0.90952600  0.26507300  1
  O  O20  1  0.04879200  0.80035000  0.60438200  1
  O  O21  1  0.25869200  0.58750600  0.42497400  1
  O  O22  1  0.24782700  0.07875900  0.90901700  1
  O  O23  1  0.43467500  0.24574600  0.58922700  1
  O  O24  1  0.17201300  0.39474000  0.00804300  1
  O  O25  1  0.60503300  0.41197500  0.24492500  1
  O  O26  1  0.09162900  0.74332200  0.94762100  1
  O  O27  1  0.39062000  0.02147500  0.18565100  1
  O  O28  1  0.59779600  0.02661500  0.81595100  1
  O  O29  1  0.90502300  0.23978800  0.07969400  1
  O  O30  1  0.39347800  0.57084500  0.77119700  1
  O  O31  1  0.81375700  0.59959400  0.01978300  1
  O  O32  1  0.56679400  0.76123000  0.39876000  1
  O  O33  1  0.74553700  0.94074200  0.09586900  1
  O  O34  1  0.74624900  0.40383000  0.56613900  1
  O  O35  1  0.95482400  0.18966000  0.38816800  1
  O  O36  1  0.93220800  0.09409200  0.72543400  1
  O  O37  1  0.10657500  0.31621900  0.47573300  1
  O  O38  1  0.32465300  0.50495200  0.11101600  1
  O  O39  1  0.53264700  0.10313700  0.32481300  1
