# generated using pymatgen
data_LaTiNO2
_symmetry_space_group_name_H-M   'P 1'
_cell_length_a   5.61057200
_cell_length_b   5.62135954
_cell_length_c   7.94823679
_cell_angle_alpha   89.97998667
_cell_angle_beta   89.92209647
_cell_angle_gamma   89.27620022
_symmetry_Int_Tables_number   1
_chemical_formula_structural   LaTiNO2
_chemical_formula_sum   'La4 Ti4 N4 O8'
_cell_volume   250.65952949
_cell_formula_units_Z   4
loop_
 _symmetry_equiv_pos_site_id
 _symmetry_equiv_pos_as_xyz
  1  'x, y, z'
loop_
 _atom_site_type_symbol
 _atom_site_label
 _atom_site_symmetry_multiplicity
 _atom_site_fract_x
 _atom_site_fract_y
 _atom_site_fract_z
 _atom_site_occupancy
  La  La0  1  0.50587100  0.99284200  0.26210700  1
  La  La1  1  0.00720900  0.49333500  0.26331900  1
  La  La2  1  0.50749300  0.99441900  0.74487300  1
  La  La3  1  0.00609800  0.49490700  0.74456100  1
  Ti  Ti4  1  0.00615000  0.99559700  0.01601300  1
  Ti  Ti5  1  0.50516100  0.49303800  0.98778300  1
  Ti  Ti6  1  0.00530200  0.98109400  0.50081400  1
  Ti  Ti7  1  0.50438900  0.51219500  0.50810100  1
  N  N8  1  0.04996800  0.95337300  0.24493300  1
  N  N9  1  0.24961800  0.75195400  0.54894400  1
  N  N10  1  0.74936400  0.75005600  0.49984600  1
  N  N11  1  0.54707800  0.44766800  0.75355800  1
  O  O12  1  0.74586100  0.75434600  0.99718600  1
  O  O13  1  0.24720800  0.25241300  0.99795100  1
  O  O14  1  0.43875200  0.55467700  0.24551600  1
  O  O15  1  0.74729100  0.25371900  0.05537300  1
  O  O16  1  0.24539400  0.25374900  0.49710500  1
  O  O17  1  0.74425800  0.25138500  0.44171000  1
  O  O18  1  0.24624800  0.75309600  0.94229600  1
  O  O19  1  0.94134900  0.06607700  0.74807100  1
