# generated using pymatgen
data_Mn3Fe3(TeO8)2
_symmetry_space_group_name_H-M   'P 1'
_cell_length_a   5.99018500
_cell_length_b   6.01350568
_cell_length_c   9.24349904
_cell_angle_alpha   90.95682834
_cell_angle_beta   90.83703730
_cell_angle_gamma   119.61754275
_symmetry_Int_Tables_number   1
_chemical_formula_structural   Mn3Fe3(TeO8)2
_chemical_formula_sum   'Mn3 Fe3 Te2 O16'
_cell_volume   289.32437732
_cell_formula_units_Z   1
loop_
 _symmetry_equiv_pos_site_id
 _symmetry_equiv_pos_as_xyz
  1  'x, y, z'
loop_
 _atom_site_type_symbol
 _atom_site_label
 _atom_site_symmetry_multiplicity
 _atom_site_fract_x
 _atom_site_fract_y
 _atom_site_fract_z
 _atom_site_occupancy
  Mn  Mn0  1  0.34485200  0.17502800  0.21056000  1
  Mn  Mn1  1  0.17428300  0.34315700  0.71170700  1
  Mn  Mn2  1  0.16855000  0.83507700  0.70446900  1
  Fe  Fe3  1  0.83947900  0.17309500  0.20634900  1
  Fe  Fe4  1  0.83755900  0.66531700  0.20968100  1
  Fe  Fe5  1  0.66499700  0.83823900  0.71044600  1
  Te  Te6  1  0.66631100  0.33688600  0.48672800  1
  Te  Te7  1  0.33570000  0.66602000  0.98694500  1
  O  O8  1  0.82374400  0.17481600  0.60052500  1
  O  O9  1  0.95078800  0.47568200  0.35355900  1
  O  O10  1  0.65559100  0.32640500  0.10673000  1
  O  O11  1  0.01664700  0.01066500  0.29839900  1
  O  O12  1  0.01466700  0.01194500  0.79714300  1
  O  O13  1  0.81932100  0.65321800  0.59884000  1
  O  O14  1  0.50899000  0.04402300  0.34294900  1
  O  O15  1  0.50917900  0.46849000  0.34238700  1
  O  O16  1  0.65389300  0.82273200  0.09813900  1
  O  O17  1  0.35221200  0.18854300  0.59796100  1
  O  O18  1  0.47021400  0.50989400  0.84298900  1
  O  O19  1  0.47468900  0.94924400  0.85129700  1
  O  O20  1  0.31857900  0.65569900  0.61004100  1
  O  O21  1  0.18248800  0.35093900  0.10105200  1
  O  O22  1  0.04079500  0.49851400  0.84733400  1
  O  O23  1  0.17647500  0.82617300  0.09948700  1
