# generated using pymatgen
data_Fe3(OF)2
_symmetry_space_group_name_H-M   'P 1'
_cell_length_a   3.22237700
_cell_length_b   6.39906700
_cell_length_c   8.59487683
_cell_angle_alpha   90.00000000
_cell_angle_beta   90.00000000
_cell_angle_gamma   90.00000000
_symmetry_Int_Tables_number   1
_chemical_formula_structural   Fe3(OF)2
_chemical_formula_sum   'Fe6 O4 F4'
_cell_volume   177.22813349
_cell_formula_units_Z   2
loop_
 _symmetry_equiv_pos_site_id
 _symmetry_equiv_pos_as_xyz
  1  'x, y, z'
loop_
 _atom_site_type_symbol
 _atom_site_label
 _atom_site_symmetry_multiplicity
 _atom_site_fract_x
 _atom_site_fract_y
 _atom_site_fract_z
 _atom_site_occupancy
  Fe  Fe0  1  0.50000000  0.25000000  0.31837700  1
  Fe  Fe1  1  0.00000000  0.75000000  0.27382700  1
  Fe  Fe2  1  0.50000000  0.50000000  0.00000000  1
  Fe  Fe3  1  0.50000000  0.00000000  0.00000000  1
  Fe  Fe4  1  0.00000000  0.25000000  0.72617300  1
  Fe  Fe5  1  0.50000000  0.75000000  0.68162300  1
  O  O6  1  0.50000000  0.96712300  0.22952200  1
  O  O7  1  0.50000000  0.53287700  0.22952200  1
  O  O8  1  0.50000000  0.46712300  0.77047800  1
  O  O9  1  0.50000000  0.03287700  0.77047800  1
  F  F10  1  0.00000000  0.25000000  0.48069200  1
  F  F11  1  0.00000000  0.25000000  0.01162450  1
  F  F12  1  0.00000000  0.75000000  0.98837550  1
  F  F13  1  0.00000000  0.75000000  0.51930800  1
