# generated using pymatgen
data_Na3Mn2P2(CO7)2
_symmetry_space_group_name_H-M   'P 1'
_cell_length_a   8.42109100
_cell_length_b   8.42509276
_cell_length_c   9.01675151
_cell_angle_alpha   90.12708832
_cell_angle_beta   92.15232477
_cell_angle_gamma   103.45032193
_symmetry_Int_Tables_number   1
_chemical_formula_structural   Na3Mn2P2(CO7)2
_chemical_formula_sum   'Na6 Mn4 P4 C4 O28'
_cell_volume   621.69992549
_cell_formula_units_Z   2
loop_
 _symmetry_equiv_pos_site_id
 _symmetry_equiv_pos_as_xyz
  1  'x, y, z'
loop_
 _atom_site_type_symbol
 _atom_site_label
 _atom_site_symmetry_multiplicity
 _atom_site_fract_x
 _atom_site_fract_y
 _atom_site_fract_z
 _atom_site_occupancy
  Na  Na0  1  0.34777300  0.38527700  0.75511000  1
  Na  Na1  1  0.62854300  0.11646800  0.75888600  1
  Na  Na2  1  0.87500900  0.87151200  0.76443300  1
  Na  Na3  1  0.65222700  0.61472300  0.24489000  1
  Na  Na4  1  0.37145700  0.88353200  0.24111400  1
  Na  Na5  1  0.12499100  0.12848800  0.23556700  1
  Mn  Mn6  1  0.26852200  0.01077000  0.65614200  1
  Mn  Mn7  1  0.77075000  0.51554400  0.64851000  1
  Mn  Mn8  1  0.22925000  0.48445600  0.35149000  1
  Mn  Mn9  1  0.73147800  0.98923000  0.34385800  1
  P  P10  1  0.49361400  0.72897700  0.56999600  1
  P  P11  1  0.97850200  0.23836100  0.57441300  1
  P  P12  1  0.50638600  0.27102300  0.43000400  1
  P  P13  1  0.02149800  0.76163900  0.42558700  1
  C  C14  1  0.73836000  0.48937700  0.91752200  1
  C  C15  1  0.24204600  0.99087000  0.92412100  1
  C  C16  1  0.26164000  0.51062300  0.08247800  1
  C  C17  1  0.75795400  0.00913000  0.07587900  1
  O  O18  1  0.28178100  0.52401700  0.94849500  1
  O  O19  1  0.77115400  0.01355100  0.93852100  1
  O  O20  1  0.35728800  0.09753400  0.85687500  1
  O  O21  1  0.85282200  0.59755800  0.85343400  1
  O  O22  1  0.64343000  0.39367900  0.81422200  1
  O  O23  1  0.14539800  0.89324900  0.82832200  1
  O  O24  1  0.62655400  0.66774400  0.66507700  1
  O  O25  1  0.10284600  0.18288600  0.67839400  1
  O  O26  1  0.44426400  0.85861800  0.66508400  1
  O  O27  1  0.90457300  0.36008400  0.66337200  1
  O  O28  1  0.34689800  0.57969700  0.53385200  1
  O  O29  1  0.43771400  0.20127100  0.58021800  1
  O  O30  1  0.94457500  0.68879500  0.57135200  1
  O  O31  1  0.83575300  0.08641000  0.53232400  1
  O  O32  1  0.65310200  0.42030300  0.46614800  1
  O  O33  1  0.56228600  0.79872900  0.41978200  1
  O  O34  1  0.05542500  0.31120500  0.42864800  1
  O  O35  1  0.16424700  0.91359000  0.46767600  1
  O  O36  1  0.55573600  0.14138200  0.33491600  1
  O  O37  1  0.37344600  0.33225600  0.33492300  1
  O  O38  1  0.09542700  0.63991600  0.33662800  1
  O  O39  1  0.89715400  0.81711400  0.32160600  1
  O  O40  1  0.35657000  0.60632100  0.18577800  1
  O  O41  1  0.85460200  0.10675100  0.17167800  1
  O  O42  1  0.64271200  0.90246600  0.14312500  1
  O  O43  1  0.14717800  0.40244200  0.14656600  1
  O  O44  1  0.71821900  0.47598300  0.05150500  1
  O  O45  1  0.22884600  0.98644900  0.06147900  1
