# generated using pymatgen
data_TiGa2O5
_symmetry_space_group_name_H-M   'P 1'
_cell_length_a   3.66101800
_cell_length_b   9.93491000
_cell_length_c   10.08881200
_cell_angle_alpha   90.00000000
_cell_angle_beta   90.00000000
_cell_angle_gamma   90.00000000
_symmetry_Int_Tables_number   1
_chemical_formula_structural   TiGa2O5
_chemical_formula_sum   'Ti4 Ga8 O20'
_cell_volume   366.94910318
_cell_formula_units_Z   4
loop_
 _symmetry_equiv_pos_site_id
 _symmetry_equiv_pos_as_xyz
  1  'x, y, z'
loop_
 _atom_site_type_symbol
 _atom_site_label
 _atom_site_symmetry_multiplicity
 _atom_site_fract_x
 _atom_site_fract_y
 _atom_site_fract_z
 _atom_site_occupancy
  Ti  Ti0  1  0.00000000  0.17921900  0.25000000  1
  Ti  Ti1  1  0.50000000  0.32078100  0.75000000  1
  Ti  Ti2  1  0.50000000  0.67921900  0.25000000  1
  Ti  Ti3  1  0.00000000  0.82078100  0.75000000  1
  Ga  Ga4  1  0.00000000  0.13676900  0.94091900  1
  Ga  Ga5  1  0.00000000  0.13676900  0.55908100  1
  Ga  Ga6  1  0.50000000  0.36323100  0.44091900  1
  Ga  Ga7  1  0.50000000  0.36323100  0.05908100  1
  Ga  Ga8  1  0.50000000  0.63676900  0.94091900  1
  Ga  Ga9  1  0.50000000  0.63676900  0.55908100  1
  Ga  Ga10  1  0.00000000  0.86323100  0.44091900  1
  Ga  Ga11  1  0.00000000  0.86323100  0.05908100  1
  O  O12  1  0.00000000  0.04703100  0.38074200  1
  O  O13  1  0.00000000  0.04703100  0.11925800  1
  O  O14  1  0.50000000  0.19240600  0.57542700  1
  O  O15  1  0.50000000  0.19240600  0.92457300  1
  O  O16  1  0.00000000  0.24869900  0.75000000  1
  O  O17  1  0.50000000  0.25130100  0.25000000  1
  O  O18  1  0.00000000  0.30759400  0.42457300  1
  O  O19  1  0.00000000  0.30759400  0.07542700  1
  O  O20  1  0.50000000  0.45296900  0.88074200  1
  O  O21  1  0.50000000  0.45296900  0.61925800  1
  O  O22  1  0.50000000  0.54703100  0.38074200  1
  O  O23  1  0.50000000  0.54703100  0.11925800  1
  O  O24  1  0.00000000  0.69240600  0.57542700  1
  O  O25  1  0.00000000  0.69240600  0.92457300  1
  O  O26  1  0.50000000  0.74869900  0.75000000  1
  O  O27  1  0.00000000  0.75130100  0.25000000  1
  O  O28  1  0.50000000  0.80759400  0.42457300  1
  O  O29  1  0.50000000  0.80759400  0.07542700  1
  O  O30  1  0.00000000  0.95296900  0.88074200  1
  O  O31  1  0.00000000  0.95296900  0.61925800  1
