# generated using pymatgen
data_H20C3(N2O5)2
_symmetry_space_group_name_H-M   'P 1'
_cell_length_a   7.24685800
_cell_length_b   10.55274600
_cell_length_c   16.01196600
_cell_angle_alpha   90.00000000
_cell_angle_beta   90.00000000
_cell_angle_gamma   90.00000000
_symmetry_Int_Tables_number   1
_chemical_formula_structural   H20C3(N2O5)2
_chemical_formula_sum   'H80 C12 N16 O40'
_cell_volume   1224.50311925
_cell_formula_units_Z   4
loop_
 _symmetry_equiv_pos_site_id
 _symmetry_equiv_pos_as_xyz
  1  'x, y, z'
loop_
 _atom_site_type_symbol
 _atom_site_label
 _atom_site_symmetry_multiplicity
 _atom_site_fract_x
 _atom_site_fract_y
 _atom_site_fract_z
 _atom_site_occupancy
  H  H0  1  0.33089000  0.89398350  0.14491850  1
  H  H1  1  0.50000000  0.10656450  0.04856850  1
  H  H2  1  0.50000000  0.05791650  0.34193050  1
  H  H3  1  0.15717700  0.78711350  0.16706150  1
  H  H4  1  0.15717700  0.28711350  0.33293850  1
  H  H5  1  0.16336100  0.86412400  0.07402800  1
  H  H6  1  0.16336100  0.36412400  0.42597200  1
  H  H7  1  0.66911000  0.89398350  0.14491850  1
  H  H8  1  0.17235750  0.74867600  0.40057350  1
  H  H9  1  0.17235750  0.24867600  0.09942650  1
  H  H10  1  0.32764250  0.74867600  0.09942650  1
  H  H11  1  0.32764250  0.24867600  0.40057350  1
  H  H12  1  0.83089000  0.89398350  0.35508150  1
  H  H13  1  0.33663900  0.86412400  0.42597200  1
  H  H14  1  0.33663900  0.36412400  0.07402800  1
  H  H15  1  0.34282300  0.28711350  0.16706150  1
  H  H16  1  0.34282300  0.78711350  0.33293850  1
  H  H17  1  0.00000000  0.05791650  0.15806950  1
  H  H18  1  0.00000000  0.10656450  0.45143150  1
  H  H19  1  0.16911000  0.89398350  0.35508150  1
  H  H20  1  0.33089000  0.39398350  0.64491850  1
  H  H21  1  0.50000000  0.60656450  0.54856850  1
  H  H22  1  0.50000000  0.55791650  0.84193050  1
  H  H23  1  0.15717700  0.28711350  0.66706150  1
  H  H24  1  0.15717700  0.78711350  0.83293850  1
  H  H25  1  0.16336100  0.36412400  0.57402800  1
  H  H26  1  0.16336100  0.86412400  0.92597200  1
  H  H27  1  0.66911000  0.39398350  0.64491850  1
  H  H28  1  0.17235750  0.24867600  0.90057350  1
  H  H29  1  0.17235750  0.74867600  0.59942650  1
  H  H30  1  0.32764250  0.24867600  0.59942650  1
  H  H31  1  0.32764250  0.74867600  0.90057350  1
  H  H32  1  0.83089000  0.39398350  0.85508150  1
  H  H33  1  0.33663900  0.36412400  0.92597200  1
  H  H34  1  0.33663900  0.86412400  0.57402800  1
  H  H35  1  0.34282300  0.78711350  0.66706150  1
  H  H36  1  0.34282300  0.28711350  0.83293850  1
  H  H37  1  0.00000000  0.55791650  0.65806950  1
  H  H38  1  0.00000000  0.60656450  0.95143150  1
  H  H39  1  0.16911000  0.39398350  0.85508150  1
  H  H40  1  0.83089000  0.39398350  0.14491850  1
  H  H41  1  0.00000000  0.60656450  0.04856850  1
  H  H42  1  0.00000000  0.55791650  0.34193050  1
  H  H43  1  0.65717700  0.28711350  0.16706150  1
  H  H44  1  0.65717700  0.78711350  0.33293850  1
  H  H45  1  0.66336100  0.36412400  0.07402800  1
  H  H46  1  0.66336100  0.86412400  0.42597200  1
  H  H47  1  0.16911000  0.39398350  0.14491850  1
  H  H48  1  0.67235750  0.24867600  0.40057350  1
  H  H49  1  0.67235750  0.74867600  0.09942650  1
  H  H50  1  0.82764250  0.24867600  0.09942650  1
  H  H51  1  0.82764250  0.74867600  0.40057350  1
  H  H52  1  0.33089000  0.39398350  0.35508150  1
  H  H53  1  0.83663900  0.36412400  0.42597200  1
  H  H54  1  0.83663900  0.86412400  0.07402800  1
  H  H55  1  0.84282300  0.78711350  0.16706150  1
  H  H56  1  0.84282300  0.28711350  0.33293850  1
  H  H57  1  0.50000000  0.55791650  0.15806950  1
  H  H58  1  0.50000000  0.60656450  0.45143150  1
  H  H59  1  0.66911000  0.39398350  0.35508150  1
  H  H60  1  0.83089000  0.89398350  0.64491850  1
  H  H61  1  0.00000000  0.10656450  0.54856850  1
  H  H62  1  0.00000000  0.05791650  0.84193050  1
  H  H63  1  0.65717700  0.78711350  0.66706150  1
  H  H64  1  0.65717700  0.28711350  0.83293850  1
  H  H65  1  0.66336100  0.86412400  0.57402800  1
  H  H66  1  0.66336100  0.36412400  0.92597200  1
  H  H67  1  0.16911000  0.89398350  0.64491850  1
  H  H68  1  0.67235750  0.74867600  0.90057350  1
  H  H69  1  0.67235750  0.24867600  0.59942650  1
  H  H70  1  0.82764250  0.74867600  0.59942650  1
  H  H71  1  0.82764250  0.24867600  0.90057350  1
  H  H72  1  0.33089000  0.89398350  0.85508150  1
  H  H73  1  0.83663900  0.86412400  0.92597200  1
  H  H74  1  0.83663900  0.36412400  0.57402800  1
  H  H75  1  0.84282300  0.28711350  0.66706150  1
  H  H76  1  0.84282300  0.78711350  0.83293850  1
  H  H77  1  0.50000000  0.05791650  0.65806950  1
  H  H78  1  0.50000000  0.10656450  0.95143150  1
  H  H79  1  0.66911000  0.89398350  0.85508150  1
  C  C80  1  0.50000000  0.57017100  0.00000000  1
  C  C81  1  0.50000000  0.08335400  0.22105900  1
  C  C82  1  0.00000000  0.08335400  0.27894100  1
  C  C83  1  0.50000000  0.07017100  0.50000000  1
  C  C84  1  0.50000000  0.58335400  0.72105900  1
  C  C85  1  0.00000000  0.58335400  0.77894100  1
  C  C86  1  0.00000000  0.07017100  0.00000000  1
  C  C87  1  0.00000000  0.58335400  0.22105900  1
  C  C88  1  0.50000000  0.58335400  0.27894100  1
  C  C89  1  0.00000000  0.57017100  0.50000000  1
  C  C90  1  0.00000000  0.08335400  0.72105900  1
  C  C91  1  0.50000000  0.08335400  0.77894100  1
  N  N92  1  0.24451150  0.82409850  0.12080600  1
  N  N93  1  0.24451150  0.32409850  0.37919400  1
  N  N94  1  0.25548850  0.82409850  0.37919400  1
  N  N95  1  0.25548850  0.32409850  0.12080600  1
  N  N96  1  0.24451150  0.32409850  0.62080600  1
  N  N97  1  0.24451150  0.82409850  0.87919400  1
  N  N98  1  0.25548850  0.32409850  0.87919400  1
  N  N99  1  0.25548850  0.82409850  0.62080600  1
  N  N100  1  0.74451150  0.32409850  0.12080600  1
  N  N101  1  0.74451150  0.82409850  0.37919400  1
  N  N102  1  0.75548850  0.32409850  0.37919400  1
  N  N103  1  0.75548850  0.82409850  0.12080600  1
  N  N104  1  0.74451150  0.82409850  0.62080600  1
  N  N105  1  0.74451150  0.32409850  0.87919400  1
  N  N106  1  0.75548850  0.82409850  0.87919400  1
  N  N107  1  0.75548850  0.32409850  0.62080600  1
  O  O108  1  0.50000000  0.44648400  0.00000000  1
  O  O109  1  0.50000000  0.20284800  0.23317500  1
  O  O110  1  0.50000000  0.16114000  0.00000000  1
  O  O111  1  0.50000000  0.02684550  0.15041550  1
  O  O112  1  0.50000000  0.00587850  0.28820450  1
  O  O113  1  0.50000000  0.63002950  0.07119050  1
  O  O114  1  0.00000000  0.20284800  0.26682500  1
  O  O115  1  0.00000000  0.00587850  0.21179550  1
  O  O116  1  0.00000000  0.02684550  0.34958450  1
  O  O117  1  0.00000000  0.63002950  0.42880950  1
  O  O118  1  0.50000000  0.94648400  0.50000000  1
  O  O119  1  0.50000000  0.70284800  0.73317500  1
  O  O120  1  0.50000000  0.66114000  0.50000000  1
  O  O121  1  0.50000000  0.52684550  0.65041550  1
  O  O122  1  0.50000000  0.50587850  0.78820450  1
  O  O123  1  0.50000000  0.13002950  0.57119050  1
  O  O124  1  0.00000000  0.70284800  0.76682500  1
  O  O125  1  0.00000000  0.50587850  0.71179550  1
  O  O126  1  0.00000000  0.52684550  0.84958450  1
  O  O127  1  0.00000000  0.13002950  0.92880950  1
  O  O128  1  0.00000000  0.94648400  0.00000000  1
  O  O129  1  0.00000000  0.70284800  0.23317500  1
  O  O130  1  0.00000000  0.66114000  0.00000000  1
  O  O131  1  0.00000000  0.52684550  0.15041550  1
  O  O132  1  0.00000000  0.50587850  0.28820450  1
  O  O133  1  0.00000000  0.13002950  0.07119050  1
  O  O134  1  0.50000000  0.70284800  0.26682500  1
  O  O135  1  0.50000000  0.50587850  0.21179550  1
  O  O136  1  0.50000000  0.52684550  0.34958450  1
  O  O137  1  0.50000000  0.13002950  0.42880950  1
  O  O138  1  0.00000000  0.44648400  0.50000000  1
  O  O139  1  0.00000000  0.20284800  0.73317500  1
  O  O140  1  0.00000000  0.16114000  0.50000000  1
  O  O141  1  0.00000000  0.02684550  0.65041550  1
  O  O142  1  0.00000000  0.00587850  0.78820450  1
  O  O143  1  0.00000000  0.63002950  0.57119050  1
  O  O144  1  0.50000000  0.20284800  0.76682500  1
  O  O145  1  0.50000000  0.00587850  0.71179550  1
  O  O146  1  0.50000000  0.02684550  0.84958450  1
  O  O147  1  0.50000000  0.63002950  0.92880950  1
