# generated using pymatgen
data_Tm2TeO6
_symmetry_space_group_name_H-M   'P 1'
_cell_length_a   5.23971300
_cell_length_b   9.02735300
_cell_length_c   9.89224000
_cell_angle_alpha   90.00000000
_cell_angle_beta   90.00000000
_cell_angle_gamma   90.00000000
_symmetry_Int_Tables_number   1
_chemical_formula_structural   Tm2TeO6
_chemical_formula_sum   'Tm8 Te4 O24'
_cell_volume   467.91026108
_cell_formula_units_Z   4
loop_
 _symmetry_equiv_pos_site_id
 _symmetry_equiv_pos_as_xyz
  1  'x, y, z'
loop_
 _atom_site_type_symbol
 _atom_site_label
 _atom_site_symmetry_multiplicity
 _atom_site_fract_x
 _atom_site_fract_y
 _atom_site_fract_z
 _atom_site_occupancy
  Tm  Tm0  1  0.02263900  0.39696500  0.04072200  1
  Tm  Tm1  1  0.03764700  0.28228800  0.63537100  1
  Tm  Tm2  1  0.46235300  0.71771200  0.13537100  1
  Tm  Tm3  1  0.47736100  0.60303500  0.54072200  1
  Tm  Tm4  1  0.52263900  0.10303500  0.95927800  1
  Tm  Tm5  1  0.53764700  0.21771200  0.36462900  1
  Tm  Tm6  1  0.96235300  0.78228800  0.86462900  1
  Tm  Tm7  1  0.97736100  0.89696500  0.45927800  1
  Te  Te8  1  0.03972300  0.00606900  0.14548300  1
  Te  Te9  1  0.46027700  0.99393100  0.64548300  1
  Te  Te10  1  0.53972300  0.49393100  0.85451700  1
  Te  Te11  1  0.96027700  0.50606900  0.35451700  1
  O  O12  1  0.08555900  0.65715200  0.47599900  1
  O  O13  1  0.17436900  0.55009000  0.20237500  1
  O  O14  1  0.18815500  0.85803400  0.26140200  1
  O  O15  1  0.17790200  0.85681900  0.67729500  1
  O  O16  1  0.23285400  0.38459400  0.43600100  1
  O  O17  1  0.24883000  0.91419000  0.00224800  1
  O  O18  1  0.25117000  0.08581000  0.50224800  1
  O  O19  1  0.26714600  0.61540600  0.93600100  1
  O  O20  1  0.32209800  0.14318100  0.17729500  1
  O  O21  1  0.31184500  0.14196600  0.76140200  1
  O  O22  1  0.32563100  0.44991000  0.70237500  1
  O  O23  1  0.41444100  0.34284800  0.97599900  1
  O  O24  1  0.58555900  0.84284800  0.52400100  1
  O  O25  1  0.67436900  0.94991000  0.79762500  1
  O  O26  1  0.68815500  0.64196600  0.73859800  1
  O  O27  1  0.67790200  0.64318100  0.32270500  1
  O  O28  1  0.73285400  0.11540600  0.56399900  1
  O  O29  1  0.74883000  0.58581000  0.99775200  1
  O  O30  1  0.75117000  0.41419000  0.49775200  1
  O  O31  1  0.76714600  0.88459400  0.06399900  1
  O  O32  1  0.82209800  0.35681900  0.82270500  1
  O  O33  1  0.81184500  0.35803400  0.23859800  1
  O  O34  1  0.82563100  0.05009000  0.29762500  1
  O  O35  1  0.91444100  0.15715200  0.02400100  1
