# generated using pymatgen
data_CsH5S2(NO3)2
_symmetry_space_group_name_H-M   'P 1'
_cell_length_a   5.35728600
_cell_length_b   6.33261500
_cell_length_c   25.18530700
_cell_angle_alpha   90.00000000
_cell_angle_beta   90.00000000
_cell_angle_gamma   90.00000000
_symmetry_Int_Tables_number   1
_chemical_formula_structural   CsH5S2(NO3)2
_chemical_formula_sum   'Cs4 H20 S8 N8 O24'
_cell_volume   854.42739873
_cell_formula_units_Z   4
loop_
 _symmetry_equiv_pos_site_id
 _symmetry_equiv_pos_as_xyz
  1  'x, y, z'
loop_
 _atom_site_type_symbol
 _atom_site_label
 _atom_site_symmetry_multiplicity
 _atom_site_fract_x
 _atom_site_fract_y
 _atom_site_fract_z
 _atom_site_occupancy
  Cs  Cs0  1  0.09547500  0.02164300  0.84659500  1
  Cs  Cs1  1  0.40452500  0.97835700  0.34659500  1
  Cs  Cs2  1  0.59547500  0.47835700  0.15340500  1
  Cs  Cs3  1  0.90452500  0.52164300  0.65340500  1
  H  H4  1  0.04353800  0.63941900  0.24861300  1
  H  H5  1  0.06942800  0.04813500  0.08311500  1
  H  H6  1  0.09473800  0.84483900  0.03697400  1
  H  H7  1  0.11181100  0.10204100  0.01615000  1
  H  H8  1  0.22918700  0.47427800  0.28230200  1
  H  H9  1  0.27081300  0.52572200  0.78230200  1
  H  H10  1  0.38818900  0.89795900  0.51615000  1
  H  H11  1  0.40526200  0.15516100  0.53697400  1
  H  H12  1  0.43057200  0.95186500  0.58311500  1
  H  H13  1  0.45646200  0.36058100  0.74861300  1
  H  H14  1  0.54353800  0.86058100  0.75138700  1
  H  H15  1  0.56942800  0.45186500  0.91688500  1
  H  H16  1  0.59473800  0.65516100  0.96302600  1
  H  H17  1  0.61181100  0.39795900  0.98385000  1
  H  H18  1  0.72918700  0.02572200  0.71769800  1
  H  H19  1  0.77081300  0.97427800  0.21769800  1
  H  H20  1  0.88818900  0.60204100  0.48385000  1
  H  H21  1  0.90526200  0.34483900  0.46302600  1
  H  H22  1  0.93057200  0.54813500  0.41688500  1
  H  H23  1  0.95646200  0.13941900  0.25138700  1
  S  S24  1  0.15756800  0.98560700  0.18334700  1
  S  S25  1  0.19899600  0.49524000  0.96643400  1
  S  S26  1  0.30100400  0.50476000  0.46643400  1
  S  S27  1  0.34243200  0.01439300  0.68334700  1
  S  S28  1  0.65756800  0.51439300  0.81665300  1
  S  S29  1  0.69899600  0.00476000  0.03356600  1
  S  S30  1  0.80100400  0.99524000  0.53356600  1
  S  S31  1  0.84243200  0.48560700  0.31665300  1
  N  N32  1  0.03180500  0.99856700  0.04351100  1
  N  N33  1  0.05160600  0.49592100  0.26766300  1
  N  N34  1  0.44839400  0.50407900  0.76766300  1
  N  N35  1  0.46819500  0.00143300  0.54351100  1
  N  N36  1  0.53180500  0.50143300  0.95648900  1
  N  N37  1  0.55160600  0.00407900  0.73233700  1
  N  N38  1  0.94839400  0.99592100  0.23233700  1
  N  N39  1  0.96819500  0.49856700  0.45648900  1
  O  O40  1  0.10731600  0.15698500  0.14424800  1
  O  O41  1  0.10137700  0.98428500  0.71010700  1
  O  O42  1  0.11896600  0.77576400  0.16021100  1
  O  O43  1  0.11086500  0.64043100  0.92647900  1
  O  O44  1  0.14294500  0.27243000  0.95711300  1
  O  O45  1  0.16859800  0.56165400  0.02146300  1
  O  O46  1  0.33140200  0.43834600  0.52146300  1
  O  O47  1  0.35705500  0.72757000  0.45711300  1
  O  O48  1  0.38913500  0.35956900  0.42647900  1
  O  O49  1  0.38103400  0.22423600  0.66021100  1
  O  O50  1  0.39862300  0.01571500  0.21010700  1
  O  O51  1  0.39268400  0.84301500  0.64424800  1
  O  O52  1  0.60731600  0.34301500  0.85575200  1
  O  O53  1  0.60137700  0.51571500  0.28989300  1
  O  O54  1  0.61896600  0.72423600  0.83978900  1
  O  O55  1  0.61086500  0.85956900  0.07352100  1
  O  O56  1  0.64294500  0.22757000  0.04288700  1
  O  O57  1  0.66859800  0.93834600  0.97853700  1
  O  O58  1  0.83140200  0.06165400  0.47853700  1
  O  O59  1  0.85705500  0.77243000  0.54288700  1
  O  O60  1  0.88913500  0.14043100  0.57352100  1
  O  O61  1  0.88103400  0.27576400  0.33978900  1
  O  O62  1  0.89862300  0.48428500  0.78989300  1
  O  O63  1  0.89268400  0.65698500  0.35575200  1
