# generated using pymatgen
data_Ga3NO3
_symmetry_space_group_name_H-M   'P 1'
_cell_length_a   6.13641700
_cell_length_b   8.38323516
_cell_length_c   8.41208683
_cell_angle_alpha   119.71112811
_cell_angle_beta   89.50730435
_cell_angle_gamma   91.45532457
_symmetry_Int_Tables_number   1
_chemical_formula_structural   Ga3NO3
_chemical_formula_sum   'Ga12 N4 O12'
_cell_volume   375.72753564
_cell_formula_units_Z   4
loop_
 _symmetry_equiv_pos_site_id
 _symmetry_equiv_pos_as_xyz
  1  'x, y, z'
loop_
 _atom_site_type_symbol
 _atom_site_label
 _atom_site_symmetry_multiplicity
 _atom_site_fract_x
 _atom_site_fract_y
 _atom_site_fract_z
 _atom_site_occupancy
  Ga  Ga0  1  0.01127200  0.24339100  0.17280700  1
  Ga  Ga1  1  0.31770200  0.56817000  0.49092400  1
  Ga  Ga2  1  0.29515200  0.50931300  0.08373500  1
  Ga  Ga3  1  0.99933900  0.91079600  0.74248800  1
  Ga  Ga4  1  0.50767200  0.07746600  0.83593500  1
  Ga  Ga5  1  0.28724900  0.91767400  0.42368700  1
  Ga  Ga6  1  0.01251300  0.82285300  0.08954400  1
  Ga  Ga7  1  0.80902500  0.08674800  0.50393600  1
  Ga  Ga8  1  0.79957700  0.42960400  0.91997200  1
  Ga  Ga9  1  0.49070700  0.16998500  0.25833100  1
  Ga  Ga10  1  0.79013500  0.50055200  0.57166500  1
  Ga  Ga11  1  0.49152400  0.73055200  0.90403200  1
  N  N12  1  0.02709700  0.96208100  0.34487800  1
  N  N13  1  0.26569100  0.32590700  0.30550500  1
  N  N14  1  0.24682200  0.66518200  0.98969600  1
  N  N15  1  0.54970200  0.64988700  0.65735500  1
  O  O16  1  0.76289800  0.30567400  0.32229900  1
  O  O17  1  0.03355100  0.65800900  0.60214500  1
  O  O18  1  0.01857200  0.37336800  0.03699500  1
  O  O19  1  0.36117000  0.67252300  0.33465200  1
  O  O20  1  0.99422900  0.99076000  0.99210600  1
  O  O21  1  0.50956000  0.99748300  0.00599700  1
  O  O22  1  0.76784900  0.02648900  0.69833900  1
  O  O23  1  0.26147000  0.99749200  0.68413800  1
  O  O24  1  0.75021000  0.67694200  0.00126600  1
  O  O25  1  0.52763100  0.05006900  0.39822500  1
  O  O26  1  0.52777300  0.33824300  0.95955000  1
  O  O27  1  0.84670800  0.34268500  0.66969800  1
