# generated using pymatgen
data_Li2V3FeO8
_symmetry_space_group_name_H-M   'P 1'
_cell_length_a   5.96414800
_cell_length_b   10.19314400
_cell_length_c   9.61075800
_cell_angle_alpha   90.00000000
_cell_angle_beta   90.00000000
_cell_angle_gamma   90.00000000
_symmetry_Int_Tables_number   1
_chemical_formula_structural   Li2V3FeO8
_chemical_formula_sum   'Li8 V12 Fe4 O32'
_cell_volume   584.27084186
_cell_formula_units_Z   4
loop_
 _symmetry_equiv_pos_site_id
 _symmetry_equiv_pos_as_xyz
  1  'x, y, z'
loop_
 _atom_site_type_symbol
 _atom_site_label
 _atom_site_symmetry_multiplicity
 _atom_site_fract_x
 _atom_site_fract_y
 _atom_site_fract_z
 _atom_site_occupancy
  Li  Li0  1  0.50000000  0.83423200  0.10579000  1
  Li  Li1  1  0.50000000  0.49692600  0.00465300  1
  Li  Li2  1  0.50000000  0.50307400  0.50465300  1
  Li  Li3  1  0.50000000  0.16576800  0.60579000  1
  Li  Li4  1  0.00000000  0.33423200  0.10579000  1
  Li  Li5  1  0.00000000  0.99692600  0.00465300  1
  Li  Li6  1  0.00000000  0.00307400  0.50465300  1
  Li  Li7  1  0.00000000  0.66576800  0.60579000  1
  V  V8  1  0.25320950  0.91201350  0.78437800  1
  V  V9  1  0.74679050  0.91201350  0.78437800  1
  V  V10  1  0.50000000  0.67104600  0.78973000  1
  V  V11  1  0.50000000  0.32895400  0.28973000  1
  V  V12  1  0.25320950  0.08798650  0.28437800  1
  V  V13  1  0.74679050  0.08798650  0.28437800  1
  V  V14  1  0.75320950  0.41201350  0.78437800  1
  V  V15  1  0.24679050  0.41201350  0.78437800  1
  V  V16  1  0.00000000  0.17104600  0.78973000  1
  V  V17  1  0.00000000  0.82895400  0.28973000  1
  V  V18  1  0.75320950  0.58798650  0.28437800  1
  V  V19  1  0.24679050  0.58798650  0.28437800  1
  Fe  Fe20  1  0.50000000  0.83878600  0.50814700  1
  Fe  Fe21  1  0.50000000  0.16121400  0.00814700  1
  Fe  Fe22  1  0.00000000  0.33878600  0.50814700  1
  Fe  Fe23  1  0.00000000  0.66121400  0.00814700  1
  O  O24  1  0.24650400  0.92352800  0.39603200  1
  O  O25  1  0.50000000  0.98115600  0.66300200  1
  O  O26  1  0.50000000  0.84314000  0.90002900  1
  O  O27  1  0.50000000  0.49576000  0.69006700  1
  O  O28  1  0.50000000  0.50424000  0.19006700  1
  O  O29  1  0.75349600  0.92352800  0.39603200  1
  O  O30  1  0.27392800  0.76528000  0.66284100  1
  O  O31  1  0.72607200  0.76528000  0.66284100  1
  O  O32  1  0.50000000  0.33316800  0.89747100  1
  O  O33  1  0.50000000  0.66683200  0.39747100  1
  O  O34  1  0.27392800  0.23472000  0.16284100  1
  O  O35  1  0.72607200  0.23472000  0.16284100  1
  O  O36  1  0.50000000  0.15686000  0.40002900  1
  O  O37  1  0.24650400  0.07647200  0.89603200  1
  O  O38  1  0.50000000  0.01884400  0.16300200  1
  O  O39  1  0.75349600  0.07647200  0.89603200  1
  O  O40  1  0.74650400  0.42352800  0.39603200  1
  O  O41  1  0.00000000  0.48115600  0.66300200  1
  O  O42  1  0.00000000  0.34314000  0.90002900  1
  O  O43  1  0.00000000  0.99576000  0.69006700  1
  O  O44  1  0.00000000  0.00424000  0.19006700  1
  O  O45  1  0.25349600  0.42352800  0.39603200  1
  O  O46  1  0.77392800  0.26528000  0.66284100  1
  O  O47  1  0.22607200  0.26528000  0.66284100  1
  O  O48  1  0.00000000  0.83316800  0.89747100  1
  O  O49  1  0.00000000  0.16683200  0.39747100  1
  O  O50  1  0.77392800  0.73472000  0.16284100  1
  O  O51  1  0.22607200  0.73472000  0.16284100  1
  O  O52  1  0.00000000  0.65686000  0.40002900  1
  O  O53  1  0.74650400  0.57647200  0.89603200  1
  O  O54  1  0.00000000  0.51884400  0.16300200  1
  O  O55  1  0.25349600  0.57647200  0.89603200  1
