# generated using pymatgen
data_Na2P2H14O13
_symmetry_space_group_name_H-M   'P 1'
_cell_length_a   14.14967800
_cell_length_b   7.01655400
_cell_length_c   13.52892312
_cell_angle_alpha   90.00000000
_cell_angle_beta   117.69912802
_cell_angle_gamma   90.00000000
_symmetry_Int_Tables_number   1
_chemical_formula_structural   Na2P2H14O13
_chemical_formula_sum   'Na8 P8 H56 O52'
_cell_volume   1189.25098175
_cell_formula_units_Z   4
loop_
 _symmetry_equiv_pos_site_id
 _symmetry_equiv_pos_as_xyz
  1  'x, y, z'
loop_
 _atom_site_type_symbol
 _atom_site_label
 _atom_site_symmetry_multiplicity
 _atom_site_fract_x
 _atom_site_fract_y
 _atom_site_fract_z
 _atom_site_occupancy
  Na  Na0  1  0.76351700  0.61869100  0.76932900  1
  Na  Na1  1  0.73648300  0.11869100  0.73067100  1
  Na  Na2  1  0.23648300  0.38130900  0.23067100  1
  Na  Na3  1  0.26351700  0.88130900  0.26932900  1
  Na  Na4  1  0.26351700  0.11869100  0.76932900  1
  Na  Na5  1  0.23648300  0.61869100  0.73067100  1
  Na  Na6  1  0.73648300  0.88130900  0.23067100  1
  Na  Na7  1  0.76351700  0.38130900  0.26932900  1
  P  P8  1  0.50011350  0.35567250  0.86043600  1
  P  P9  1  0.49988650  0.35567250  0.63956400  1
  P  P10  1  0.49988650  0.64432750  0.13956400  1
  P  P11  1  0.50011350  0.64432750  0.36043600  1
  P  P12  1  0.00011350  0.85567250  0.86043600  1
  P  P13  1  0.99988650  0.85567250  0.63956400  1
  P  P14  1  0.99988650  0.14432750  0.13956400  1
  P  P15  1  0.00011350  0.14432750  0.36043600  1
  H  H16  1  0.78241350  0.92793650  0.93190900  1
  H  H17  1  0.71758650  0.42793650  0.56809100  1
  H  H18  1  0.21758650  0.07206350  0.06809100  1
  H  H19  1  0.28241350  0.57206350  0.43190900  1
  H  H20  1  0.71335650  0.37306950  0.89815300  1
  H  H21  1  0.78664350  0.87306950  0.60184700  1
  H  H22  1  0.28664350  0.62693050  0.10184700  1
  H  H23  1  0.21335650  0.12693050  0.39815300  1
  H  H24  1  0.50028850  0.96933750  0.88607000  1
  H  H25  1  0.49971150  0.96933750  0.61393000  1
  H  H26  1  0.49971150  0.03066250  0.11393000  1
  H  H27  1  0.50028850  0.03066250  0.38607000  1
  H  H28  1  0.66076350  0.87509350  0.87538500  1
  H  H29  1  0.33923650  0.87509350  0.62461500  1
  H  H30  1  0.33923650  0.12490650  0.12461500  1
  H  H31  1  0.66076350  0.12490650  0.37538500  1
  H  H32  1  0.55764600  0.82045600  0.98108800  1
  H  H33  1  0.44235400  0.82045600  0.51891200  1
  H  H34  1  0.44235400  0.17954400  0.01891200  1
  H  H35  1  0.55764600  0.17954400  0.48108800  1
  H  H36  1  0.82279250  0.27091650  0.94155700  1
  H  H37  1  0.67720750  0.77091650  0.55844300  1
  H  H38  1  0.17720750  0.72908350  0.05844300  1
  H  H39  1  0.32279250  0.22908350  0.44155700  1
  H  H40  1  0.47404950  0.66891150  0.84789500  1
  H  H41  1  0.52595050  0.66891150  0.65210500  1
  H  H42  1  0.52595050  0.33108850  0.15210500  1
  H  H43  1  0.47404950  0.33108850  0.34789500  1
  H  H44  1  0.28241350  0.42793650  0.93190900  1
  H  H45  1  0.21758650  0.92793650  0.56809100  1
  H  H46  1  0.71758650  0.57206350  0.06809100  1
  H  H47  1  0.78241350  0.07206350  0.43190900  1
  H  H48  1  0.21335650  0.87306950  0.89815300  1
  H  H49  1  0.28664350  0.37306950  0.60184700  1
  H  H50  1  0.78664350  0.12693050  0.10184700  1
  H  H51  1  0.71335650  0.62693050  0.39815300  1
  H  H52  1  0.00028850  0.46933750  0.88607000  1
  H  H53  1  0.99971150  0.46933750  0.61393000  1
  H  H54  1  0.99971150  0.53066250  0.11393000  1
  H  H55  1  0.00028850  0.53066250  0.38607000  1
  H  H56  1  0.16076350  0.37509350  0.87538500  1
  H  H57  1  0.83923650  0.37509350  0.62461500  1
  H  H58  1  0.83923650  0.62490650  0.12461500  1
  H  H59  1  0.16076350  0.62490650  0.37538500  1
  H  H60  1  0.05764600  0.32045600  0.98108800  1
  H  H61  1  0.94235400  0.32045600  0.51891200  1
  H  H62  1  0.94235400  0.67954400  0.01891200  1
  H  H63  1  0.05764600  0.67954400  0.48108800  1
  H  H64  1  0.32279250  0.77091650  0.94155700  1
  H  H65  1  0.17720750  0.27091650  0.55844300  1
  H  H66  1  0.67720750  0.22908350  0.05844300  1
  H  H67  1  0.82279250  0.72908350  0.44155700  1
  H  H68  1  0.97404950  0.16891150  0.84789500  1
  H  H69  1  0.02595050  0.16891150  0.65210500  1
  H  H70  1  0.02595050  0.83108850  0.15210500  1
  H  H71  1  0.97404950  0.83108850  0.34789500  1
  O  O72  1  0.61376550  0.40162850  0.94582300  1
  O  O73  1  0.38623450  0.40162850  0.55417700  1
  O  O74  1  0.38623450  0.59837150  0.05417700  1
  O  O75  1  0.61376550  0.59837150  0.44582300  1
  O  O76  1  0.94130100  0.70579800  0.89163700  1
  O  O77  1  0.55869900  0.20579800  0.60836300  1
  O  O78  1  0.05869900  0.29420200  0.10836300  1
  O  O79  1  0.44130100  0.79420200  0.39163700  1
  O  O80  1  0.43046950  0.54403650  0.81724700  1
  O  O81  1  0.56953050  0.54403650  0.68275300  1
  O  O82  1  0.56953050  0.45596350  0.18275300  1
  O  O83  1  0.43046950  0.45596350  0.31724700  1
  O  O84  1  0.50000000  0.26452800  0.75000000  1
  O  O85  1  0.50000000  0.73547200  0.25000000  1
  O  O86  1  0.72310400  0.88332200  0.86117400  1
  O  O87  1  0.77689600  0.38332200  0.63882600  1
  O  O88  1  0.27689600  0.11667800  0.13882600  1
  O  O89  1  0.22310400  0.61667800  0.36117400  1
  O  O90  1  0.77106150  0.34758350  0.87786500  1
  O  O91  1  0.72893850  0.84758350  0.62213500  1
  O  O92  1  0.22893850  0.65241650  0.12213500  1
  O  O93  1  0.27106150  0.15241650  0.37786500  1
  O  O94  1  0.53972100  0.84662400  0.90133300  1
  O  O95  1  0.46027900  0.84662400  0.59866700  1
  O  O96  1  0.46027900  0.15337600  0.09866700  1
  O  O97  1  0.53972100  0.15337600  0.40133300  1
  O  O98  1  0.11376550  0.90162850  0.94582300  1
  O  O99  1  0.88623450  0.90162850  0.55417700  1
  O  O100  1  0.88623450  0.09837150  0.05417700  1
  O  O101  1  0.11376550  0.09837150  0.44582300  1
  O  O102  1  0.44130100  0.20579800  0.89163700  1
  O  O103  1  0.05869900  0.70579800  0.60836300  1
  O  O104  1  0.55869900  0.79420200  0.10836300  1
  O  O105  1  0.94130100  0.29420200  0.39163700  1
  O  O106  1  0.93046950  0.04403650  0.81724700  1
  O  O107  1  0.06953050  0.04403650  0.68275300  1
  O  O108  1  0.06953050  0.95596350  0.18275300  1
  O  O109  1  0.93046950  0.95596350  0.31724700  1
  O  O110  1  0.00000000  0.76452800  0.75000000  1
  O  O111  1  0.00000000  0.23547200  0.25000000  1
  O  O112  1  0.22310400  0.38332200  0.86117400  1
  O  O113  1  0.27689600  0.88332200  0.63882600  1
  O  O114  1  0.77689600  0.61667800  0.13882600  1
  O  O115  1  0.72310400  0.11667800  0.36117400  1
  O  O116  1  0.27106150  0.84758350  0.87786500  1
  O  O117  1  0.22893850  0.34758350  0.62213500  1
  O  O118  1  0.72893850  0.15241650  0.12213500  1
  O  O119  1  0.77106150  0.65241650  0.37786500  1
  O  O120  1  0.03972100  0.34662400  0.90133300  1
  O  O121  1  0.96027900  0.34662400  0.59866700  1
  O  O122  1  0.96027900  0.65337600  0.09866700  1
  O  O123  1  0.03972100  0.65337600  0.40133300  1
