# generated using pymatgen
data_K2Ge2O5
_symmetry_space_group_name_H-M   'P 1'
_cell_length_a   17.06838800
_cell_length_b   11.77689600
_cell_length_c   10.41420469
_cell_angle_alpha   90.00000000
_cell_angle_beta   116.37685971
_cell_angle_gamma   90.00000000
_symmetry_Int_Tables_number   1
_chemical_formula_structural   K2Ge2O5
_chemical_formula_sum   'K24 Ge24 O60'
_cell_volume   1875.44683623
_cell_formula_units_Z   12
loop_
 _symmetry_equiv_pos_site_id
 _symmetry_equiv_pos_as_xyz
  1  'x, y, z'
loop_
 _atom_site_type_symbol
 _atom_site_label
 _atom_site_symmetry_multiplicity
 _atom_site_fract_x
 _atom_site_fract_y
 _atom_site_fract_z
 _atom_site_occupancy
  K  K0  1  0.84030000  0.52875400  0.96328200  1
  K  K1  1  0.80102200  0.76558200  0.78450500  1
  K  K2  1  0.84030000  0.47124600  0.46328200  1
  K  K3  1  0.80102200  0.23441800  0.28450500  1
  K  K4  1  0.94081650  0.77729250  0.62039300  1
  K  K5  1  0.13953850  0.24472550  0.93285500  1
  K  K6  1  0.94081650  0.22270750  0.12039300  1
  K  K7  1  0.09240650  0.23341250  0.52778600  1
  K  K8  1  0.13953850  0.75527450  0.43285500  1
  K  K9  1  0.09240650  0.76658750  0.02778600  1
  K  K10  1  0.28005700  0.51609800  0.51926700  1
  K  K11  1  0.28005700  0.48390200  0.01926700  1
  K  K12  1  0.34030000  0.02875400  0.96328200  1
  K  K13  1  0.30102200  0.26558200  0.78450500  1
  K  K14  1  0.34030000  0.97124600  0.46328200  1
  K  K15  1  0.30102200  0.73441800  0.28450500  1
  K  K16  1  0.44081650  0.27729250  0.62039300  1
  K  K17  1  0.63953850  0.74472550  0.93285500  1
  K  K18  1  0.44081650  0.72270750  0.12039300  1
  K  K19  1  0.59240650  0.73341250  0.52778600  1
  K  K20  1  0.63953850  0.25527450  0.43285500  1
  K  K21  1  0.59240650  0.26658750  0.02778600  1
  K  K22  1  0.78005700  0.01609800  0.51926700  1
  K  K23  1  0.78005700  0.98390200  0.01926700  1
  Ge  Ge24  1  0.60718000  0.48340600  0.72406400  1
  Ge  Ge25  1  0.60718000  0.51659400  0.22406400  1
  Ge  Ge26  1  0.88278350  0.27047050  0.73390000  1
  Ge  Ge27  1  0.47812900  0.52028500  0.87684400  1
  Ge  Ge28  1  0.00008800  0.52049300  0.82177200  1
  Ge  Ge29  1  0.88278350  0.72952950  0.23390000  1
  Ge  Ge30  1  0.47812900  0.47971500  0.37684400  1
  Ge  Ge31  1  0.00008800  0.47950700  0.32177200  1
  Ge  Ge32  1  0.12384700  0.51551000  0.66655600  1
  Ge  Ge33  1  0.22540050  0.74771350  0.82707800  1
  Ge  Ge34  1  0.12384700  0.48449000  0.16655600  1
  Ge  Ge35  1  0.22540050  0.25228650  0.32707800  1
  Ge  Ge36  1  0.10718000  0.98340600  0.72406400  1
  Ge  Ge37  1  0.10718000  0.01659400  0.22406400  1
  Ge  Ge38  1  0.38278350  0.77047050  0.73390000  1
  Ge  Ge39  1  0.97812900  0.02028500  0.87684400  1
  Ge  Ge40  1  0.50008800  0.02049300  0.82177200  1
  Ge  Ge41  1  0.38278350  0.22952950  0.23390000  1
  Ge  Ge42  1  0.97812900  0.97971500  0.37684400  1
  Ge  Ge43  1  0.50008800  0.97950700  0.32177200  1
  Ge  Ge44  1  0.62384700  0.01551000  0.66655600  1
  Ge  Ge45  1  0.72540050  0.24771350  0.82707800  1
  Ge  Ge46  1  0.62384700  0.98449000  0.16655600  1
  Ge  Ge47  1  0.72540050  0.75228650  0.32707800  1
  O  O48  1  0.58090100  0.48374700  0.87532800  1
  O  O49  1  0.50311700  0.49706600  0.56528700  1
  O  O50  1  0.58090100  0.51625300  0.37532800  1
  O  O51  1  0.68240200  0.58718100  0.75054800  1
  O  O52  1  0.50311700  0.50293400  0.06528700  1
  O  O53  1  0.82698150  0.31021450  0.84124800  1
  O  O54  1  0.68240200  0.41281900  0.25054800  1
  O  O55  1  0.81732100  0.23838800  0.56013300  1
  O  O56  1  0.93935900  0.62420600  0.84947500  1
  O  O57  1  0.96713850  0.17337550  0.85081600  1
  O  O58  1  0.82698150  0.68978550  0.34124800  1
  O  O59  1  0.94614900  0.39266300  0.73414300  1
  O  O60  1  0.81732100  0.76161200  0.06013300  1
  O  O61  1  0.09787150  0.48123650  0.97782200  1
  O  O62  1  0.93935900  0.37579400  0.34947500  1
  O  O63  1  0.03313900  0.57581800  0.68924100  1
  O  O64  1  0.96713850  0.82662450  0.35081600  1
  O  O65  1  0.94614900  0.60733700  0.23414300  1
  O  O66  1  0.13502450  0.83646850  0.70941200  1
  O  O67  1  0.09787150  0.51876350  0.47782200  1
  O  O68  1  0.15924950  0.38804850  0.74750900  1
  O  O69  1  0.23913350  0.72278150  0.99645700  1
  O  O70  1  0.03313900  0.42418200  0.18924100  1
  O  O71  1  0.21038950  0.62092250  0.72183800  1
  O  O72  1  0.13502450  0.16353150  0.20941200  1
  O  O73  1  0.15924950  0.61195150  0.24750900  1
  O  O74  1  0.23913350  0.27721850  0.49645700  1
  O  O75  1  0.21038950  0.37907750  0.22183800  1
  O  O76  1  0.39463900  0.43640300  0.76874000  1
  O  O77  1  0.39463900  0.56359700  0.26874000  1
  O  O78  1  0.08090100  0.98374700  0.87532800  1
  O  O79  1  0.00311700  0.99706600  0.56528700  1
  O  O80  1  0.08090100  0.01625300  0.37532800  1
  O  O81  1  0.18240200  0.08718100  0.75054800  1
  O  O82  1  0.00311700  0.00293400  0.06528700  1
  O  O83  1  0.32698150  0.81021450  0.84124800  1
  O  O84  1  0.18240200  0.91281900  0.25054800  1
  O  O85  1  0.31732100  0.73838800  0.56013300  1
  O  O86  1  0.43935900  0.12420600  0.84947500  1
  O  O87  1  0.46713850  0.67337550  0.85081600  1
  O  O88  1  0.32698150  0.18978550  0.34124800  1
  O  O89  1  0.44614900  0.89266300  0.73414300  1
  O  O90  1  0.31732100  0.26161200  0.06013300  1
  O  O91  1  0.59787150  0.98123650  0.97782200  1
  O  O92  1  0.43935900  0.87579400  0.34947500  1
  O  O93  1  0.53313900  0.07581800  0.68924100  1
  O  O94  1  0.46713850  0.32662450  0.35081600  1
  O  O95  1  0.44614900  0.10733700  0.23414300  1
  O  O96  1  0.63502450  0.33646850  0.70941200  1
  O  O97  1  0.59787150  0.01876350  0.47782200  1
  O  O98  1  0.65924950  0.88804850  0.74750900  1
  O  O99  1  0.73913350  0.22278150  0.99645700  1
  O  O100  1  0.53313900  0.92418200  0.18924100  1
  O  O101  1  0.71038950  0.12092250  0.72183800  1
  O  O102  1  0.63502450  0.66353150  0.20941200  1
  O  O103  1  0.65924950  0.11195150  0.24750900  1
  O  O104  1  0.73913350  0.77721850  0.49645700  1
  O  O105  1  0.71038950  0.87907750  0.22183800  1
  O  O106  1  0.89463900  0.93640300  0.76874000  1
  O  O107  1  0.89463900  0.06359700  0.26874000  1
