# generated using pymatgen
data_ZnCrH15N5Cl4F
_symmetry_space_group_name_H-M   'P 1'
_cell_length_a   8.02902600
_cell_length_b   17.52892800
_cell_length_c   9.17435000
_cell_angle_alpha   90.00000000
_cell_angle_beta   90.00000000
_cell_angle_gamma   90.00000000
_symmetry_Int_Tables_number   1
_chemical_formula_structural   ZnCrH15N5Cl4F
_chemical_formula_sum   'Zn4 Cr4 H60 N20 Cl16 F4'
_cell_volume   1291.20002510
_cell_formula_units_Z   4
loop_
 _symmetry_equiv_pos_site_id
 _symmetry_equiv_pos_as_xyz
  1  'x, y, z'
loop_
 _atom_site_type_symbol
 _atom_site_label
 _atom_site_symmetry_multiplicity
 _atom_site_fract_x
 _atom_site_fract_y
 _atom_site_fract_z
 _atom_site_occupancy
  Zn  Zn0  1  0.00000000  0.88887700  0.47777900  1
  Zn  Zn1  1  0.50000000  0.61112300  0.97777900  1
  Zn  Zn2  1  0.50000000  0.38887700  0.47777900  1
  Zn  Zn3  1  0.00000000  0.11112300  0.97777900  1
  Cr  Cr4  1  0.00000000  0.60059400  0.57921300  1
  Cr  Cr5  1  0.50000000  0.89940600  0.07921300  1
  Cr  Cr6  1  0.50000000  0.10059400  0.57921300  1
  Cr  Cr7  1  0.00000000  0.39940600  0.07921300  1
  H  H8  1  0.71213200  0.99156400  0.63671700  1
  H  H9  1  0.28786800  0.99156400  0.63671700  1
  H  H10  1  0.78786800  0.50843600  0.13671700  1
  H  H11  1  0.21213200  0.50843600  0.13671700  1
  H  H12  1  0.14021800  0.52265600  0.79431100  1
  H  H13  1  0.85978200  0.52265600  0.79431100  1
  H  H14  1  0.35978200  0.97734400  0.29431100  1
  H  H15  1  0.64021800  0.97734400  0.29431100  1
  H  H16  1  0.29040600  0.57016400  0.70742600  1
  H  H17  1  0.70959400  0.57016400  0.70742600  1
  H  H18  1  0.20959400  0.92983600  0.20742600  1
  H  H19  1  0.79040600  0.92983600  0.20742600  1
  H  H20  1  0.89786400  0.68036100  0.81420300  1
  H  H21  1  0.10213600  0.68036100  0.81420300  1
  H  H22  1  0.60213600  0.81963900  0.31420300  1
  H  H23  1  0.39786400  0.81963900  0.31420300  1
  H  H24  1  0.00000000  0.73984800  0.70688600  1
  H  H25  1  0.50000000  0.76015200  0.20688600  1
  H  H26  1  0.78073650  0.63813250  0.37172300  1
  H  H27  1  0.21926350  0.63813250  0.37172300  1
  H  H28  1  0.71926350  0.86186750  0.87172300  1
  H  H29  1  0.28073650  0.86186750  0.87172300  1
  H  H30  1  0.84868000  0.71796500  0.44615600  1
  H  H31  1  0.15132000  0.71796500  0.44615600  1
  H  H32  1  0.65132000  0.78203500  0.94615600  1
  H  H33  1  0.34868000  0.78203500  0.94615600  1
  H  H34  1  0.70602900  0.66729300  0.53055600  1
  H  H35  1  0.29397100  0.66729300  0.53055600  1
  H  H36  1  0.79397100  0.83270700  0.03055600  1
  H  H37  1  0.20602900  0.83270700  0.03055600  1
  H  H38  1  0.21213200  0.49156400  0.63671700  1
  H  H39  1  0.78786800  0.49156400  0.63671700  1
  H  H40  1  0.28786800  0.00843600  0.13671700  1
  H  H41  1  0.71213200  0.00843600  0.13671700  1
  H  H42  1  0.64021800  0.02265600  0.79431100  1
  H  H43  1  0.35978200  0.02265600  0.79431100  1
  H  H44  1  0.85978200  0.47734400  0.29431100  1
  H  H45  1  0.14021800  0.47734400  0.29431100  1
  H  H46  1  0.79040600  0.07016400  0.70742600  1
  H  H47  1  0.20959400  0.07016400  0.70742600  1
  H  H48  1  0.70959400  0.42983600  0.20742600  1
  H  H49  1  0.29040600  0.42983600  0.20742600  1
  H  H50  1  0.39786400  0.18036100  0.81420300  1
  H  H51  1  0.60213600  0.18036100  0.81420300  1
  H  H52  1  0.10213600  0.31963900  0.31420300  1
  H  H53  1  0.89786400  0.31963900  0.31420300  1
  H  H54  1  0.50000000  0.23984800  0.70688600  1
  H  H55  1  0.00000000  0.26015200  0.20688600  1
  H  H56  1  0.28073650  0.13813250  0.37172300  1
  H  H57  1  0.71926350  0.13813250  0.37172300  1
  H  H58  1  0.21926350  0.36186750  0.87172300  1
  H  H59  1  0.78073650  0.36186750  0.87172300  1
  H  H60  1  0.34868000  0.21796500  0.44615600  1
  H  H61  1  0.65132000  0.21796500  0.44615600  1
  H  H62  1  0.15132000  0.28203500  0.94615600  1
  H  H63  1  0.84868000  0.28203500  0.94615600  1
  H  H64  1  0.20602900  0.16729300  0.53055600  1
  H  H65  1  0.79397100  0.16729300  0.53055600  1
  H  H66  1  0.29397100  0.33270700  0.03055600  1
  H  H67  1  0.70602900  0.33270700  0.03055600  1
  N  N68  1  0.18199050  0.54019350  0.69342800  1
  N  N69  1  0.81800950  0.54019350  0.69342800  1
  N  N70  1  0.31800950  0.95980650  0.19342800  1
  N  N71  1  0.68199050  0.95980650  0.19342800  1
  N  N72  1  0.00000000  0.68527900  0.74783200  1
  N  N73  1  0.50000000  0.81472100  0.24783200  1
  N  N74  1  0.81209050  0.66298850  0.46874700  1
  N  N75  1  0.18790950  0.66298850  0.46874700  1
  N  N76  1  0.68790950  0.83701150  0.96874700  1
  N  N77  1  0.31209050  0.83701150  0.96874700  1
  N  N78  1  0.68199050  0.04019350  0.69342800  1
  N  N79  1  0.31800950  0.04019350  0.69342800  1
  N  N80  1  0.81800950  0.45980650  0.19342800  1
  N  N81  1  0.18199050  0.45980650  0.19342800  1
  N  N82  1  0.50000000  0.18527900  0.74783200  1
  N  N83  1  0.00000000  0.31472100  0.24783200  1
  N  N84  1  0.31209050  0.16298850  0.46874700  1
  N  N85  1  0.68790950  0.16298850  0.46874700  1
  N  N86  1  0.18790950  0.33701150  0.96874700  1
  N  N87  1  0.81209050  0.33701150  0.96874700  1
  Cl  Cl88  1  0.00000000  0.82068900  0.25560300  1
  Cl  Cl89  1  0.50000000  0.67931100  0.75560300  1
  Cl  Cl90  1  0.50000000  0.51564600  0.43510800  1
  Cl  Cl91  1  0.00000000  0.98435400  0.93510800  1
  Cl  Cl92  1  0.76089550  0.84787050  0.58842000  1
  Cl  Cl93  1  0.23910450  0.84787050  0.58842000  1
  Cl  Cl94  1  0.73910450  0.65212950  0.08842000  1
  Cl  Cl95  1  0.26089550  0.65212950  0.08842000  1
  Cl  Cl96  1  0.50000000  0.32068900  0.25560300  1
  Cl  Cl97  1  0.00000000  0.17931100  0.75560300  1
  Cl  Cl98  1  0.00000000  0.01564600  0.43510800  1
  Cl  Cl99  1  0.50000000  0.48435400  0.93510800  1
  Cl  Cl100  1  0.26089550  0.34787050  0.58842000  1
  Cl  Cl101  1  0.73910450  0.34787050  0.58842000  1
  Cl  Cl102  1  0.23910450  0.15212950  0.08842000  1
  Cl  Cl103  1  0.76089550  0.15212950  0.08842000  1
  F  F104  1  0.00000000  0.52404800  0.42930400  1
  F  F105  1  0.50000000  0.97595200  0.92930400  1
  F  F106  1  0.50000000  0.02404800  0.42930400  1
  F  F107  1  0.00000000  0.47595200  0.92930400  1
