# generated using pymatgen
data_Li3Co2(PO4)3
_symmetry_space_group_name_H-M   'P 1'
_cell_length_a   8.31827421
_cell_length_b   8.31827421
_cell_length_c   22.23245590
_cell_angle_alpha   90.00000000
_cell_angle_beta   90.00000000
_cell_angle_gamma   120.00000000
_symmetry_Int_Tables_number   1
_chemical_formula_structural   Li3Co2(PO4)3
_chemical_formula_sum   'Li18 Co12 P18 O72'
_cell_volume   1332.24634355
_cell_formula_units_Z   6
loop_
 _symmetry_equiv_pos_site_id
 _symmetry_equiv_pos_as_xyz
  1  'x, y, z'
loop_
 _atom_site_type_symbol
 _atom_site_label
 _atom_site_symmetry_multiplicity
 _atom_site_fract_x
 _atom_site_fract_y
 _atom_site_fract_z
 _atom_site_occupancy
  Li  Li0  1  0.68694867  0.96966333  0.04892233  1
  Li  Li1  1  0.03033667  0.71728533  0.04892233  1
  Li  Li2  1  0.28271467  0.31305133  0.04892233  1
  Li  Li3  1  0.38395200  0.02028200  0.28441100  1
  Li  Li4  1  0.63633000  0.61604800  0.28441100  1
  Li  Li5  1  0.97971800  0.36367000  0.28441100  1
  Li  Li6  1  0.35361533  0.30299667  0.38225567  1
  Li  Li7  1  0.69700333  0.05061867  0.38225567  1
  Li  Li8  1  0.94938133  0.64638467  0.38225567  1
  Li  Li9  1  0.05061867  0.35361533  0.61774433  1
  Li  Li10  1  0.30299667  0.94938133  0.61774433  1
  Li  Li11  1  0.64638467  0.69700333  0.61774433  1
  Li  Li12  1  0.02028200  0.63633000  0.71558900  1
  Li  Li13  1  0.36367000  0.38395200  0.71558900  1
  Li  Li14  1  0.61604800  0.97971800  0.71558900  1
  Li  Li15  1  0.71728533  0.68694867  0.95107767  1
  Li  Li16  1  0.96966333  0.28271467  0.95107767  1
  Li  Li17  1  0.31305133  0.03033667  0.95107767  1
  Co  Co18  1  0.00000000  0.00000000  0.14765400  1
  Co  Co19  1  0.33333333  0.66666667  0.01388667  1
  Co  Co20  1  0.33333333  0.66666667  0.31944667  1
  Co  Co21  1  0.66666667  0.33333333  0.18567933  1
  Co  Co22  1  0.66666667  0.33333333  0.48098733  1
  Co  Co23  1  0.00000000  0.00000000  0.34722000  1
  Co  Co24  1  0.00000000  0.00000000  0.65278000  1
  Co  Co25  1  0.33333333  0.66666667  0.51901267  1
  Co  Co26  1  0.33333333  0.66666667  0.81432067  1
  Co  Co27  1  0.66666667  0.33333333  0.68055333  1
  Co  Co28  1  0.66666667  0.33333333  0.98611333  1
  Co  Co29  1  0.00000000  0.00000000  0.85234600  1
  P  P30  1  0.37957767  0.03964533  0.08209333  1
  P  P31  1  0.66006767  0.62042233  0.08209333  1
  P  P32  1  0.96035467  0.33993233  0.08209333  1
  P  P33  1  0.70631200  0.99340100  0.25124000  1
  P  P34  1  0.00659900  0.71291100  0.25124000  1
  P  P35  1  0.28708900  0.29368800  0.25124000  1
  P  P36  1  0.04624433  0.37297867  0.41542667  1
  P  P37  1  0.32673433  0.95375567  0.41542667  1
  P  P38  1  0.62702133  0.67326567  0.41542667  1
  P  P39  1  0.37297867  0.32673433  0.58457333  1
  P  P40  1  0.67326567  0.04624433  0.58457333  1
  P  P41  1  0.95375567  0.62702133  0.58457333  1
  P  P42  1  0.71291100  0.70631200  0.74876000  1
  P  P43  1  0.99340100  0.28708900  0.74876000  1
  P  P44  1  0.29368800  0.00659900  0.74876000  1
  P  P45  1  0.03964533  0.66006767  0.91790667  1
  P  P46  1  0.33993233  0.37957767  0.91790667  1
  P  P47  1  0.62042233  0.96035467  0.91790667  1
  O  O48  1  0.22939467  0.14186933  0.30275633  1
  O  O49  1  0.85813067  0.08752533  0.30275633  1
  O  O50  1  0.91247467  0.77060533  0.30275633  1
  O  O51  1  0.42955933  0.89015467  0.06454367  1
  O  O52  1  0.16800033  0.95854567  0.08550967  1
  O  O53  1  0.47433767  0.12807033  0.14132733  1
  O  O54  1  0.79054533  0.83199967  0.08550967  1
  O  O55  1  0.46059533  0.57044067  0.06454367  1
  O  O56  1  0.10984533  0.53940467  0.06454367  1
  O  O57  1  0.79473700  0.98706600  0.19200600  1
  O  O58  1  0.62521233  0.12387867  0.24782367  1
  O  O59  1  0.01293400  0.80767100  0.19200600  1
  O  O60  1  0.65373267  0.52566233  0.14132733  1
  O  O61  1  0.04145433  0.20945467  0.08550967  1
  O  O62  1  0.87192967  0.34626733  0.14132733  1
  O  O63  1  0.55682133  0.79392867  0.26878967  1
  O  O64  1  0.20607133  0.76289267  0.26878967  1
  O  O65  1  0.87612133  0.50133367  0.24782367  1
  O  O66  1  0.19232900  0.20526300  0.19200600  1
  O  O67  1  0.49866633  0.37478767  0.24782367  1
  O  O68  1  0.23710733  0.44317867  0.26878967  1
  O  O69  1  0.75419200  0.56272800  0.03057700  1
  O  O70  1  0.80853600  0.24580800  0.03057700  1
  O  O71  1  0.43727200  0.19146400  0.03057700  1
  O  O72  1  0.89606133  0.47520267  0.63608967  1
  O  O73  1  0.52479733  0.42085867  0.63608967  1
  O  O74  1  0.57914133  0.10393867  0.63608967  1
  O  O75  1  0.09622600  0.22348800  0.39787700  1
  O  O76  1  0.83466700  0.29187900  0.41884300  1
  O  O77  1  0.14100433  0.46140367  0.47466067  1
  O  O78  1  0.45721200  0.16533300  0.41884300  1
  O  O79  1  0.12726200  0.90377400  0.39787700  1
  O  O80  1  0.77651200  0.87273800  0.39787700  1
  O  O81  1  0.46140367  0.32039933  0.52533933  1
  O  O82  1  0.29187900  0.45721200  0.58115700  1
  O  O83  1  0.67960067  0.14100433  0.52533933  1
  O  O84  1  0.32039933  0.85899567  0.47466067  1
  O  O85  1  0.70812100  0.54278800  0.41884300  1
  O  O86  1  0.53859633  0.67960067  0.47466067  1
  O  O87  1  0.22348800  0.12726200  0.60212300  1
  O  O88  1  0.87273800  0.09622600  0.60212300  1
  O  O89  1  0.54278800  0.83466700  0.58115700  1
  O  O90  1  0.85899567  0.53859633  0.52533933  1
  O  O91  1  0.16533300  0.70812100  0.58115700  1
  O  O92  1  0.90377400  0.77651200  0.60212300  1
  O  O93  1  0.42085867  0.89606133  0.36391033  1
  O  O94  1  0.47520267  0.57914133  0.36391033  1
  O  O95  1  0.10393867  0.52479733  0.36391033  1
  O  O96  1  0.56272800  0.80853600  0.96942300  1
  O  O97  1  0.19146400  0.75419200  0.96942300  1
  O  O98  1  0.24580800  0.43727200  0.96942300  1
  O  O99  1  0.76289267  0.55682133  0.73121033  1
  O  O100  1  0.50133367  0.62521233  0.75217633  1
  O  O101  1  0.80767100  0.79473700  0.80799400  1
  O  O102  1  0.12387867  0.49866633  0.75217633  1
  O  O103  1  0.79392867  0.23710733  0.73121033  1
  O  O104  1  0.44317867  0.20607133  0.73121033  1
  O  O105  1  0.12807033  0.65373267  0.85867267  1
  O  O106  1  0.95854567  0.79054533  0.91449033  1
  O  O107  1  0.34626733  0.47433767  0.85867267  1
  O  O108  1  0.98706600  0.19232900  0.80799400  1
  O  O109  1  0.37478767  0.87612133  0.75217633  1
  O  O110  1  0.20526300  0.01293400  0.80799400  1
  O  O111  1  0.89015467  0.46059533  0.93545633  1
  O  O112  1  0.53940467  0.42955933  0.93545633  1
  O  O113  1  0.20945467  0.16800033  0.91449033  1
  O  O114  1  0.52566233  0.87192967  0.85867267  1
  O  O115  1  0.83199967  0.04145433  0.91449033  1
  O  O116  1  0.57044067  0.10984533  0.93545633  1
  O  O117  1  0.08752533  0.22939467  0.69724367  1
  O  O118  1  0.14186933  0.91247467  0.69724367  1
  O  O119  1  0.77060533  0.85813067  0.69724367  1
