# generated using pymatgen
data_Ti3Nb2Cr(PO4)6
_symmetry_space_group_name_H-M   'P 1'
_cell_length_a   8.70995799
_cell_length_b   8.70995799
_cell_length_c   21.06750263
_cell_angle_alpha   90.00000000
_cell_angle_beta   90.00000000
_cell_angle_gamma   120.00000000
_symmetry_Int_Tables_number   1
_chemical_formula_structural   Ti3Nb2Cr(PO4)6
_chemical_formula_sum   'Ti9 Nb6 Cr3 P18 O72'
_cell_volume   1384.12658167
_cell_formula_units_Z   3
loop_
 _symmetry_equiv_pos_site_id
 _symmetry_equiv_pos_as_xyz
  1  'x, y, z'
loop_
 _atom_site_type_symbol
 _atom_site_label
 _atom_site_symmetry_multiplicity
 _atom_site_fract_x
 _atom_site_fract_y
 _atom_site_fract_z
 _atom_site_occupancy
  Ti  Ti0  1  0.33333333  0.66666667  0.80986467  1
  Ti  Ti1  1  0.33333333  0.66666667  0.02451767  1
  Ti  Ti2  1  0.33333333  0.66666667  0.30767367  1
  Ti  Ti3  1  0.00000000  0.00000000  0.14319800  1
  Ti  Ti4  1  0.00000000  0.00000000  0.35785100  1
  Ti  Ti5  1  0.00000000  0.00000000  0.64100700  1
  Ti  Ti6  1  0.66666667  0.33333333  0.47653133  1
  Ti  Ti7  1  0.66666667  0.33333333  0.69118433  1
  Ti  Ti8  1  0.66666667  0.33333333  0.97434033  1
  Nb  Nb9  1  0.33333333  0.66666667  0.66874867  1
  Nb  Nb10  1  0.33333333  0.66666667  0.16672767  1
  Nb  Nb11  1  0.00000000  0.00000000  0.00208200  1
  Nb  Nb12  1  0.00000000  0.00000000  0.50006100  1
  Nb  Nb13  1  0.66666667  0.33333333  0.33541533  1
  Nb  Nb14  1  0.66666667  0.33333333  0.83339433  1
  Cr  Cr15  1  0.33333333  0.66666667  0.52266767  1
  Cr  Cr16  1  0.00000000  0.00000000  0.85600100  1
  Cr  Cr17  1  0.66666667  0.33333333  0.18933433  1
  P  P18  1  0.66579533  0.62137967  0.08351967  1
  P  P19  1  0.95558433  0.33420467  0.08351967  1
  P  P20  1  0.29247233  0.28871467  0.24999067  1
  P  P21  1  0.71128533  0.00375767  0.24999067  1
  P  P22  1  0.99624233  0.70752767  0.24999067  1
  P  P23  1  0.37862033  0.04441567  0.08351967  1
  P  P24  1  0.33246200  0.95471300  0.41685300  1
  P  P25  1  0.62225100  0.66753800  0.41685300  1
  P  P26  1  0.95913900  0.62204800  0.58332400  1
  P  P27  1  0.37795200  0.33709100  0.58332400  1
  P  P28  1  0.66290900  0.04086100  0.58332400  1
  P  P29  1  0.04528700  0.37774900  0.41685300  1
  P  P30  1  0.99912867  0.28804633  0.75018633  1
  P  P31  1  0.28891767  0.00087133  0.75018633  1
  P  P32  1  0.62580567  0.95538133  0.91665733  1
  P  P33  1  0.04461867  0.67042433  0.91665733  1
  P  P34  1  0.32957567  0.37419433  0.91665733  1
  P  P35  1  0.71195367  0.71108233  0.75018633  1
  O  O36  1  0.33242100  0.47381900  0.97673000  1
  O  O37  1  0.52618100  0.85860200  0.97673000  1
  O  O38  1  0.83339867  0.81279333  0.07859433  1
  O  O39  1  0.14139800  0.66757900  0.97673000  1
  O  O40  1  0.66346067  0.52765833  0.14405433  1
  O  O41  1  0.50016000  0.64806500  0.08803800  1
  O  O42  1  0.97939467  0.16660133  0.07859433  1
  O  O43  1  0.14790500  0.49984000  0.08803800  1
  O  O44  1  0.19391333  0.18984967  0.18980967  1
  O  O45  1  0.35193500  0.85209500  0.08803800  1
  O  O46  1  0.48193533  0.31252767  0.25598467  1
  O  O47  1  0.81015033  0.00406367  0.18980967  1
  O  O48  1  0.86419767  0.33653933  0.14405433  1
  O  O49  1  0.18720667  0.02060533  0.07859433  1
  O  O50  1  0.31323100  0.47748400  0.24408700  1
  O  O51  1  0.47234167  0.13580233  0.14405433  1
  O  O52  1  0.52251600  0.83574700  0.24408700  1
  O  O53  1  0.68747233  0.16940767  0.25598467  1
  O  O54  1  0.16425300  0.68676900  0.24408700  1
  O  O55  1  0.99593633  0.80608667  0.18980967  1
  O  O56  1  0.52723133  0.66736967  0.35579067  1
  O  O57  1  0.83059233  0.51806467  0.25598467  1
  O  O58  1  0.14013833  0.47276867  0.35579067  1
  O  O59  1  0.33263033  0.85986167  0.35579067  1
  O  O60  1  0.99908767  0.80715233  0.31006333  1
  O  O61  1  0.19284767  0.19193533  0.31006333  1
  O  O62  1  0.50006533  0.14612667  0.41192767  1
  O  O63  1  0.80806467  0.00091233  0.31006333  1
  O  O64  1  0.33012733  0.86099167  0.47738767  1
  O  O65  1  0.16682667  0.98139833  0.42137133  1
  O  O66  1  0.64606133  0.49993467  0.41192767  1
  O  O67  1  0.81457167  0.83317333  0.42137133  1
  O  O68  1  0.86058000  0.52318300  0.52314300  1
  O  O69  1  0.01860167  0.18542833  0.42137133  1
  O  O70  1  0.14860200  0.64586100  0.58931800  1
  O  O71  1  0.47681700  0.33739700  0.52314300  1
  O  O72  1  0.53086433  0.66987267  0.47738767  1
  O  O73  1  0.85387333  0.35393867  0.41192767  1
  O  O74  1  0.97989767  0.81081733  0.57742033  1
  O  O75  1  0.13900833  0.46913567  0.47738767  1
  O  O76  1  0.18918267  0.16908033  0.57742033  1
  O  O77  1  0.35413900  0.50274100  0.58931800  1
  O  O78  1  0.83091967  0.02010233  0.57742033  1
  O  O79  1  0.66260300  0.13942000  0.52314300  1
  O  O80  1  0.19389800  0.00070300  0.68912400  1
  O  O81  1  0.49725900  0.85139800  0.58931800  1
  O  O82  1  0.80680500  0.80610200  0.68912400  1
  O  O83  1  0.99929700  0.19319500  0.68912400  1
  O  O84  1  0.66575433  0.14048567  0.64339667  1
  O  O85  1  0.85951433  0.52526867  0.64339667  1
  O  O86  1  0.16673200  0.47946000  0.74526100  1
  O  O87  1  0.47473133  0.33424567  0.64339667  1
  O  O88  1  0.99679400  0.19432500  0.81072100  1
  O  O89  1  0.83349333  0.31473167  0.75470467  1
  O  O90  1  0.31272800  0.83326800  0.74526100  1
  O  O91  1  0.48123833  0.16650667  0.75470467  1
  O  O92  1  0.52724667  0.85651633  0.85647633  1
  O  O93  1  0.68526833  0.51876167  0.75470467  1
  O  O94  1  0.81526867  0.97919433  0.92265133  1
  O  O95  1  0.14348367  0.67073033  0.85647633  1
  O  O96  1  0.19753100  0.00320600  0.81072100  1
  O  O97  1  0.52054000  0.68727200  0.74526100  1
  O  O98  1  0.64656433  0.14415067  0.91075367  1
  O  O99  1  0.80567500  0.80246900  0.81072100  1
  O  O100  1  0.85584933  0.50241367  0.91075367  1
  O  O101  1  0.02080567  0.83607433  0.92265133  1
  O  O102  1  0.49758633  0.35343567  0.91075367  1
  O  O103  1  0.32926967  0.47275333  0.85647633  1
  O  O104  1  0.86056467  0.33403633  0.02245733  1
  O  O105  1  0.16392567  0.18473133  0.92265133  1
  O  O106  1  0.47347167  0.13943533  0.02245733  1
  O  O107  1  0.66596367  0.52652833  0.02245733  1
