# generated using pymatgen
data_KSiHO3
_symmetry_space_group_name_H-M   'P 1'
_cell_length_a   9.72159000
_cell_length_b   11.73708800
_cell_length_c   11.44171500
_cell_angle_alpha   90.00000000
_cell_angle_beta   90.00000000
_cell_angle_gamma   90.00000000
_symmetry_Int_Tables_number   1
_chemical_formula_structural   KSiHO3
_chemical_formula_sum   'K16 Si16 H16 O48'
_cell_volume   1305.53580677
_cell_formula_units_Z   16
loop_
 _symmetry_equiv_pos_site_id
 _symmetry_equiv_pos_as_xyz
  1  'x, y, z'
loop_
 _atom_site_type_symbol
 _atom_site_label
 _atom_site_symmetry_multiplicity
 _atom_site_fract_x
 _atom_site_fract_y
 _atom_site_fract_z
 _atom_site_occupancy
  K  K0  1  0.32246300  0.00000000  0.54305100  1
  K  K1  1  0.67753700  0.00000000  0.45694900  1
  K  K2  1  0.17753700  0.00000000  0.04305100  1
  K  K3  1  0.82246300  0.00000000  0.95694900  1
  K  K4  1  0.26052700  0.25000000  0.25000000  1
  K  K5  1  0.73947300  0.25000000  0.75000000  1
  K  K6  1  0.73947300  0.75000000  0.75000000  1
  K  K7  1  0.26052700  0.75000000  0.25000000  1
  K  K8  1  0.82246300  0.50000000  0.54305100  1
  K  K9  1  0.17753700  0.50000000  0.45694900  1
  K  K10  1  0.67753700  0.50000000  0.04305100  1
  K  K11  1  0.32246300  0.50000000  0.95694900  1
  K  K12  1  0.76052700  0.75000000  0.25000000  1
  K  K13  1  0.23947300  0.75000000  0.75000000  1
  K  K14  1  0.23947300  0.25000000  0.75000000  1
  K  K15  1  0.76052700  0.25000000  0.25000000  1
  Si  Si16  1  0.48371600  0.00000000  0.81624200  1
  Si  Si17  1  0.51628400  0.00000000  0.18375800  1
  Si  Si18  1  0.01628400  0.00000000  0.31624200  1
  Si  Si19  1  0.98371600  0.00000000  0.68375800  1
  Si  Si20  1  0.50000000  0.19651700  0.00000000  1
  Si  Si21  1  0.50000000  0.69651700  0.50000000  1
  Si  Si22  1  0.50000000  0.80348300  0.00000000  1
  Si  Si23  1  0.50000000  0.30348300  0.50000000  1
  Si  Si24  1  0.98371600  0.50000000  0.81624200  1
  Si  Si25  1  0.01628400  0.50000000  0.18375800  1
  Si  Si26  1  0.51628400  0.50000000  0.31624200  1
  Si  Si27  1  0.48371600  0.50000000  0.68375800  1
  Si  Si28  1  0.00000000  0.69651700  0.00000000  1
  Si  Si29  1  0.00000000  0.19651700  0.50000000  1
  Si  Si30  1  0.00000000  0.30348300  0.00000000  1
  Si  Si31  1  0.00000000  0.80348300  0.50000000  1
  H  H32  1  0.16846000  0.00000000  0.80653900  1
  H  H33  1  0.83154000  0.00000000  0.19346100  1
  H  H34  1  0.33154000  0.00000000  0.30653900  1
  H  H35  1  0.66846000  0.00000000  0.69346100  1
  H  H36  1  0.25000000  0.25000000  0.00000000  1
  H  H37  1  0.25000000  0.75000000  0.00000000  1
  H  H38  1  0.25000000  0.25000000  0.50000000  1
  H  H39  1  0.25000000  0.75000000  0.50000000  1
  H  H40  1  0.66846000  0.50000000  0.80653900  1
  H  H41  1  0.33154000  0.50000000  0.19346100  1
  H  H42  1  0.83154000  0.50000000  0.30653900  1
  H  H43  1  0.16846000  0.50000000  0.69346100  1
  H  H44  1  0.75000000  0.75000000  0.00000000  1
  H  H45  1  0.75000000  0.25000000  0.00000000  1
  H  H46  1  0.75000000  0.75000000  0.50000000  1
  H  H47  1  0.75000000  0.25000000  0.50000000  1
  O  O48  1  0.54565950  0.61255250  0.61150600  1
  O  O49  1  0.45434050  0.61255250  0.38849400  1
  O  O50  1  0.45434050  0.11255250  0.11150600  1
  O  O51  1  0.54565950  0.11255250  0.88849400  1
  O  O52  1  0.45434050  0.38744750  0.38849400  1
  O  O53  1  0.54565950  0.38744750  0.61150600  1
  O  O54  1  0.54565950  0.88744750  0.88849400  1
  O  O55  1  0.45434050  0.88744750  0.11150600  1
  O  O56  1  0.36551050  0.27153150  0.96686000  1
  O  O57  1  0.63448950  0.27153150  0.03314000  1
  O  O58  1  0.63448950  0.77153150  0.46686000  1
  O  O59  1  0.36551050  0.77153150  0.53314000  1
  O  O60  1  0.63448950  0.72846850  0.03314000  1
  O  O61  1  0.36551050  0.72846850  0.96686000  1
  O  O62  1  0.36551050  0.22846850  0.53314000  1
  O  O63  1  0.63448950  0.22846850  0.46686000  1
  O  O64  1  0.06242600  0.00000000  0.81182400  1
  O  O65  1  0.93757400  0.00000000  0.18817600  1
  O  O66  1  0.43757400  0.00000000  0.31182400  1
  O  O67  1  0.56242600  0.00000000  0.68817600  1
  O  O68  1  0.32140000  0.00000000  0.79903700  1
  O  O69  1  0.67860000  0.00000000  0.20096300  1
  O  O70  1  0.17860000  0.00000000  0.29903700  1
  O  O71  1  0.82140000  0.00000000  0.70096300  1
  O  O72  1  0.04565950  0.11255250  0.61150600  1
  O  O73  1  0.95434050  0.11255250  0.38849400  1
  O  O74  1  0.95434050  0.61255250  0.11150600  1
  O  O75  1  0.04565950  0.61255250  0.88849400  1
  O  O76  1  0.95434050  0.88744750  0.38849400  1
  O  O77  1  0.04565950  0.88744750  0.61150600  1
  O  O78  1  0.04565950  0.38744750  0.88849400  1
  O  O79  1  0.95434050  0.38744750  0.11150600  1
  O  O80  1  0.86551050  0.77153150  0.96686000  1
  O  O81  1  0.13448950  0.77153150  0.03314000  1
  O  O82  1  0.13448950  0.27153150  0.46686000  1
  O  O83  1  0.86551050  0.27153150  0.53314000  1
  O  O84  1  0.13448950  0.22846850  0.03314000  1
  O  O85  1  0.86551050  0.22846850  0.96686000  1
  O  O86  1  0.86551050  0.72846850  0.53314000  1
  O  O87  1  0.13448950  0.72846850  0.46686000  1
  O  O88  1  0.56242600  0.50000000  0.81182400  1
  O  O89  1  0.43757400  0.50000000  0.18817600  1
  O  O90  1  0.93757400  0.50000000  0.31182400  1
  O  O91  1  0.06242600  0.50000000  0.68817600  1
  O  O92  1  0.82140000  0.50000000  0.79903700  1
  O  O93  1  0.17860000  0.50000000  0.20096300  1
  O  O94  1  0.67860000  0.50000000  0.29903700  1
  O  O95  1  0.32140000  0.50000000  0.70096300  1
