# generated using pymatgen
data_K2NaMo(OF)3
_symmetry_space_group_name_H-M   'P 1'
_cell_length_a   6.02599600
_cell_length_b   6.02599600
_cell_length_c   8.67309800
_cell_angle_alpha   90.00000000
_cell_angle_beta   90.00000000
_cell_angle_gamma   90.00000000
_symmetry_Int_Tables_number   1
_chemical_formula_structural   K2NaMo(OF)3
_chemical_formula_sum   'K4 Na2 Mo2 O6 F6'
_cell_volume   314.94297948
_cell_formula_units_Z   2
loop_
 _symmetry_equiv_pos_site_id
 _symmetry_equiv_pos_as_xyz
  1  'x, y, z'
loop_
 _atom_site_type_symbol
 _atom_site_label
 _atom_site_symmetry_multiplicity
 _atom_site_fract_x
 _atom_site_fract_y
 _atom_site_fract_z
 _atom_site_occupancy
  K  K0  1  0.50000000  0.00000000  0.75832000  1
  K  K1  1  0.00000000  0.50000000  0.25832000  1
  K  K2  1  0.50000000  0.00000000  0.25832000  1
  K  K3  1  0.00000000  0.50000000  0.75832000  1
  Na  Na4  1  0.50000000  0.50000000  0.50543000  1
  Na  Na5  1  0.00000000  0.00000000  0.00543000  1
  Mo  Mo6  1  0.50000000  0.50000000  0.02257700  1
  Mo  Mo7  1  0.00000000  0.00000000  0.52257700  1
  O  O8  1  0.50000000  0.50000000  0.22761600  1
  O  O9  1  0.71239000  0.28761000  0.98077900  1
  O  O10  1  0.21239000  0.21239000  0.48077900  1
  O  O11  1  0.00000000  0.00000000  0.72761600  1
  O  O12  1  0.78761000  0.78761000  0.48077900  1
  O  O13  1  0.28761000  0.71239000  0.98077900  1
  F  F14  1  0.23616800  0.76383200  0.50322500  1
  F  F15  1  0.50000000  0.50000000  0.76563200  1
  F  F16  1  0.26383200  0.26383200  0.00322500  1
  F  F17  1  0.00000000  0.00000000  0.26563200  1
  F  F18  1  0.73616800  0.73616800  0.00322500  1
  F  F19  1  0.76383200  0.23616800  0.50322500  1
