# generated using pymatgen
data_Na3CuO2
_symmetry_space_group_name_H-M   'P 1'
_cell_length_a   5.34128000
_cell_length_b   6.01466800
_cell_length_c   10.57138800
_cell_angle_alpha   90.00000000
_cell_angle_beta   90.00000000
_cell_angle_gamma   90.00000000
_symmetry_Int_Tables_number   1
_chemical_formula_structural   Na3CuO2
_chemical_formula_sum   'Na12 Cu4 O8'
_cell_volume   339.61668463
_cell_formula_units_Z   4
loop_
 _symmetry_equiv_pos_site_id
 _symmetry_equiv_pos_as_xyz
  1  'x, y, z'
loop_
 _atom_site_type_symbol
 _atom_site_label
 _atom_site_symmetry_multiplicity
 _atom_site_fract_x
 _atom_site_fract_y
 _atom_site_fract_z
 _atom_site_occupancy
  Na  Na0  1  0.50000000  0.25000000  0.26286100  1
  Na  Na1  1  0.50000000  0.25000000  0.00000000  1
  Na  Na2  1  0.50000000  0.75000000  0.00000000  1
  Na  Na3  1  0.50000000  0.75000000  0.26286100  1
  Na  Na4  1  0.00000000  0.25000000  0.23713900  1
  Na  Na5  1  0.00000000  0.75000000  0.23713900  1
  Na  Na6  1  0.00000000  0.75000000  0.76286100  1
  Na  Na7  1  0.00000000  0.75000000  0.50000000  1
  Na  Na8  1  0.00000000  0.25000000  0.50000000  1
  Na  Na9  1  0.00000000  0.25000000  0.76286100  1
  Na  Na10  1  0.50000000  0.75000000  0.73713900  1
  Na  Na11  1  0.50000000  0.25000000  0.73713900  1
  Cu  Cu12  1  0.00000000  0.00000000  0.00000000  1
  Cu  Cu13  1  0.00000000  0.50000000  0.00000000  1
  Cu  Cu14  1  0.50000000  0.50000000  0.50000000  1
  Cu  Cu15  1  0.50000000  0.00000000  0.50000000  1
  O  O16  1  0.74945800  0.50000000  0.12427000  1
  O  O17  1  0.25054200  0.00000000  0.12427000  1
  O  O18  1  0.24945800  0.50000000  0.37573000  1
  O  O19  1  0.75054200  0.00000000  0.37573000  1
  O  O20  1  0.24945800  0.00000000  0.62427000  1
  O  O21  1  0.75054200  0.50000000  0.62427000  1
  O  O22  1  0.74945800  0.00000000  0.87573000  1
  O  O23  1  0.25054200  0.50000000  0.87573000  1
