# generated using pymatgen
data_LiP5W3O19
_symmetry_space_group_name_H-M   'P 1'
_cell_length_a   9.59250600
_cell_length_b   14.70295400
_cell_length_c   6.55686487
_cell_angle_alpha   90.00000000
_cell_angle_beta   106.26589229
_cell_angle_gamma   90.00000000
_symmetry_Int_Tables_number   1
_chemical_formula_structural   LiP5W3O19
_chemical_formula_sum   'Li2 P10 W6 O38'
_cell_volume   887.75181364
_cell_formula_units_Z   2
loop_
 _symmetry_equiv_pos_site_id
 _symmetry_equiv_pos_as_xyz
  1  'x, y, z'
loop_
 _atom_site_type_symbol
 _atom_site_label
 _atom_site_symmetry_multiplicity
 _atom_site_fract_x
 _atom_site_fract_y
 _atom_site_fract_z
 _atom_site_occupancy
  Li  Li0  1  0.90536000  0.00000000  0.46647500  1
  Li  Li1  1  0.40536000  0.50000000  0.46647500  1
  P  P2  1  0.32291300  0.00000000  0.69564000  1
  P  P3  1  0.54133000  0.85181800  0.27200900  1
  P  P4  1  0.54133000  0.14818200  0.27200900  1
  P  P5  1  0.50137050  0.68637950  0.00379000  1
  P  P6  1  0.50137050  0.31362050  0.00379000  1
  P  P7  1  0.82291300  0.50000000  0.69564000  1
  P  P8  1  0.04133000  0.35181800  0.27200900  1
  P  P9  1  0.04133000  0.64818200  0.27200900  1
  P  P10  1  0.00137050  0.18637950  0.00379000  1
  P  P11  1  0.00137050  0.81362050  0.00379000  1
  W  W12  1  0.23763700  0.00000000  0.15852200  1
  W  W13  1  0.63196300  0.87418700  0.82021200  1
  W  W14  1  0.63196300  0.12581300  0.82021200  1
  W  W15  1  0.73763700  0.50000000  0.15852200  1
  W  W16  1  0.13196300  0.37418700  0.82021200  1
  W  W17  1  0.13196300  0.62581300  0.82021200  1
  O  O18  1  0.21796900  0.00000000  0.83994500  1
  O  O19  1  0.21864900  0.00000000  0.46409700  1
  O  O20  1  0.34522800  0.33230400  0.88326800  1
  O  O21  1  0.34522800  0.66769600  0.88326800  1
  O  O22  1  0.41233450  0.91178150  0.73406700  1
  O  O23  1  0.41233450  0.08821850  0.73406700  1
  O  O24  1  0.39440100  0.10062100  0.22389800  1
  O  O25  1  0.39440100  0.89937900  0.22389800  1
  O  O26  1  0.57654550  0.73944050  0.86432500  1
  O  O27  1  0.57654550  0.26055950  0.86432500  1
  O  O28  1  0.50309550  0.25333050  0.21055600  1
  O  O29  1  0.50309550  0.74666950  0.21055600  1
  O  O30  1  0.62605450  0.85100250  0.50493300  1
  O  O31  1  0.62605450  0.14899750  0.50493300  1
  O  O32  1  0.67467500  0.00000000  0.80470000  1
  O  O33  1  0.57649700  0.40163600  0.09623200  1
  O  O34  1  0.57649700  0.59836400  0.09623200  1
  O  O35  1  0.64301950  0.88771950  0.14625100  1
  O  O36  1  0.64301950  0.11228050  0.14625100  1
  O  O37  1  0.71796900  0.50000000  0.83994500  1
  O  O38  1  0.71864900  0.50000000  0.46409700  1
  O  O39  1  0.84522800  0.83230400  0.88326800  1
  O  O40  1  0.84522800  0.16769600  0.88326800  1
  O  O41  1  0.91233450  0.41178150  0.73406700  1
  O  O42  1  0.91233450  0.58821850  0.73406700  1
  O  O43  1  0.89440100  0.60062100  0.22389800  1
  O  O44  1  0.89440100  0.39937900  0.22389800  1
  O  O45  1  0.07654550  0.23944050  0.86432500  1
  O  O46  1  0.07654550  0.76055950  0.86432500  1
  O  O47  1  0.00309550  0.75333050  0.21055600  1
  O  O48  1  0.00309550  0.24666950  0.21055600  1
  O  O49  1  0.12605450  0.35100250  0.50493300  1
  O  O50  1  0.12605450  0.64899750  0.50493300  1
  O  O51  1  0.17467500  0.50000000  0.80470000  1
  O  O52  1  0.07649700  0.90163600  0.09623200  1
  O  O53  1  0.07649700  0.09836400  0.09623200  1
  O  O54  1  0.14301950  0.38771950  0.14625100  1
  O  O55  1  0.14301950  0.61228050  0.14625100  1
