# generated using pymatgen
data_Th4Ta18O53
_symmetry_space_group_name_H-M   'P 1'
_cell_length_a   6.41393915
_cell_length_b   6.41393915
_cell_length_c   28.11237400
_cell_angle_alpha   90.00000000
_cell_angle_beta   90.00000000
_cell_angle_gamma   120.00000000
_symmetry_Int_Tables_number   1
_chemical_formula_structural   Th4Ta18O53
_chemical_formula_sum   'Th4 Ta18 O53'
_cell_volume   1001.56196786
_cell_formula_units_Z   1
loop_
 _symmetry_equiv_pos_site_id
 _symmetry_equiv_pos_as_xyz
  1  'x, y, z'
loop_
 _atom_site_type_symbol
 _atom_site_label
 _atom_site_symmetry_multiplicity
 _atom_site_fract_x
 _atom_site_fract_y
 _atom_site_fract_z
 _atom_site_occupancy
  Th  Th0  1  0.00000000  0.00000000  0.99317400  1
  Th  Th1  1  0.00000000  0.00000000  0.50145900  1
  Th  Th2  1  0.33333333  0.66666667  0.99894800  1
  Th  Th3  1  0.33333333  0.66666667  0.50146500  1
  Ta  Ta4  1  0.63162700  0.98700600  0.11410900  1
  Ta  Ta5  1  0.66674100  0.98399100  0.38798600  1
  Ta  Ta6  1  0.66758600  0.97743900  0.25191300  1
  Ta  Ta7  1  0.66669900  0.68754100  0.74875700  1
  Ta  Ta8  1  0.66671300  0.68241400  0.61309600  1
  Ta  Ta9  1  0.66439900  0.68184100  0.88534300  1
  Ta  Ta10  1  0.01299400  0.64462100  0.11410900  1
  Ta  Ta11  1  0.01600900  0.68275000  0.38798600  1
  Ta  Ta12  1  0.02256100  0.69014700  0.25191300  1
  Ta  Ta13  1  0.31245900  0.97915800  0.74875700  1
  Ta  Ta14  1  0.31815900  0.98255800  0.88534300  1
  Ta  Ta15  1  0.31758600  0.98429900  0.61309600  1
  Ta  Ta16  1  0.01744200  0.33560100  0.88534300  1
  Ta  Ta17  1  0.01570100  0.33328700  0.61309600  1
  Ta  Ta18  1  0.02084200  0.33330100  0.74875700  1
  Ta  Ta19  1  0.30985300  0.33241400  0.25191300  1
  Ta  Ta20  1  0.35537900  0.36837300  0.11410900  1
  Ta  Ta21  1  0.31725000  0.33325900  0.38798600  1
  O  O22  1  0.66667900  0.09206800  0.74996500  1
  O  O23  1  0.66763300  0.09091100  0.88840400  1
  O  O24  1  0.66671700  0.09219300  0.61185400  1
  O  O25  1  0.67542700  0.94402300  0.17741400  1
  O  O26  1  0.66638700  0.94337800  0.31906200  1
  O  O27  1  0.68912300  0.94498700  0.04660500  1
  O  O28  1  0.66677000  0.95268400  0.45853600  1
  O  O29  1  0.66678800  0.71319800  0.54084800  1
  O  O30  1  0.65631200  0.70487700  0.96066900  1
  O  O31  1  0.66691800  0.72346500  0.82003700  1
  O  O32  1  0.66671800  0.72406000  0.68013000  1
  O  O33  1  0.68732300  0.60297000  0.11196800  1
  O  O34  1  0.66677500  0.57394700  0.38790400  1
  O  O35  1  0.66662400  0.57605400  0.24920300  1
  O  O36  1  0.00000000  0.00000000  0.24824700  1
  O  O37  1  0.00000000  0.00000000  0.60467400  1
  O  O38  1  0.00000000  0.00000000  0.89830800  1
  O  O39  1  0.00000000  0.00000000  0.75066100  1
  O  O40  1  0.00000000  0.00000000  0.39348000  1
  O  O41  1  0.90793200  0.57461100  0.74996500  1
  O  O42  1  0.90780700  0.57452400  0.61185400  1
  O  O43  1  0.90908900  0.57672200  0.88840400  1
  O  O44  1  0.05597700  0.73140400  0.17741400  1
  O  O45  1  0.05662200  0.72300900  0.31906200  1
  O  O46  1  0.04731600  0.71408600  0.45853600  1
  O  O47  1  0.05501300  0.74413600  0.04660500  1
  O  O48  1  0.90943000  0.33337600  0.24920300  1
  O  O49  1  0.90717200  0.33322500  0.38790400  1
  O  O50  1  0.91564700  0.31267700  0.11196800  1
  O  O51  1  0.28680200  0.95359000  0.54084800  1
  O  O52  1  0.29512300  0.95143500  0.96066900  1
  O  O53  1  0.27594000  0.94265800  0.68013000  1
  O  O54  1  0.27653500  0.94345300  0.82003700  1
  O  O55  1  0.39703000  0.08435300  0.11196800  1
  O  O56  1  0.42605300  0.09282800  0.38790400  1
  O  O57  1  0.42394600  0.09057000  0.24920300  1
  O  O58  1  0.05734200  0.33328200  0.68013000  1
  O  O59  1  0.05654700  0.33308200  0.82003700  1
  O  O60  1  0.04641000  0.33321200  0.54084800  1
  O  O61  1  0.04856500  0.34368800  0.96066900  1
  O  O62  1  0.33333333  0.66666667  0.60467400  1
  O  O63  1  0.33333333  0.66666667  0.75065500  1
  O  O64  1  0.33333333  0.66666667  0.89608100  1
  O  O65  1  0.33333333  0.66666667  0.24671800  1
  O  O66  1  0.33333333  0.66666667  0.10446800  1
  O  O67  1  0.33333333  0.66666667  0.39347000  1
  O  O68  1  0.25586400  0.31087700  0.04660500  1
  O  O69  1  0.28591400  0.33323000  0.45853600  1
  O  O70  1  0.26859600  0.32457300  0.17741400  1
  O  O71  1  0.27699100  0.33361300  0.31906200  1
  O  O72  1  0.42327800  0.33236700  0.88840400  1
  O  O73  1  0.42547600  0.33328300  0.61185400  1
  O  O74  1  0.42538900  0.33332100  0.74996500  1
