# generated using pymatgen
data_K2Mg3P4(H5O6)4
_symmetry_space_group_name_H-M   'P 1'
_cell_length_a   7.59829900
_cell_length_b   6.64907200
_cell_length_c   20.54155365
_cell_angle_alpha   90.00000000
_cell_angle_beta   93.22253234
_cell_angle_gamma   90.00000000
_symmetry_Int_Tables_number   1
_chemical_formula_structural   K2Mg3P4(H5O6)4
_chemical_formula_sum   'K4 Mg6 P8 H40 O48'
_cell_volume   1036.15189343
_cell_formula_units_Z   2
loop_
 _symmetry_equiv_pos_site_id
 _symmetry_equiv_pos_as_xyz
  1  'x, y, z'
loop_
 _atom_site_type_symbol
 _atom_site_label
 _atom_site_symmetry_multiplicity
 _atom_site_fract_x
 _atom_site_fract_y
 _atom_site_fract_z
 _atom_site_occupancy
  K  K0  1  0.76129100  0.98139200  0.55592500  1
  K  K1  1  0.76129100  0.51860800  0.05592500  1
  K  K2  1  0.23870900  0.48139200  0.94407500  1
  K  K3  1  0.23870900  0.01860800  0.44407500  1
  Mg  Mg4  1  0.00000000  0.00000000  0.00000000  1
  Mg  Mg5  1  0.00000000  0.50000000  0.50000000  1
  Mg  Mg6  1  0.76707900  0.05360600  0.73540400  1
  Mg  Mg7  1  0.76707900  0.44639400  0.23540400  1
  Mg  Mg8  1  0.23292100  0.55360600  0.76459600  1
  Mg  Mg9  1  0.23292100  0.94639400  0.26459600  1
  P  P10  1  0.93396300  0.77926100  0.85414500  1
  P  P11  1  0.93396300  0.72073900  0.35414500  1
  P  P12  1  0.53821200  0.82649400  0.84686400  1
  P  P13  1  0.46178800  0.32649400  0.65313600  1
  P  P14  1  0.53821200  0.67350600  0.34686400  1
  P  P15  1  0.46178800  0.17350600  0.15313600  1
  P  P16  1  0.06603700  0.27926100  0.64585500  1
  P  P17  1  0.06603700  0.22073900  0.14585500  1
  H  H18  1  0.93741200  0.17728100  0.88526100  1
  H  H19  1  0.93741200  0.32271900  0.38526100  1
  H  H20  1  0.84613900  0.43069100  0.79084600  1
  H  H21  1  0.84885100  0.65585600  0.69013800  1
  H  H22  1  0.81564400  0.29303600  0.93073800  1
  H  H23  1  0.84613900  0.06930900  0.29084600  1
  H  H24  1  0.84885100  0.84414400  0.19013800  1
  H  H25  1  0.81564400  0.20696400  0.43073800  1
  H  H26  1  0.66379800  0.49366700  0.54611200  1
  H  H27  1  0.65320000  0.93497700  0.97250000  1
  H  H28  1  0.64440400  0.67332900  0.69735400  1
  H  H29  1  0.66379800  0.00633300  0.04611200  1
  H  H30  1  0.64542700  0.40204300  0.76235900  1
  H  H31  1  0.65320000  0.56502300  0.47250000  1
  H  H32  1  0.64440400  0.82667100  0.19735400  1
  H  H33  1  0.64542700  0.09795700  0.26235900  1
  H  H34  1  0.58296700  0.42052900  0.88891900  1
  H  H35  1  0.56172900  0.20186200  0.91763100  1
  H  H36  1  0.58296700  0.07947100  0.38891900  1
  H  H37  1  0.43827100  0.70186200  0.58236900  1
  H  H38  1  0.56172900  0.29813800  0.41763100  1
  H  H39  1  0.41703300  0.92052900  0.61108100  1
  H  H40  1  0.43827100  0.79813800  0.08236900  1
  H  H41  1  0.41703300  0.57947100  0.11108100  1
  H  H42  1  0.35457300  0.90204300  0.73764100  1
  H  H43  1  0.35559600  0.17332900  0.80264600  1
  H  H44  1  0.34680000  0.43497700  0.52750000  1
  H  H45  1  0.35457300  0.59795700  0.23764100  1
  H  H46  1  0.33620200  0.99366700  0.95388800  1
  H  H47  1  0.35559600  0.32667100  0.30264600  1
  H  H48  1  0.34680000  0.06502300  0.02750000  1
  H  H49  1  0.33620200  0.50633300  0.45388800  1
  H  H50  1  0.18435600  0.79303600  0.56926200  1
  H  H51  1  0.15114900  0.15585600  0.80986200  1
  H  H52  1  0.15386100  0.93069100  0.70915400  1
  H  H53  1  0.18435600  0.70696400  0.06926200  1
  H  H54  1  0.15114900  0.34414400  0.30986200  1
  H  H55  1  0.15386100  0.56930900  0.20915400  1
  H  H56  1  0.06258800  0.67728100  0.61473900  1
  H  H57  1  0.06258800  0.82271900  0.11473900  1
  O  O58  1  0.98495500  0.10355700  0.68184100  1
  O  O59  1  0.00353400  0.79611400  0.92512000  1
  O  O60  1  0.93660100  0.98072200  0.81730800  1
  O  O61  1  0.98495500  0.39644300  0.18184100  1
  O  O62  1  0.93749600  0.23581500  0.92968100  1
  O  O63  1  0.00353400  0.70388600  0.42512000  1
  O  O64  1  0.93660100  0.51927800  0.31730800  1
  O  O65  1  0.93749600  0.26418500  0.42968100  1
  O  O66  1  0.73490600  0.55830900  0.51262400  1
  O  O67  1  0.75065600  0.75336800  0.68974800  1
  O  O68  1  0.75187000  0.33051500  0.78046200  1
  O  O69  1  0.72638200  0.71081800  0.85597200  1
  O  O70  1  0.73490600  0.94169100  0.01262400  1
  O  O71  1  0.75065600  0.74663200  0.18974800  1
  O  O72  1  0.75187000  0.16948500  0.28046200  1
  O  O73  1  0.72638200  0.78918200  0.35597200  1
  O  O74  1  0.59380800  0.15432000  0.66033600  1
  O  O75  1  0.59752500  0.34289000  0.92955700  1
  O  O76  1  0.54207000  0.96302300  0.78629500  1
  O  O77  1  0.59380800  0.34568000  0.16033600  1
  O  O78  1  0.48360600  0.45117600  0.59089000  1
  O  O79  1  0.51639400  0.95117600  0.90911000  1
  O  O80  1  0.59752500  0.15711000  0.42955700  1
  O  O81  1  0.54207000  0.53697700  0.28629500  1
  O  O82  1  0.45793000  0.46302300  0.71370500  1
  O  O83  1  0.40247500  0.84289000  0.57044300  1
  O  O84  1  0.48360600  0.04882400  0.09089000  1
  O  O85  1  0.51639400  0.54882400  0.40911000  1
  O  O86  1  0.40619200  0.65432000  0.83966400  1
  O  O87  1  0.45793000  0.03697700  0.21370500  1
  O  O88  1  0.40247500  0.65711000  0.07044300  1
  O  O89  1  0.40619200  0.84568000  0.33966400  1
  O  O90  1  0.27361800  0.21081800  0.64402800  1
  O  O91  1  0.24813000  0.83051500  0.71953800  1
  O  O92  1  0.24934400  0.25336800  0.81025200  1
  O  O93  1  0.26509400  0.05830900  0.98737600  1
  O  O94  1  0.27361800  0.28918200  0.14402800  1
  O  O95  1  0.24813000  0.66948500  0.21953800  1
  O  O96  1  0.24934400  0.24663200  0.31025200  1
  O  O97  1  0.26509400  0.44169100  0.48737600  1
  O  O98  1  0.06250400  0.73581500  0.57031900  1
  O  O99  1  0.06339900  0.48072200  0.68269200  1
  O  O100  1  0.99646600  0.29611400  0.57488000  1
  O  O101  1  0.06250400  0.76418500  0.07031900  1
  O  O102  1  0.01504500  0.60355700  0.81815900  1
  O  O103  1  0.06339900  0.01927800  0.18269200  1
  O  O104  1  0.99646600  0.20388600  0.07488000  1
  O  O105  1  0.01504500  0.89644300  0.31815900  1
