# generated using pymatgen
data_Li2V5NiO12
_symmetry_space_group_name_H-M   'P 1'
_cell_length_a   10.89084200
_cell_length_b   8.61039400
_cell_length_c   5.60124787
_cell_angle_alpha   90.00000000
_cell_angle_beta   112.78249306
_cell_angle_gamma   90.00000000
_symmetry_Int_Tables_number   1
_chemical_formula_structural   Li2V5NiO12
_chemical_formula_sum   'Li4 V10 Ni2 O24'
_cell_volume   484.27437361
_cell_formula_units_Z   2
loop_
 _symmetry_equiv_pos_site_id
 _symmetry_equiv_pos_as_xyz
  1  'x, y, z'
loop_
 _atom_site_type_symbol
 _atom_site_label
 _atom_site_symmetry_multiplicity
 _atom_site_fract_x
 _atom_site_fract_y
 _atom_site_fract_z
 _atom_site_occupancy
  Li  Li0  1  0.00000000  0.26979300  0.00000000  1
  Li  Li1  1  0.00000000  0.72820100  0.50000000  1
  Li  Li2  1  0.50000000  0.76979300  0.00000000  1
  Li  Li3  1  0.50000000  0.22820100  0.50000000  1
  V  V4  1  0.00000000  0.08501200  0.50000000  1
  V  V5  1  0.22688800  0.39169400  0.54675700  1
  V  V6  1  0.21350150  0.59530050  0.00892300  1
  V  V7  1  0.77311200  0.39169400  0.45324300  1
  V  V8  1  0.78649850  0.59530050  0.99107700  1
  V  V9  1  0.50000000  0.58501200  0.50000000  1
  V  V10  1  0.72688800  0.89169400  0.54675700  1
  V  V11  1  0.71350150  0.09530050  0.00892300  1
  V  V12  1  0.27311200  0.89169400  0.45324300  1
  V  V13  1  0.28649850  0.09530050  0.99107700  1
  Ni  Ni14  1  0.00000000  0.91255900  0.00000000  1
  Ni  Ni15  1  0.50000000  0.41255900  0.00000000  1
  O  O16  1  0.91050850  0.90464350  0.60266700  1
  O  O17  1  0.11906350  0.21426250  0.43866200  1
  O  O18  1  0.38937450  0.59002850  0.10380400  1
  O  O19  1  0.14201250  0.55817050  0.67431000  1
  O  O20  1  0.88093650  0.21426250  0.56133800  1
  O  O21  1  0.15355900  0.46490900  0.17191400  1
  O  O22  1  0.85798750  0.55817050  0.32569000  1
  O  O23  1  0.17137700  0.78320700  0.06134100  1
  O  O24  1  0.84644100  0.46490900  0.82808600  1
  O  O25  1  0.08949150  0.90464350  0.39733300  1
  O  O26  1  0.82862300  0.78320700  0.93865900  1
  O  O27  1  0.61062550  0.59002850  0.89619600  1
  O  O28  1  0.41050850  0.40464350  0.60266700  1
  O  O29  1  0.61906350  0.71426250  0.43866200  1
  O  O30  1  0.88937450  0.09002850  0.10380400  1
  O  O31  1  0.64201250  0.05817050  0.67431000  1
  O  O32  1  0.38093650  0.71426250  0.56133800  1
  O  O33  1  0.65355900  0.96490900  0.17191400  1
  O  O34  1  0.35798750  0.05817050  0.32569000  1
  O  O35  1  0.67137700  0.28320700  0.06134100  1
  O  O36  1  0.34644100  0.96490900  0.82808600  1
  O  O37  1  0.58949150  0.40464350  0.39733300  1
  O  O38  1  0.32862300  0.28320700  0.93865900  1
  O  O39  1  0.11062550  0.09002850  0.89619600  1
