# generated using pymatgen
data_Lu2TiO5
_symmetry_space_group_name_H-M   'P 1'
_cell_length_a   3.56453200
_cell_length_b   7.38730300
_cell_length_c   15.25307700
_cell_angle_alpha   90.00000000
_cell_angle_beta   90.00000000
_cell_angle_gamma   90.00000000
_symmetry_Int_Tables_number   1
_chemical_formula_structural   Lu2TiO5
_chemical_formula_sum   'Lu8 Ti4 O20'
_cell_volume   401.64826296
_cell_formula_units_Z   4
loop_
 _symmetry_equiv_pos_site_id
 _symmetry_equiv_pos_as_xyz
  1  'x, y, z'
loop_
 _atom_site_type_symbol
 _atom_site_label
 _atom_site_symmetry_multiplicity
 _atom_site_fract_x
 _atom_site_fract_y
 _atom_site_fract_z
 _atom_site_occupancy
  Lu  Lu0  1  0.25000000  0.59796100  0.58466500  1
  Lu  Lu1  1  0.25000000  0.66632500  0.23751600  1
  Lu  Lu2  1  0.75000000  0.83367500  0.73751600  1
  Lu  Lu3  1  0.75000000  0.90203900  0.08466500  1
  Lu  Lu4  1  0.25000000  0.09796100  0.91533500  1
  Lu  Lu5  1  0.25000000  0.16632500  0.26248400  1
  Lu  Lu6  1  0.75000000  0.33367500  0.76248400  1
  Lu  Lu7  1  0.75000000  0.40203900  0.41533500  1
  Ti  Ti8  1  0.25000000  0.61294600  0.92273900  1
  Ti  Ti9  1  0.75000000  0.88705400  0.42273900  1
  Ti  Ti10  1  0.25000000  0.11294600  0.57726100  1
  Ti  Ti11  1  0.75000000  0.38705400  0.07726100  1
  O  O12  1  0.75000000  0.56545300  0.67497200  1
  O  O13  1  0.75000000  0.57344100  0.95312500  1
  O  O14  1  0.75000000  0.62609300  0.14872800  1
  O  O15  1  0.75000000  0.65493300  0.49569600  1
  O  O16  1  0.25000000  0.74487800  0.82048900  1
  O  O17  1  0.75000000  0.75512200  0.32048900  1
  O  O18  1  0.25000000  0.84506700  0.99569600  1
  O  O19  1  0.25000000  0.87390700  0.64872800  1
  O  O20  1  0.25000000  0.92655900  0.45312500  1
  O  O21  1  0.25000000  0.93454700  0.17497200  1
  O  O22  1  0.75000000  0.06545300  0.82502800  1
  O  O23  1  0.75000000  0.07344100  0.54687500  1
  O  O24  1  0.75000000  0.12609300  0.35127200  1
  O  O25  1  0.75000000  0.15493300  0.00430400  1
  O  O26  1  0.25000000  0.24487800  0.67951100  1
  O  O27  1  0.75000000  0.25512200  0.17951100  1
  O  O28  1  0.25000000  0.34506700  0.50430400  1
  O  O29  1  0.25000000  0.37390700  0.85127200  1
  O  O30  1  0.25000000  0.42655900  0.04687500  1
  O  O31  1  0.25000000  0.43454700  0.32502800  1
