# generated using pymatgen
data_Na6P2H2O9
_symmetry_space_group_name_H-M   'P 1'
_cell_length_a   9.73030400
_cell_length_b   5.47953400
_cell_length_c   17.15030785
_cell_angle_alpha   90.00000000
_cell_angle_beta   102.70734898
_cell_angle_gamma   90.00000000
_symmetry_Int_Tables_number   1
_chemical_formula_structural   Na6P2H2O9
_chemical_formula_sum   'Na24 P8 H8 O36'
_cell_volume   892.01477994
_cell_formula_units_Z   4
loop_
 _symmetry_equiv_pos_site_id
 _symmetry_equiv_pos_as_xyz
  1  'x, y, z'
loop_
 _atom_site_type_symbol
 _atom_site_label
 _atom_site_symmetry_multiplicity
 _atom_site_fract_x
 _atom_site_fract_y
 _atom_site_fract_z
 _atom_site_occupancy
  Na  Na0  1  0.31855500  0.97058200  0.04801100  1
  Na  Na1  1  0.68144500  0.97058200  0.45198900  1
  Na  Na2  1  0.68144500  0.02941800  0.95198900  1
  Na  Na3  1  0.31855500  0.02941800  0.54801100  1
  Na  Na4  1  0.49907250  0.40256050  0.40288000  1
  Na  Na5  1  0.50092750  0.40256050  0.09712000  1
  Na  Na6  1  0.50092750  0.59743950  0.59712000  1
  Na  Na7  1  0.49907250  0.59743950  0.90288000  1
  Na  Na8  1  0.34992600  0.83247400  0.21530700  1
  Na  Na9  1  0.15007400  0.33247400  0.28469300  1
  Na  Na10  1  0.65007400  0.16752600  0.78469300  1
  Na  Na11  1  0.84992600  0.66752600  0.71530700  1
  Na  Na12  1  0.81855500  0.47058200  0.04801100  1
  Na  Na13  1  0.18144500  0.47058200  0.45198900  1
  Na  Na14  1  0.18144500  0.52941800  0.95198900  1
  Na  Na15  1  0.81855500  0.52941800  0.54801100  1
  Na  Na16  1  0.99907250  0.90256050  0.40288000  1
  Na  Na17  1  0.00092750  0.90256050  0.09712000  1
  Na  Na18  1  0.00092750  0.09743950  0.59712000  1
  Na  Na19  1  0.99907250  0.09743950  0.90288000  1
  Na  Na20  1  0.84992600  0.33247400  0.21530700  1
  Na  Na21  1  0.65007400  0.83247400  0.28469300  1
  Na  Na22  1  0.15007400  0.66752600  0.78469300  1
  Na  Na23  1  0.34992600  0.16752600  0.71530700  1
  P  P24  1  0.84280250  0.61326050  0.88679800  1
  P  P25  1  0.65719750  0.11326050  0.61320200  1
  P  P26  1  0.15719750  0.38673950  0.11320200  1
  P  P27  1  0.34280250  0.88673950  0.38679800  1
  P  P28  1  0.34280250  0.11326050  0.88679800  1
  P  P29  1  0.15719750  0.61326050  0.61320200  1
  P  P30  1  0.65719750  0.88673950  0.11320200  1
  P  P31  1  0.84280250  0.38673950  0.38679800  1
  H  H32  1  0.58228800  0.64781200  0.77340000  1
  H  H33  1  0.41771200  0.64781200  0.72660000  1
  H  H34  1  0.41771200  0.35218800  0.22660000  1
  H  H35  1  0.58228800  0.35218800  0.27340000  1
  H  H36  1  0.08228800  0.14781200  0.77340000  1
  H  H37  1  0.91771200  0.14781200  0.72660000  1
  H  H38  1  0.91771200  0.85218800  0.22660000  1
  H  H39  1  0.08228800  0.85218800  0.27340000  1
  O  O40  1  0.50000000  0.54076700  0.75000000  1
  O  O41  1  0.50000000  0.45923300  0.25000000  1
  O  O42  1  0.89825700  0.76612700  0.96434400  1
  O  O43  1  0.60174300  0.26612700  0.53565600  1
  O  O44  1  0.10174300  0.23387300  0.03565600  1
  O  O45  1  0.39825700  0.73387300  0.46434400  1
  O  O46  1  0.46792200  0.97455100  0.35095000  1
  O  O47  1  0.53207800  0.97455100  0.14905000  1
  O  O48  1  0.53207800  0.02544900  0.64905000  1
  O  O49  1  0.46792200  0.02544900  0.85095000  1
  O  O50  1  0.24209100  0.72084000  0.32513900  1
  O  O51  1  0.25790900  0.22084000  0.17486100  1
  O  O52  1  0.75790900  0.27916000  0.67486100  1
  O  O53  1  0.74209100  0.77916000  0.82513900  1
  O  O54  1  0.75838700  0.38671600  0.90672300  1
  O  O55  1  0.74161300  0.88671600  0.59327700  1
  O  O56  1  0.24161300  0.61328400  0.09327700  1
  O  O57  1  0.25838700  0.11328400  0.40672300  1
  O  O58  1  0.00000000  0.04076700  0.75000000  1
  O  O59  1  0.00000000  0.95923300  0.25000000  1
  O  O60  1  0.39825700  0.26612700  0.96434400  1
  O  O61  1  0.10174300  0.76612700  0.53565600  1
  O  O62  1  0.60174300  0.73387300  0.03565600  1
  O  O63  1  0.89825700  0.23387300  0.46434400  1
  O  O64  1  0.96792200  0.47455100  0.35095000  1
  O  O65  1  0.03207800  0.47455100  0.14905000  1
  O  O66  1  0.03207800  0.52544900  0.64905000  1
  O  O67  1  0.96792200  0.52544900  0.85095000  1
  O  O68  1  0.74209100  0.22084000  0.32513900  1
  O  O69  1  0.75790900  0.72084000  0.17486100  1
  O  O70  1  0.25790900  0.77916000  0.67486100  1
  O  O71  1  0.24209100  0.27916000  0.82513900  1
  O  O72  1  0.25838700  0.88671600  0.90672300  1
  O  O73  1  0.24161300  0.38671600  0.59327700  1
  O  O74  1  0.74161300  0.11328400  0.09327700  1
  O  O75  1  0.75838700  0.61328400  0.40672300  1
