# generated using pymatgen
data_RbBe2BO3F2
_symmetry_space_group_name_H-M   'P 1'
_cell_length_a   4.47235819
_cell_length_b   4.47235819
_cell_length_c   20.46431109
_cell_angle_alpha   90.00000000
_cell_angle_beta   90.00000000
_cell_angle_gamma   120.00000000
_symmetry_Int_Tables_number   1
_chemical_formula_structural   RbBe2BO3F2
_chemical_formula_sum   'Rb3 Be6 B3 O9 F6'
_cell_volume   354.48749420
_cell_formula_units_Z   3
loop_
 _symmetry_equiv_pos_site_id
 _symmetry_equiv_pos_as_xyz
  1  'x, y, z'
loop_
 _atom_site_type_symbol
 _atom_site_label
 _atom_site_symmetry_multiplicity
 _atom_site_fract_x
 _atom_site_fract_y
 _atom_site_fract_z
 _atom_site_occupancy
  Rb  Rb0  1  0.00000000  0.00000000  0.00000000  1
  Rb  Rb1  1  0.66666667  0.33333333  0.33333333  1
  Rb  Rb2  1  0.33333333  0.66666667  0.66666667  1
  Be  Be3  1  0.00000000  0.00000000  0.19444400  1
  Be  Be4  1  0.66666667  0.33333333  0.13888933  1
  Be  Be5  1  0.66666667  0.33333333  0.52777733  1
  Be  Be6  1  0.33333333  0.66666667  0.47222267  1
  Be  Be7  1  0.33333333  0.66666667  0.86111067  1
  Be  Be8  1  0.00000000  0.00000000  0.80555600  1
  B  B9  1  0.33333333  0.66666667  0.16666667  1
  B  B10  1  0.00000000  0.00000000  0.50000000  1
  B  B11  1  0.66666667  0.33333333  0.83333333  1
  O  O12  1  0.33333333  0.35791867  0.16666667  1
  O  O13  1  0.02458533  0.66666667  0.16666667  1
  O  O14  1  0.64208133  0.97541467  0.16666667  1
  O  O15  1  0.00000000  0.69125200  0.50000000  1
  O  O16  1  0.69125200  0.00000000  0.50000000  1
  O  O17  1  0.30874800  0.30874800  0.50000000  1
  O  O18  1  0.66666667  0.02458533  0.83333333  1
  O  O19  1  0.35791867  0.33333333  0.83333333  1
  O  O20  1  0.97541467  0.64208133  0.83333333  1
  F  F21  1  0.00000000  0.00000000  0.27006200  1
  F  F22  1  0.66666667  0.33333333  0.06327133  1
  F  F23  1  0.66666667  0.33333333  0.60339533  1
  F  F24  1  0.33333333  0.66666667  0.39660467  1
  F  F25  1  0.33333333  0.66666667  0.93672867  1
  F  F26  1  0.00000000  0.00000000  0.72993800  1
