# generated using pymatgen
data_CoPO4
_symmetry_space_group_name_H-M   'P 1'
_cell_length_a   8.94918600
_cell_length_b   8.27856300
_cell_length_c   17.77952047
_cell_angle_alpha   90.00000000
_cell_angle_beta   119.67210313
_cell_angle_gamma   90.00000000
_symmetry_Int_Tables_number   1
_chemical_formula_structural   CoPO4
_chemical_formula_sum   'Co12 P12 O48'
_cell_volume   1144.49700675
_cell_formula_units_Z   12
loop_
 _symmetry_equiv_pos_site_id
 _symmetry_equiv_pos_as_xyz
  1  'x, y, z'
loop_
 _atom_site_type_symbol
 _atom_site_label
 _atom_site_symmetry_multiplicity
 _atom_site_fract_x
 _atom_site_fract_y
 _atom_site_fract_z
 _atom_site_occupancy
  Co  Co0  1  0.17979000  0.83518700  0.57273900  1
  Co  Co1  1  0.46684900  0.66217600  0.40656000  1
  Co  Co2  1  0.15241600  0.33937400  0.73500900  1
  Co  Co3  1  0.82021000  0.33518700  0.92726100  1
  Co  Co4  1  0.15241600  0.16062600  0.23500900  1
  Co  Co5  1  0.82021000  0.16481300  0.42726100  1
  Co  Co6  1  0.46684900  0.83782400  0.90656000  1
  Co  Co7  1  0.53315100  0.33782400  0.59344000  1
  Co  Co8  1  0.53315100  0.16217600  0.09344000  1
  Co  Co9  1  0.84758400  0.83937400  0.76499100  1
  Co  Co10  1  0.84758400  0.66062600  0.26499100  1
  Co  Co11  1  0.17979000  0.66481300  0.07273900  1
  P  P12  1  0.81226800  0.72231900  0.92341300  1
  P  P13  1  0.46441700  0.27502200  0.40730100  1
  P  P14  1  0.18773200  0.22231900  0.57658700  1
  P  P15  1  0.84536600  0.22081800  0.77008600  1
  P  P16  1  0.53558300  0.77502200  0.09269900  1
  P  P17  1  0.84536600  0.27918200  0.27008600  1
  P  P18  1  0.53558300  0.72497800  0.59269900  1
  P  P19  1  0.18773200  0.27768100  0.07658700  1
  P  P20  1  0.15463400  0.72081800  0.72991400  1
  P  P21  1  0.81226800  0.77768100  0.42341300  1
  P  P22  1  0.15463400  0.77918200  0.22991400  1
  P  P23  1  0.46441700  0.22497800  0.90730100  1
  O  O24  1  0.23979900  0.26935300  0.17352900  1
  O  O25  1  0.29873000  0.15856400  0.05805900  1
  O  O26  1  0.31609800  0.34404000  0.85294400  1
  O  O27  1  0.21370300  0.45027400  0.05181100  1
  O  O28  1  0.60485200  0.23995300  0.88098900  1
  O  O29  1  0.31609800  0.15596000  0.35294400  1
  O  O30  1  0.87725200  0.04867400  0.80824400  1
  O  O31  1  0.99559300  0.27276100  0.52086400  1
  O  O32  1  0.95488700  0.24862700  0.22616200  1
  O  O33  1  0.10650800  0.84227300  0.65514400  1
  O  O34  1  0.00440700  0.77276100  0.97913600  1
  O  O35  1  0.76020100  0.73064700  0.82647100  1
  O  O36  1  0.39514800  0.76004700  0.11901100  1
  O  O37  1  0.45479500  0.73078900  0.99524000  1
  O  O38  1  0.12274800  0.54867400  0.69175600  1
  O  O39  1  0.65325700  0.24116200  0.70114600  1
  O  O40  1  0.99559300  0.22723900  0.02086400  1
  O  O41  1  0.89349200  0.34227300  0.84485600  1
  O  O42  1  0.04511300  0.74862700  0.27383800  1
  O  O43  1  0.29873000  0.34143600  0.55805900  1
  O  O44  1  0.95488700  0.25137300  0.72616200  1
  O  O45  1  0.65325700  0.25883800  0.20114600  1
  O  O46  1  0.68390200  0.84404000  0.64705600  1
  O  O47  1  0.61037400  0.55179900  0.60913700  1
  O  O48  1  0.70127000  0.84143600  0.94194100  1
  O  O49  1  0.54520500  0.23078900  0.50476000  1
  O  O50  1  0.54520500  0.26921100  0.00476000  1
  O  O51  1  0.45479500  0.76921100  0.49524000  1
  O  O52  1  0.38962600  0.44820100  0.39086300  1
  O  O53  1  0.60485200  0.26004700  0.38098900  1
  O  O54  1  0.12274800  0.95132600  0.19175600  1
  O  O55  1  0.10650800  0.65772700  0.15514400  1
  O  O56  1  0.68390200  0.65596000  0.14705600  1
  O  O57  1  0.38962600  0.05179900  0.89086300  1
  O  O58  1  0.39514800  0.73995300  0.61901100  1
  O  O59  1  0.70127000  0.65856400  0.44194100  1
  O  O60  1  0.00440700  0.72723900  0.47913600  1
  O  O61  1  0.78629700  0.95027400  0.44818900  1
  O  O62  1  0.87725200  0.45132600  0.30824400  1
  O  O63  1  0.34674300  0.75883800  0.29885400  1
  O  O64  1  0.34674300  0.74116200  0.79885400  1
  O  O65  1  0.21370300  0.04972600  0.55181100  1
  O  O66  1  0.04511300  0.75137300  0.77383800  1
  O  O67  1  0.76020100  0.76935300  0.32647100  1
  O  O68  1  0.89349200  0.15772700  0.34485600  1
  O  O69  1  0.23979900  0.23064700  0.67352900  1
  O  O70  1  0.78629700  0.54972600  0.94818900  1
  O  O71  1  0.61037400  0.94820100  0.10913700  1
