# generated using pymatgen
data_Al2O3
_symmetry_space_group_name_H-M   'P 1'
_cell_length_a   4.84880039
_cell_length_b   4.84880039
_cell_length_c   13.55783157
_cell_angle_alpha   90.00000000
_cell_angle_beta   90.00000000
_cell_angle_gamma   120.00000000
_symmetry_Int_Tables_number   1
_chemical_formula_structural   Al2O3
_chemical_formula_sum   'Al12 O18'
_cell_volume   276.05109725
_cell_formula_units_Z   6
loop_
 _symmetry_equiv_pos_site_id
 _symmetry_equiv_pos_as_xyz
  1  'x, y, z'
loop_
 _atom_site_type_symbol
 _atom_site_label
 _atom_site_symmetry_multiplicity
 _atom_site_fract_x
 _atom_site_fract_y
 _atom_site_fract_z
 _atom_site_occupancy
  Al  Al0  1  0.00000000  0.00000000  0.00000000  1
  Al  Al1  1  0.33333333  0.66666667  0.16666667  1
  Al  Al2  1  0.00000000  0.00000000  0.30673400  1
  Al  Al3  1  0.66666667  0.33333333  0.02659933  1
  Al  Al4  1  0.66666667  0.33333333  0.33333333  1
  Al  Al5  1  1.00000000  0.00000000  0.50000000  1
  Al  Al6  1  0.66666667  0.33333333  0.64006733  1
  Al  Al7  1  0.33333333  0.66666667  0.35993267  1
  Al  Al8  1  0.33333333  0.66666667  0.66666667  1
  Al  Al9  1  0.66666667  0.33333333  0.83333333  1
  Al  Al10  1  0.33333333  0.66666667  0.97340067  1
  Al  Al11  1  0.00000000  0.00000000  0.69326600  1
  O  O12  1  0.63400367  0.65488033  0.25852333  1
  O  O13  1  0.64579000  0.96733700  0.07481000  1
  O  O14  1  0.32154700  0.35421000  0.07481000  1
  O  O15  1  0.34511967  0.97912333  0.25852333  1
  O  O16  1  0.02087667  0.36599633  0.25852333  1
  O  O17  1  0.03266300  0.67845300  0.07481000  1
  O  O18  1  0.30067033  0.98821367  0.59185667  1
  O  O19  1  0.31245667  0.30067033  0.40814333  1
  O  O20  1  0.98821367  0.68754333  0.40814333  1
  O  O21  1  0.01178633  0.31245667  0.59185667  1
  O  O22  1  0.68754333  0.69932967  0.59185667  1
  O  O23  1  0.69932967  0.01178633  0.40814333  1
  O  O24  1  0.96733700  0.32154700  0.92519000  1
  O  O25  1  0.97912333  0.63400367  0.74147667  1
  O  O26  1  0.65488033  0.02087667  0.74147667  1
  O  O27  1  0.67845300  0.64579000  0.92519000  1
  O  O28  1  0.35421000  0.03266300  0.92519000  1
  O  O29  1  0.36599633  0.34511967  0.74147667  1
