# generated using pymatgen
data_Cs2Se3
_symmetry_space_group_name_H-M   'P 1'
_cell_length_a   8.12642000
_cell_length_b   11.75906400
_cell_length_c   8.53790200
_cell_angle_alpha   90.00000000
_cell_angle_beta   90.00000000
_cell_angle_gamma   90.00000000
_symmetry_Int_Tables_number   1
_chemical_formula_structural   Cs2Se3
_chemical_formula_sum   'Cs8 Se12'
_cell_volume   815.87417014
_cell_formula_units_Z   4
loop_
 _symmetry_equiv_pos_site_id
 _symmetry_equiv_pos_as_xyz
  1  'x, y, z'
loop_
 _atom_site_type_symbol
 _atom_site_label
 _atom_site_symmetry_multiplicity
 _atom_site_fract_x
 _atom_site_fract_y
 _atom_site_fract_z
 _atom_site_occupancy
  Cs  Cs0  1  0.50000000  0.08253100  0.82130400  1
  Cs  Cs1  1  0.50000000  0.91746900  0.32130400  1
  Cs  Cs2  1  0.50000000  0.59775000  0.54021300  1
  Cs  Cs3  1  0.50000000  0.40225000  0.04021300  1
  Cs  Cs4  1  0.00000000  0.58253100  0.82130400  1
  Cs  Cs5  1  0.00000000  0.41746900  0.32130400  1
  Cs  Cs6  1  0.00000000  0.09775000  0.54021300  1
  Cs  Cs7  1  0.00000000  0.90225000  0.04021300  1
  Se  Se8  1  0.23636200  0.83711100  0.66584800  1
  Se  Se9  1  0.76363800  0.16288900  0.16584800  1
  Se  Se10  1  0.76363800  0.83711100  0.66584800  1
  Se  Se11  1  0.23636200  0.16288900  0.16584800  1
  Se  Se12  1  0.50000000  0.70752600  0.00778700  1
  Se  Se13  1  0.50000000  0.29247400  0.50778700  1
  Se  Se14  1  0.73636200  0.33711100  0.66584800  1
  Se  Se15  1  0.26363800  0.66288900  0.16584800  1
  Se  Se16  1  0.26363800  0.33711100  0.66584800  1
  Se  Se17  1  0.73636200  0.66288900  0.16584800  1
  Se  Se18  1  0.00000000  0.20752600  0.00778700  1
  Se  Se19  1  0.00000000  0.79247400  0.50778700  1
