# generated using pymatgen
data_Bi2(SO4)3
_symmetry_space_group_name_H-M   'P 1'
_cell_length_a   9.47087639
_cell_length_b   9.47087639
_cell_length_c   23.05933161
_cell_angle_alpha   90.00000000
_cell_angle_beta   90.00000000
_cell_angle_gamma   120.00000000
_symmetry_Int_Tables_number   1
_chemical_formula_structural   Bi2(SO4)3
_chemical_formula_sum   'Bi12 S18 O72'
_cell_volume   1791.25610625
_cell_formula_units_Z   6
loop_
 _symmetry_equiv_pos_site_id
 _symmetry_equiv_pos_as_xyz
  1  'x, y, z'
loop_
 _atom_site_type_symbol
 _atom_site_label
 _atom_site_symmetry_multiplicity
 _atom_site_fract_x
 _atom_site_fract_y
 _atom_site_fract_z
 _atom_site_occupancy
  Bi  Bi0  1  0.33333333  0.66666667  0.02735067  1
  Bi  Bi1  1  0.33333333  0.66666667  0.80598267  1
  Bi  Bi2  1  0.33333333  0.66666667  0.30598267  1
  Bi  Bi3  1  0.33333333  0.66666667  0.52735067  1
  Bi  Bi4  1  0.00000000  0.00000000  0.36068400  1
  Bi  Bi5  1  1.00000000  0.00000000  0.13931600  1
  Bi  Bi6  1  0.00000000  0.00000000  0.63931600  1
  Bi  Bi7  1  0.00000000  0.00000000  0.86068400  1
  Bi  Bi8  1  0.66666667  0.33333333  0.69401733  1
  Bi  Bi9  1  0.66666667  0.33333333  0.47264933  1
  Bi  Bi10  1  0.66666667  0.33333333  0.97264933  1
  Bi  Bi11  1  0.66666667  0.33333333  0.19401733  1
  S  S12  1  0.66666667  0.62880633  0.08333333  1
  S  S13  1  0.70452700  0.00000000  0.25000000  1
  S  S14  1  0.29547300  0.29547300  0.25000000  1
  S  S15  1  0.37119367  0.03786033  0.08333333  1
  S  S16  1  0.96213967  0.33333333  0.08333333  1
  S  S17  1  0.00000000  0.70452700  0.25000000  1
  S  S18  1  0.33333333  0.96213967  0.41666667  1
  S  S19  1  0.37119367  0.33333333  0.58333333  1
  S  S20  1  0.96213967  0.62880633  0.58333333  1
  S  S21  1  0.03786033  0.37119367  0.41666667  1
  S  S22  1  0.62880633  0.66666667  0.41666667  1
  S  S23  1  0.66666667  0.03786033  0.58333333  1
  S  S24  1  0.00000000  0.29547300  0.75000000  1
  S  S25  1  0.03786033  0.66666667  0.91666667  1
  S  S26  1  0.62880633  0.96213967  0.91666667  1
  S  S27  1  0.70452700  0.70452700  0.75000000  1
  S  S28  1  0.29547300  0.00000000  0.75000000  1
  S  S29  1  0.33333333  0.37119367  0.91666667  1
  O  O30  1  0.81470100  0.79391500  0.07861900  1
  O  O31  1  0.46058167  0.31254733  0.25471433  1
  O  O32  1  0.54458167  0.67421133  0.36352933  1
  O  O33  1  0.87037033  0.32578867  0.13647067  1
  O  O34  1  0.51863233  0.64588067  0.08804767  1
  O  O35  1  0.53941833  0.85196567  0.24528567  1
  O  O36  1  0.68745267  0.14803433  0.25471433  1
  O  O37  1  0.99245533  0.78875167  0.19686267  1
  O  O38  1  0.53703700  0.87791500  0.96980400  1
  O  O39  1  0.34087800  0.46296300  0.96980400  1
  O  O40  1  0.21124833  0.20370367  0.19686267  1
  O  O41  1  0.31254733  0.46058167  0.24528567  1
  O  O42  1  0.35411933  0.87275167  0.08804767  1
  O  O43  1  0.32578867  0.87037033  0.36352933  1
  O  O44  1  0.45541833  0.12962967  0.13647067  1
  O  O45  1  0.67421133  0.54458167  0.13647067  1
  O  O46  1  0.12962967  0.45541833  0.36352933  1
  O  O47  1  0.97921400  0.18529900  0.07861900  1
  O  O48  1  0.12724833  0.48136767  0.08804767  1
  O  O49  1  0.14803433  0.68745267  0.24528567  1
  O  O50  1  0.12208500  0.65912200  0.96980400  1
  O  O51  1  0.79629633  0.00754467  0.19686267  1
  O  O52  1  0.20608500  0.02078600  0.07861900  1
  O  O53  1  0.85196567  0.53941833  0.25471433  1
  O  O54  1  0.48136767  0.12724833  0.41195233  1
  O  O55  1  0.12724833  0.64588067  0.58804767  1
  O  O56  1  0.21124833  0.00754467  0.69686267  1
  O  O57  1  0.53703700  0.65912200  0.46980400  1
  O  O58  1  0.18529900  0.97921400  0.42138100  1
  O  O59  1  0.20608500  0.18529900  0.57861900  1
  O  O60  1  0.35411933  0.48136767  0.58804767  1
  O  O61  1  0.65912200  0.12208500  0.53019600  1
  O  O62  1  0.20370367  0.21124833  0.30313733  1
  O  O63  1  0.00754467  0.79629633  0.30313733  1
  O  O64  1  0.87791500  0.53703700  0.53019600  1
  O  O65  1  0.97921400  0.79391500  0.57861900  1
  O  O66  1  0.02078600  0.20608500  0.42138100  1
  O  O67  1  0.99245533  0.20370367  0.69686267  1
  O  O68  1  0.12208500  0.46296300  0.46980400  1
  O  O69  1  0.34087800  0.87791500  0.46980400  1
  O  O70  1  0.79629633  0.78875167  0.69686267  1
  O  O71  1  0.64588067  0.51863233  0.41195233  1
  O  O72  1  0.79391500  0.81470100  0.42138100  1
  O  O73  1  0.81470100  0.02078600  0.57861900  1
  O  O74  1  0.78875167  0.99245533  0.30313733  1
  O  O75  1  0.46296300  0.34087800  0.53019600  1
  O  O76  1  0.87275167  0.35411933  0.41195233  1
  O  O77  1  0.51863233  0.87275167  0.58804767  1
  O  O78  1  0.14803433  0.46058167  0.74528567  1
  O  O79  1  0.79391500  0.97921400  0.92138100  1
  O  O80  1  0.87791500  0.34087800  0.03019600  1
  O  O81  1  0.20370367  0.99245533  0.80313733  1
  O  O82  1  0.85196567  0.31254733  0.75471433  1
  O  O83  1  0.87275167  0.51863233  0.91195233  1
  O  O84  1  0.02078600  0.81470100  0.92138100  1
  O  O85  1  0.32578867  0.45541833  0.86352933  1
  O  O86  1  0.87037033  0.54458167  0.63647067  1
  O  O87  1  0.67421133  0.12962967  0.63647067  1
  O  O88  1  0.54458167  0.87037033  0.86352933  1
  O  O89  1  0.64588067  0.12724833  0.91195233  1
  O  O90  1  0.68745267  0.53941833  0.75471433  1
  O  O91  1  0.65912200  0.53703700  0.03019600  1
  O  O92  1  0.78875167  0.79629633  0.80313733  1
  O  O93  1  0.00754467  0.21124833  0.80313733  1
  O  O94  1  0.46296300  0.12208500  0.03019600  1
  O  O95  1  0.31254733  0.85196567  0.74528567  1
  O  O96  1  0.46058167  0.14803433  0.75471433  1
  O  O97  1  0.48136767  0.35411933  0.91195233  1
  O  O98  1  0.45541833  0.32578867  0.63647067  1
  O  O99  1  0.12962967  0.67421133  0.86352933  1
  O  O100  1  0.53941833  0.68745267  0.74528567  1
  O  O101  1  0.18529900  0.20608500  0.92138100  1
