# generated using pymatgen
data_Fe2OF3
_symmetry_space_group_name_H-M   'P 1'
_cell_length_a   6.79482800
_cell_length_b   7.00626800
_cell_length_c   15.42507200
_cell_angle_alpha   90.00000000
_cell_angle_beta   90.00000000
_cell_angle_gamma   90.00000000
_symmetry_Int_Tables_number   1
_chemical_formula_structural   Fe2OF3
_chemical_formula_sum   'Fe20 O10 F30'
_cell_volume   734.33193143
_cell_formula_units_Z   10
loop_
 _symmetry_equiv_pos_site_id
 _symmetry_equiv_pos_as_xyz
  1  'x, y, z'
loop_
 _atom_site_type_symbol
 _atom_site_label
 _atom_site_symmetry_multiplicity
 _atom_site_fract_x
 _atom_site_fract_y
 _atom_site_fract_z
 _atom_site_occupancy
  Fe  Fe0  1  0.97003800  0.00000000  0.80022800  1
  Fe  Fe1  1  0.03063200  0.00000000  0.00000000  1
  Fe  Fe2  1  0.97003800  0.00000000  0.19977200  1
  Fe  Fe3  1  0.02079600  0.00000000  0.39979600  1
  Fe  Fe4  1  0.02079600  0.00000000  0.60020400  1
  Fe  Fe5  1  0.50007900  0.00000000  0.89993200  1
  Fe  Fe6  1  0.50018700  0.00000000  0.30019600  1
  Fe  Fe7  1  0.50007900  0.00000000  0.10006800  1
  Fe  Fe8  1  0.47548900  0.00000000  0.50000000  1
  Fe  Fe9  1  0.50018700  0.00000000  0.69980400  1
  Fe  Fe10  1  0.47003800  0.50000000  0.80022800  1
  Fe  Fe11  1  0.53063200  0.50000000  0.00000000  1
  Fe  Fe12  1  0.47003800  0.50000000  0.19977200  1
  Fe  Fe13  1  0.52079600  0.50000000  0.39979600  1
  Fe  Fe14  1  0.52079600  0.50000000  0.60020400  1
  Fe  Fe15  1  0.00007900  0.50000000  0.89993200  1
  Fe  Fe16  1  0.00018700  0.50000000  0.30019600  1
  Fe  Fe17  1  0.00007900  0.50000000  0.10006800  1
  Fe  Fe18  1  0.97548900  0.50000000  0.50000000  1
  Fe  Fe19  1  0.00018700  0.50000000  0.69980400  1
  O  O20  1  0.33167000  0.00000000  0.00000000  1
  O  O21  1  0.32225300  0.00000000  0.39732500  1
  O  O22  1  0.32225300  0.00000000  0.60267500  1
  O  O23  1  0.66837400  0.00000000  0.79997300  1
  O  O24  1  0.66837400  0.00000000  0.20002700  1
  O  O25  1  0.83167000  0.50000000  0.00000000  1
  O  O26  1  0.82225300  0.50000000  0.39732500  1
  O  O27  1  0.82225300  0.50000000  0.60267500  1
  O  O28  1  0.16837400  0.50000000  0.79997300  1
  O  O29  1  0.16837400  0.50000000  0.20002700  1
  F  F30  1  0.50013250  0.29540750  0.90016600  1
  F  F31  1  0.50013250  0.29540750  0.09983400  1
  F  F32  1  0.49692350  0.29525850  0.29978200  1
  F  F33  1  0.50747800  0.29380600  0.50000000  1
  F  F34  1  0.49692350  0.29525850  0.70021800  1
  F  F35  1  0.29053900  0.00000000  0.80056500  1
  F  F36  1  0.29053900  0.00000000  0.19943500  1
  F  F37  1  0.70957550  0.00000000  0.00000000  1
  F  F38  1  0.70245900  0.00000000  0.40111900  1
  F  F39  1  0.70245900  0.00000000  0.59888100  1
  F  F40  1  0.50013250  0.70459250  0.90016600  1
  F  F41  1  0.49692350  0.70474150  0.29978200  1
  F  F42  1  0.50013250  0.70459250  0.09983400  1
  F  F43  1  0.49692350  0.70474150  0.70021800  1
  F  F44  1  0.50747800  0.70619400  0.50000000  1
  F  F45  1  0.00013250  0.79540750  0.90016600  1
  F  F46  1  0.00013250  0.79540750  0.09983400  1
  F  F47  1  0.99692350  0.79525850  0.29978200  1
  F  F48  1  0.00747800  0.79380600  0.50000000  1
  F  F49  1  0.99692350  0.79525850  0.70021800  1
  F  F50  1  0.79053900  0.50000000  0.80056500  1
  F  F51  1  0.79053900  0.50000000  0.19943500  1
  F  F52  1  0.20957550  0.50000000  0.00000000  1
  F  F53  1  0.20245900  0.50000000  0.40111900  1
  F  F54  1  0.20245900  0.50000000  0.59888100  1
  F  F55  1  0.00013250  0.20459250  0.90016600  1
  F  F56  1  0.99692350  0.20474150  0.29978200  1
  F  F57  1  0.00013250  0.20459250  0.09983400  1
  F  F58  1  0.99692350  0.20474150  0.70021800  1
  F  F59  1  0.00747800  0.20619400  0.50000000  1
