# generated using pymatgen
data_VCr(P2O7)2
_symmetry_space_group_name_H-M   'P 1'
_cell_length_a   4.86570573
_cell_length_b   6.98785999
_cell_length_c   8.05637476
_cell_angle_alpha   89.46990342
_cell_angle_beta   89.25515481
_cell_angle_gamma   74.11358570
_symmetry_Int_Tables_number   1
_chemical_formula_structural   VCr(P2O7)2
_chemical_formula_sum   'V1 Cr1 P4 O14'
_cell_volume   263.43469812
_cell_formula_units_Z   1
loop_
 _symmetry_equiv_pos_site_id
 _symmetry_equiv_pos_as_xyz
  1  'x, y, z'
loop_
 _atom_site_type_symbol
 _atom_site_label
 _atom_site_symmetry_multiplicity
 _atom_site_fract_x
 _atom_site_fract_y
 _atom_site_fract_z
 _atom_site_occupancy
  V  V0  1  0.21201050  0.27410550  0.50546300  1
  Cr  Cr1  1  0.78418600  0.72987050  0.00627100  1
  P  P2  1  0.39028000  0.49070400  0.18240600  1
  P  P3  1  0.24038550  0.89559800  0.77354600  1
  P  P4  1  0.76422150  0.10366200  0.27102100  1
  P  P5  1  0.60926800  0.51148900  0.69172500  1
  O  O6  1  0.01838850  0.17123300  0.33655300  1
  O  O7  1  0.16833900  0.08532900  0.65983300  1
  O  O8  1  0.15367150  0.52901800  0.05812600  1
  O  O9  1  0.27199400  0.46798950  0.36229600  1
  O  O10  1  0.41262050  0.37243450  0.67351900  1
  O  O11  1  0.55690850  0.09946450  0.42009100  1
  O  O12  1  0.58950300  0.26792600  0.14380900  1
  O  O13  1  0.42699150  0.73183400  0.64194800  1
  O  O14  1  0.42240900  0.91685100  0.91926000  1
  O  O15  1  0.57599400  0.63133400  0.18988700  1
  O  O16  1  0.71302850  0.51184600  0.86691400  1
  O  O17  1  0.85563800  0.45585900  0.56325300  1
  O  O18  1  0.86541800  0.91313050  0.17741800  1
  O  O19  1  0.96862600  0.84069400  0.81574000  1
