# generated using pymatgen
data_Fe5(OF4)2
_symmetry_space_group_name_H-M   'P 1'
_cell_length_a   8.05529400
_cell_length_b   4.76895600
_cell_length_c   10.74860469
_cell_angle_alpha   90.00000000
_cell_angle_beta   116.54316233
_cell_angle_gamma   90.00000000
_symmetry_Int_Tables_number   1
_chemical_formula_structural   Fe5(OF4)2
_chemical_formula_sum   'Fe10 O4 F16'
_cell_volume   369.38964204
_cell_formula_units_Z   2
loop_
 _symmetry_equiv_pos_site_id
 _symmetry_equiv_pos_as_xyz
  1  'x, y, z'
loop_
 _atom_site_type_symbol
 _atom_site_label
 _atom_site_symmetry_multiplicity
 _atom_site_fract_x
 _atom_site_fract_y
 _atom_site_fract_z
 _atom_site_occupancy
  Fe  Fe0  1  0.80327200  0.52113100  0.21278400  1
  Fe  Fe1  1  0.37634400  0.47326800  0.59356500  1
  Fe  Fe2  1  0.00000000  0.50000000  0.00000000  1
  Fe  Fe3  1  0.62365600  0.52673200  0.40643500  1
  Fe  Fe4  1  0.19672800  0.47886900  0.78721600  1
  Fe  Fe5  1  0.37634400  0.02673200  0.09356500  1
  Fe  Fe6  1  0.62365600  0.97326800  0.90643500  1
  Fe  Fe7  1  0.80327200  0.97886900  0.71278400  1
  Fe  Fe8  1  0.00000000  0.00000000  0.50000000  1
  Fe  Fe9  1  0.19672800  0.02113100  0.28721600  1
  O  O10  1  0.82211500  0.79036900  0.89180800  1
  O  O11  1  0.82211500  0.70963100  0.39180800  1
  O  O12  1  0.17788500  0.29036900  0.60819200  1
  O  O13  1  0.17788500  0.20963100  0.10819200  1
  F  F14  1  0.42019400  0.80343900  0.27145500  1
  F  F15  1  0.02153500  0.80735900  0.68314300  1
  F  F16  1  0.60546600  0.80655700  0.07655600  1
  F  F17  1  0.22114200  0.80583300  0.47443800  1
  F  F18  1  0.02153500  0.69264100  0.18314300  1
  F  F19  1  0.22114200  0.69416700  0.97443800  1
  F  F20  1  0.60546600  0.69344300  0.57655600  1
  F  F21  1  0.42019400  0.69656100  0.77145500  1
  F  F22  1  0.77885800  0.30583300  0.02556200  1
  F  F23  1  0.97846500  0.30735900  0.81685700  1
  F  F24  1  0.39453400  0.30655700  0.42344400  1
  F  F25  1  0.57980600  0.30343900  0.22854500  1
  F  F26  1  0.39453400  0.19344300  0.92344400  1
  F  F27  1  0.57980600  0.19656100  0.72854500  1
  F  F28  1  0.97846500  0.19264100  0.31685700  1
  F  F29  1  0.77885800  0.19416700  0.52556200  1
