# generated using pymatgen
data_Li2TiNi2O5
_symmetry_space_group_name_H-M   'P 1'
_cell_length_a   5.08348000
_cell_length_b   14.71740400
_cell_length_c   5.11219150
_cell_angle_alpha   90.00000000
_cell_angle_beta   109.54610763
_cell_angle_gamma   90.00000000
_symmetry_Int_Tables_number   1
_chemical_formula_structural   Li2TiNi2O5
_chemical_formula_sum   'Li8 Ti4 Ni8 O20'
_cell_volume   360.43095075
_cell_formula_units_Z   4
loop_
 _symmetry_equiv_pos_site_id
 _symmetry_equiv_pos_as_xyz
  1  'x, y, z'
loop_
 _atom_site_type_symbol
 _atom_site_label
 _atom_site_symmetry_multiplicity
 _atom_site_fract_x
 _atom_site_fract_y
 _atom_site_fract_z
 _atom_site_occupancy
  Li  Li0  1  0.50000000  0.29958500  0.50000000  1
  Li  Li1  1  0.50000000  0.19933500  0.00000000  1
  Li  Li2  1  0.00000000  0.20014700  0.50000000  1
  Li  Li3  1  0.50000000  0.00384200  0.00000000  1
  Li  Li4  1  0.00000000  0.79958500  0.50000000  1
  Li  Li5  1  0.00000000  0.69933500  0.00000000  1
  Li  Li6  1  0.50000000  0.70014700  0.50000000  1
  Li  Li7  1  0.00000000  0.50384200  0.00000000  1
  Ti  Ti8  1  0.50000000  0.10750800  0.50000000  1
  Ti  Ti9  1  0.00000000  0.30375000  0.00000000  1
  Ti  Ti10  1  0.00000000  0.60750800  0.50000000  1
  Ti  Ti11  1  0.50000000  0.80375000  0.00000000  1
  Ni  Ni12  1  0.50000000  0.39986500  0.00000000  1
  Ni  Ni13  1  0.50000000  0.49914600  0.50000000  1
  Ni  Ni14  1  0.00000000  0.39830000  0.50000000  1
  Ni  Ni15  1  0.00000000  0.10018900  0.00000000  1
  Ni  Ni16  1  0.00000000  0.89986500  0.00000000  1
  Ni  Ni17  1  0.00000000  0.99914600  0.50000000  1
  Ni  Ni18  1  0.50000000  0.89830000  0.50000000  1
  Ni  Ni19  1  0.50000000  0.60018900  0.00000000  1
  O  O20  1  0.25288100  0.19786200  0.25051300  1
  O  O21  1  0.75746650  0.39338950  0.75879300  1
  O  O22  1  0.76807400  0.30150500  0.23079000  1
  O  O23  1  0.26441550  0.09830350  0.73076200  1
  O  O24  1  0.25191250  0.00321850  0.25955300  1
  O  O25  1  0.24253350  0.39338950  0.24120700  1
  O  O26  1  0.73558450  0.09830350  0.26923800  1
  O  O27  1  0.74711900  0.19786200  0.74948700  1
  O  O28  1  0.23192600  0.30150500  0.76921000  1
  O  O29  1  0.74808750  0.00321850  0.74044700  1
  O  O30  1  0.75288100  0.69786200  0.25051300  1
  O  O31  1  0.25746650  0.89338950  0.75879300  1
  O  O32  1  0.26807400  0.80150500  0.23079000  1
  O  O33  1  0.76441550  0.59830350  0.73076200  1
  O  O34  1  0.75191250  0.50321850  0.25955300  1
  O  O35  1  0.74253350  0.89338950  0.24120700  1
  O  O36  1  0.23558450  0.59830350  0.26923800  1
  O  O37  1  0.24711900  0.69786200  0.74948700  1
  O  O38  1  0.73192600  0.80150500  0.76921000  1
  O  O39  1  0.24808750  0.50321850  0.74044700  1
