# generated using pymatgen
data_LiV(CO3)2
_symmetry_space_group_name_H-M   'P 1'
_cell_length_a   4.66779581
_cell_length_b   4.66779581
_cell_length_c   16.27879360
_cell_angle_alpha   90.00000000
_cell_angle_beta   90.00000000
_cell_angle_gamma   120.00000000
_symmetry_Int_Tables_number   1
_chemical_formula_structural   LiV(CO3)2
_chemical_formula_sum   'Li3 V3 C6 O18'
_cell_volume   307.16840909
_cell_formula_units_Z   3
loop_
 _symmetry_equiv_pos_site_id
 _symmetry_equiv_pos_as_xyz
  1  'x, y, z'
loop_
 _atom_site_type_symbol
 _atom_site_label
 _atom_site_symmetry_multiplicity
 _atom_site_fract_x
 _atom_site_fract_y
 _atom_site_fract_z
 _atom_site_occupancy
  Li  Li0  1  0.33333333  0.66666667  0.16666667  1
  Li  Li1  1  0.00000000  0.00000000  0.50000000  1
  Li  Li2  1  0.66666667  0.33333333  0.83333333  1
  V  V3  1  0.00000000  0.00000000  0.00000000  1
  V  V4  1  0.66666667  0.33333333  0.33333333  1
  V  V5  1  0.33333333  0.66666667  0.66666667  1
  C  C6  1  0.00000000  0.00000000  0.25537500  1
  C  C7  1  0.66666667  0.33333333  0.07795833  1
  C  C8  1  0.66666667  0.33333333  0.58870833  1
  C  C9  1  0.33333333  0.66666667  0.41129167  1
  C  C10  1  0.33333333  0.66666667  0.92204167  1
  C  C11  1  0.00000000  0.00000000  0.74462500  1
  O  O12  1  0.37632700  0.30543500  0.07908900  1
  O  O13  1  0.73755867  0.02789833  0.25424433  1
  O  O14  1  0.29033967  0.26244133  0.25424433  1
  O  O15  1  0.69456500  0.07089200  0.07908900  1
  O  O16  1  0.97210167  0.70966033  0.25424433  1
  O  O17  1  0.92910800  0.62367300  0.07908900  1
  O  O18  1  0.04299367  0.63876833  0.41242233  1
  O  O19  1  0.40422533  0.36123167  0.58757767  1
  O  O20  1  0.95700633  0.59577467  0.58757767  1
  O  O21  1  0.36123167  0.40422533  0.41242233  1
  O  O22  1  0.63876833  0.04299367  0.58757767  1
  O  O23  1  0.59577467  0.95700633  0.41242233  1
  O  O24  1  0.70966033  0.97210167  0.74575567  1
  O  O25  1  0.07089200  0.69456500  0.92091100  1
  O  O26  1  0.62367300  0.92910800  0.92091100  1
  O  O27  1  0.02789833  0.73755867  0.74575567  1
  O  O28  1  0.30543500  0.37632700  0.92091100  1
  O  O29  1  0.26244133  0.29033967  0.74575567  1
