# generated using pymatgen
data_PrSO
_symmetry_space_group_name_H-M   'P 1'
_cell_length_a   5.90759600
_cell_length_b   13.15979400
_cell_length_c   5.90239600
_cell_angle_alpha   90.00000000
_cell_angle_beta   90.00000000
_cell_angle_gamma   90.00000000
_symmetry_Int_Tables_number   1
_chemical_formula_structural   PrSO
_chemical_formula_sum   'Pr8 S8 O8'
_cell_volume   458.86847535
_cell_formula_units_Z   8
loop_
 _symmetry_equiv_pos_site_id
 _symmetry_equiv_pos_as_xyz
  1  'x, y, z'
loop_
 _atom_site_type_symbol
 _atom_site_label
 _atom_site_symmetry_multiplicity
 _atom_site_fract_x
 _atom_site_fract_y
 _atom_site_fract_z
 _atom_site_occupancy
  Pr  Pr0  1  0.50000000  0.16147500  0.00000000  1
  Pr  Pr1  1  0.00000000  0.33852500  0.00000000  1
  Pr  Pr2  1  0.50000000  0.33852500  0.50000000  1
  Pr  Pr3  1  0.00000000  0.16147500  0.50000000  1
  Pr  Pr4  1  0.00000000  0.66147500  0.00000000  1
  Pr  Pr5  1  0.50000000  0.83852500  0.00000000  1
  Pr  Pr6  1  0.00000000  0.83852500  0.50000000  1
  Pr  Pr7  1  0.50000000  0.66147500  0.50000000  1
  S  S8  1  0.12651000  0.00000000  0.87335300  1
  S  S9  1  0.62651000  0.00000000  0.62664700  1
  S  S10  1  0.37349000  0.00000000  0.37335300  1
  S  S11  1  0.87349000  0.00000000  0.12664700  1
  S  S12  1  0.62651000  0.50000000  0.87335300  1
  S  S13  1  0.12651000  0.50000000  0.62664700  1
  S  S14  1  0.87349000  0.50000000  0.37335300  1
  S  S15  1  0.37349000  0.50000000  0.12664700  1
  O  O16  1  0.75439100  0.25000000  0.75000000  1
  O  O17  1  0.25439100  0.25000000  0.75000000  1
  O  O18  1  0.74560900  0.25000000  0.25000000  1
  O  O19  1  0.24560900  0.25000000  0.25000000  1
  O  O20  1  0.25439100  0.75000000  0.75000000  1
  O  O21  1  0.75439100  0.75000000  0.75000000  1
  O  O22  1  0.24560900  0.75000000  0.25000000  1
  O  O23  1  0.74560900  0.75000000  0.25000000  1
