# generated using pymatgen
data_CoH8SO8
_symmetry_space_group_name_H-M   'P 1'
_cell_length_a   6.01080900
_cell_length_b   13.66374300
_cell_length_c   9.91372394
_cell_angle_alpha   90.00000000
_cell_angle_beta   126.75789201
_cell_angle_gamma   90.00000000
_symmetry_Int_Tables_number   1
_chemical_formula_structural   CoH8SO8
_chemical_formula_sum   'Co4 H32 S4 O32'
_cell_volume   652.32626757
_cell_formula_units_Z   4
loop_
 _symmetry_equiv_pos_site_id
 _symmetry_equiv_pos_as_xyz
  1  'x, y, z'
loop_
 _atom_site_type_symbol
 _atom_site_label
 _atom_site_symmetry_multiplicity
 _atom_site_fract_x
 _atom_site_fract_y
 _atom_site_fract_z
 _atom_site_occupancy
  Co  Co0  1  0.15108100  0.39845700  0.71910100  1
  Co  Co1  1  0.15108100  0.10154300  0.21910100  1
  Co  Co2  1  0.84891900  0.60154300  0.28089900  1
  Co  Co3  1  0.84891900  0.89845700  0.78089900  1
  H  H4  1  0.10989900  0.41682500  0.97316400  1
  H  H5  1  0.10989900  0.08317500  0.47316400  1
  H  H6  1  0.89010100  0.58317500  0.02683600  1
  H  H7  1  0.89010100  0.91682500  0.52683600  1
  H  H8  1  0.87231000  0.48270600  0.82236900  1
  H  H9  1  0.87231000  0.01729400  0.32236900  1
  H  H10  1  0.12769000  0.51729400  0.17763100  1
  H  H11  1  0.12769000  0.98270600  0.67763100  1
  H  H12  1  0.46331300  0.31333400  0.64959800  1
  H  H13  1  0.46331300  0.18666600  0.14959800  1
  H  H14  1  0.53668700  0.68666600  0.35040200  1
  H  H15  1  0.53668700  0.81333400  0.85040200  1
  H  H16  1  0.36143200  0.41168500  0.54324700  1
  H  H17  1  0.36143200  0.08831500  0.04324700  1
  H  H18  1  0.63856800  0.58831500  0.45675300  1
  H  H19  1  0.63856800  0.91168500  0.95675300  1
  H  H20  1  0.64618200  0.31514300  0.94838800  1
  H  H21  1  0.64618200  0.18485700  0.44838800  1
  H  H22  1  0.35381800  0.68485700  0.05161200  1
  H  H23  1  0.35381800  0.81514300  0.55161200  1
  H  H24  1  0.62754800  0.39980400  0.05352000  1
  H  H25  1  0.62754800  0.10019600  0.55352000  1
  H  H26  1  0.37245200  0.60019600  0.94648000  1
  H  H27  1  0.37245200  0.89980400  0.44648000  1
  H  H28  1  0.97567200  0.23918500  0.78297200  1
  H  H29  1  0.97567200  0.26081500  0.28297200  1
  H  H30  1  0.02432800  0.76081500  0.21702800  1
  H  H31  1  0.02432800  0.73918500  0.71702800  1
  H  H32  1  0.14893000  0.19526700  0.72259100  1
  H  H33  1  0.14893000  0.30473300  0.22259100  1
  H  H34  1  0.85107000  0.80473300  0.27740900  1
  H  H35  1  0.85107000  0.69526700  0.77740900  1
  S  S36  1  0.62482600  0.39099000  0.32122100  1
  S  S37  1  0.62482600  0.10901000  0.82122100  1
  S  S38  1  0.37517400  0.60901000  0.67877900  1
  S  S39  1  0.37517400  0.89099000  0.17877900  1
  O  O40  1  0.74979400  0.44871200  0.25256700  1
  O  O41  1  0.74979400  0.05128800  0.75256700  1
  O  O42  1  0.25020600  0.55128800  0.74743300  1
  O  O43  1  0.25020600  0.94871200  0.24743300  1
  O  O44  1  0.74136000  0.42675700  0.49441600  1
  O  O45  1  0.74136000  0.07324300  0.99441600  1
  O  O46  1  0.25864000  0.57324300  0.50558400  1
  O  O47  1  0.25864000  0.92675700  0.00558400  1
  O  O48  1  0.31572600  0.40703300  0.21129700  1
  O  O49  1  0.31572600  0.09296700  0.71129700  1
  O  O50  1  0.68427400  0.59296700  0.78870300  1
  O  O51  1  0.68427400  0.90703300  0.28870300  1
  O  O52  1  0.68274900  0.28573100  0.31956400  1
  O  O53  1  0.68274900  0.21426900  0.81956400  1
  O  O54  1  0.31725100  0.71426900  0.68043600  1
  O  O55  1  0.31725100  0.78573100  0.18043600  1
  O  O56  1  0.98336200  0.42239900  0.84951500  1
  O  O57  1  0.98336200  0.07760100  0.34951500  1
  O  O58  1  0.01663800  0.57760100  0.15048500  1
  O  O59  1  0.01663800  0.92239900  0.65048500  1
  O  O60  1  0.30335100  0.35720600  0.58024900  1
  O  O61  1  0.30335100  0.14279400  0.08024900  1
  O  O62  1  0.69664900  0.64279400  0.41975100  1
  O  O63  1  0.69664900  0.85720600  0.91975100  1
  O  O64  1  0.54970600  0.37578100  0.93879500  1
  O  O65  1  0.54970600  0.12421900  0.43879500  1
  O  O66  1  0.45029400  0.62421900  0.06120500  1
  O  O67  1  0.45029400  0.87578100  0.56120500  1
  O  O68  1  0.03748700  0.25223600  0.71259100  1
  O  O69  1  0.03748700  0.24776400  0.21259100  1
  O  O70  1  0.96251300  0.74776400  0.28740900  1
  O  O71  1  0.96251300  0.75223600  0.78740900  1
