# generated using pymatgen
data_LiTiO4F3
_symmetry_space_group_name_H-M   'P 1'
_cell_length_a   8.18588600
_cell_length_b   8.89290200
_cell_length_c   7.36436200
_cell_angle_alpha   90.00000000
_cell_angle_beta   90.00000000
_cell_angle_gamma   90.00000000
_symmetry_Int_Tables_number   1
_chemical_formula_structural   LiTiO4F3
_chemical_formula_sum   'Li4 Ti4 O16 F12'
_cell_volume   536.09817276
_cell_formula_units_Z   4
loop_
 _symmetry_equiv_pos_site_id
 _symmetry_equiv_pos_as_xyz
  1  'x, y, z'
loop_
 _atom_site_type_symbol
 _atom_site_label
 _atom_site_symmetry_multiplicity
 _atom_site_fract_x
 _atom_site_fract_y
 _atom_site_fract_z
 _atom_site_occupancy
  Li  Li0  1  0.79165600  0.00000000  0.25000000  1
  Li  Li1  1  0.20834400  0.00000000  0.75000000  1
  Li  Li2  1  0.29165600  0.50000000  0.25000000  1
  Li  Li3  1  0.70834400  0.50000000  0.75000000  1
  Ti  Ti4  1  0.25284800  0.00000000  0.25000000  1
  Ti  Ti5  1  0.74715200  0.00000000  0.75000000  1
  Ti  Ti6  1  0.75284800  0.50000000  0.25000000  1
  Ti  Ti7  1  0.24715200  0.50000000  0.75000000  1
  O  O8  1  0.72921150  0.23029850  0.75000000  1
  O  O9  1  0.27078850  0.23029850  0.25000000  1
  O  O10  1  0.58008150  0.16936950  0.75000000  1
  O  O11  1  0.41991850  0.16936950  0.25000000  1
  O  O12  1  0.58008150  0.83063050  0.75000000  1
  O  O13  1  0.41991850  0.83063050  0.25000000  1
  O  O14  1  0.72921150  0.76970150  0.75000000  1
  O  O15  1  0.27078850  0.76970150  0.25000000  1
  O  O16  1  0.22921150  0.73029850  0.75000000  1
  O  O17  1  0.77078850  0.73029850  0.25000000  1
  O  O18  1  0.08008150  0.66936950  0.75000000  1
  O  O19  1  0.91991850  0.66936950  0.25000000  1
  O  O20  1  0.08008150  0.33063050  0.75000000  1
  O  O21  1  0.91991850  0.33063050  0.25000000  1
  O  O22  1  0.22921150  0.26970150  0.75000000  1
  O  O23  1  0.77078850  0.26970150  0.25000000  1
  F  F24  1  0.02325900  0.00000000  0.25000000  1
  F  F25  1  0.27172500  0.00000000  0.50319900  1
  F  F26  1  0.27172500  0.00000000  0.99680100  1
  F  F27  1  0.72827500  0.00000000  0.49680100  1
  F  F28  1  0.72827500  0.00000000  0.00319900  1
  F  F29  1  0.97674100  0.00000000  0.75000000  1
  F  F30  1  0.52325900  0.50000000  0.25000000  1
  F  F31  1  0.77172500  0.50000000  0.50319900  1
  F  F32  1  0.77172500  0.50000000  0.99680100  1
  F  F33  1  0.22827500  0.50000000  0.49680100  1
  F  F34  1  0.22827500  0.50000000  0.00319900  1
  F  F35  1  0.47674100  0.50000000  0.75000000  1
