# generated using pymatgen
data_V4O7
_symmetry_space_group_name_H-M   'P 1'
_cell_length_a   5.84422841
_cell_length_b   6.27035250
_cell_length_c   7.68407628
_cell_angle_alpha   74.37261580
_cell_angle_beta   74.91186961
_cell_angle_gamma   81.30329589
_symmetry_Int_Tables_number   1
_chemical_formula_structural   V4O7
_chemical_formula_sum   'V8 O14'
_cell_volume   260.83093706
_cell_formula_units_Z   2
loop_
 _symmetry_equiv_pos_site_id
 _symmetry_equiv_pos_as_xyz
  1  'x, y, z'
loop_
 _atom_site_type_symbol
 _atom_site_label
 _atom_site_symmetry_multiplicity
 _atom_site_fract_x
 _atom_site_fract_y
 _atom_site_fract_z
 _atom_site_occupancy
  V  V0  1  0.65337800  0.09651400  0.28893000  1
  V  V1  1  0.34662200  0.90348600  0.71107000  1
  V  V2  1  0.47379400  0.41393300  0.83754600  1
  V  V3  1  0.52620600  0.58606700  0.16245400  1
  V  V4  1  0.09893100  0.24660600  0.25944400  1
  V  V5  1  0.90106900  0.75339400  0.74055600  1
  V  V6  1  0.16238700  0.33716800  0.60661900  1
  V  V7  1  0.83761300  0.66283200  0.39338100  1
  O  O8  1  0.76476600  0.36908700  0.33634900  1
  O  O9  1  0.23523400  0.63091300  0.66365100  1
  O  O10  1  0.17591500  0.51158400  0.33386200  1
  O  O11  1  0.82408500  0.48841600  0.66613800  1
  O  O12  1  0.57971800  0.81200200  0.26705800  1
  O  O13  1  0.42028200  0.18799800  0.73294200  1
  O  O14  1  0.82882900  0.67079900  0.97310600  1
  O  O15  1  0.17117100  0.32920100  0.02689400  1
  O  O16  1  0.67908300  0.88376000  0.56654400  1
  O  O17  1  0.32091700  0.11624000  0.43345600  1
  O  O18  1  0.40115600  0.71283600  0.92248100  1
  O  O19  1  0.59884400  0.28716400  0.07751900  1
  O  O20  1  0.03041600  0.03069800  0.72593500  1
  O  O21  1  0.96958400  0.96930200  0.27406500  1
