# generated using pymatgen
data_Zr2N2O
_symmetry_space_group_name_H-M   'P 1'
_cell_length_a   8.86061500
_cell_length_b   8.86832284
_cell_length_c   8.88495958
_cell_angle_alpha   109.44340575
_cell_angle_beta   109.38128034
_cell_angle_gamma   109.44530870
_symmetry_Int_Tables_number   1
_chemical_formula_structural   Zr2N2O
_chemical_formula_sum   'Zr16 N16 O8'
_cell_volume   538.40171732
_cell_formula_units_Z   8
loop_
 _symmetry_equiv_pos_site_id
 _symmetry_equiv_pos_as_xyz
  1  'x, y, z'
loop_
 _atom_site_type_symbol
 _atom_site_label
 _atom_site_symmetry_multiplicity
 _atom_site_fract_x
 _atom_site_fract_y
 _atom_site_fract_z
 _atom_site_occupancy
  Zr  Zr0  1  0.51168000  0.49847500  0.50081700  1
  Zr  Zr1  1  0.21151700  0.75773400  0.46326600  1
  Zr  Zr2  1  0.96327500  0.21336900  0.25846800  1
  Zr  Zr3  1  0.46933900  0.71997800  0.24715400  1
  Zr  Zr4  1  0.29316400  0.24805600  0.03562200  1
  Zr  Zr5  1  0.25302600  0.03043000  0.28707500  1
  Zr  Zr6  1  0.24500600  0.53585200  0.78606000  1
  Zr  Zr7  1  0.74729200  0.96449900  0.70596600  1
  Zr  Zr8  1  0.50041000  0.00815000  0.01056700  1
  Zr  Zr9  1  0.99101400  0.50322000  0.99489400  1
  Zr  Zr10  1  0.74409200  0.46432200  0.21464600  1
  Zr  Zr11  1  0.99998900  0.99647900  0.48966600  1
  Zr  Zr12  1  0.71738200  0.75060300  0.96778900  1
  Zr  Zr13  1  0.54020500  0.28314600  0.75010900  1
  Zr  Zr14  1  0.02828100  0.78082700  0.74890200  1
  Zr  Zr15  1  0.78725700  0.24967800  0.53704200  1
  N  N16  1  0.76962600  0.72897500  0.73611200  1
  N  N17  1  0.53908500  0.50972700  0.27226400  1
  N  N18  1  0.50758700  0.76779900  0.03952400  1
  N  N19  1  0.23997700  0.76829200  0.22899800  1
  N  N20  1  0.95791200  0.72683400  0.46928300  1
  N  N21  1  0.72743500  0.23515100  0.26861300  1
  N  N22  1  0.05168900  0.27565700  0.53586600  1
  N  N23  1  0.76343900  0.22638000  0.77761800  1
  N  N24  1  0.96581000  0.95821800  0.22699800  1
  N  N25  1  0.25977000  0.98995800  0.03130400  1
  N  N26  1  0.48469600  0.22575500  0.95292500  1
  N  N27  1  0.77358300  0.54642800  0.01119900  1
  N  N28  1  0.99560500  0.53810000  0.76733300  1
  N  N29  1  0.72718600  0.96304400  0.45769200  1
  N  N30  1  0.27345500  0.03229500  0.54651300  1
  N  N31  1  0.53424700  0.26559800  0.48872300  1
  O  O32  1  0.27675600  0.75887600  0.72447700  1
  O  O33  1  0.22635200  0.27830200  0.26448700  1
  O  O34  1  0.46340900  0.73938500  0.51881500  1
  O  O35  1  0.03340500  0.05130400  0.77629600  1
  O  O36  1  0.73731800  0.01100700  0.96441900  1
  O  O37  1  0.22295900  0.44669800  0.98182300  1
  O  O38  1  0.01224000  0.46168300  0.23597000  1
  O  O39  1  0.45353600  0.48972100  0.72470600  1
