# generated using pymatgen
data_La4Zn3O9
_symmetry_space_group_name_H-M   'P 1'
_cell_length_a   5.56609100
_cell_length_b   5.79028500
_cell_length_c   28.42317100
_cell_angle_alpha   90.00000000
_cell_angle_beta   90.00000000
_cell_angle_gamma   90.00000000
_symmetry_Int_Tables_number   1
_chemical_formula_structural   La4Zn3O9
_chemical_formula_sum   'La16 Zn12 O36'
_cell_volume   916.05757564
_cell_formula_units_Z   4
loop_
 _symmetry_equiv_pos_site_id
 _symmetry_equiv_pos_as_xyz
  1  'x, y, z'
loop_
 _atom_site_type_symbol
 _atom_site_label
 _atom_site_symmetry_multiplicity
 _atom_site_fract_x
 _atom_site_fract_y
 _atom_site_fract_z
 _atom_site_occupancy
  La  La0  1  0.24126100  0.02001500  0.82773300  1
  La  La1  1  0.24126100  0.02001500  0.67226700  1
  La  La2  1  0.25633400  0.48311500  0.04949300  1
  La  La3  1  0.25633400  0.48311500  0.45050700  1
  La  La4  1  0.24366600  0.98311500  0.95050700  1
  La  La5  1  0.24366600  0.98311500  0.54949300  1
  La  La6  1  0.25873900  0.52001500  0.32773300  1
  La  La7  1  0.25873900  0.52001500  0.17226700  1
  La  La8  1  0.74126100  0.47998500  0.82773300  1
  La  La9  1  0.74126100  0.47998500  0.67226700  1
  La  La10  1  0.75633400  0.01688500  0.45050700  1
  La  La11  1  0.75633400  0.01688500  0.04949300  1
  La  La12  1  0.74366600  0.51688500  0.95050700  1
  La  La13  1  0.74366600  0.51688500  0.54949300  1
  La  La14  1  0.75873900  0.97998500  0.32773300  1
  La  La15  1  0.75873900  0.97998500  0.17226700  1
  Zn  Zn16  1  0.20442000  0.55747800  0.75000000  1
  Zn  Zn17  1  0.25199000  0.00096600  0.38982100  1
  Zn  Zn18  1  0.25199000  0.00096600  0.11017900  1
  Zn  Zn19  1  0.24801000  0.50096600  0.88982100  1
  Zn  Zn20  1  0.24801000  0.50096600  0.61017900  1
  Zn  Zn21  1  0.29558000  0.05747800  0.25000000  1
  Zn  Zn22  1  0.70442000  0.94252200  0.75000000  1
  Zn  Zn23  1  0.75199000  0.49903400  0.38982100  1
  Zn  Zn24  1  0.75199000  0.49903400  0.11017900  1
  Zn  Zn25  1  0.74801000  0.99903400  0.88982100  1
  Zn  Zn26  1  0.74801000  0.99903400  0.61017900  1
  Zn  Zn27  1  0.79558000  0.44252200  0.25000000  1
  O  O28  1  0.00021300  0.24949800  0.38000500  1
  O  O29  1  0.00021300  0.24949800  0.11999500  1
  O  O30  1  0.00745300  0.74413400  0.39863900  1
  O  O31  1  0.00745300  0.74413400  0.10136100  1
  O  O32  1  0.16802900  0.38742300  0.25000000  1
  O  O33  1  0.24104000  0.07962100  0.47088300  1
  O  O34  1  0.24104000  0.07962100  0.02911700  1
  O  O35  1  0.27561300  0.41529700  0.68944000  1
  O  O36  1  0.27561300  0.41529700  0.81056000  1
  O  O37  1  0.22438700  0.91529700  0.18944000  1
  O  O38  1  0.22438700  0.91529700  0.31056000  1
  O  O39  1  0.25896000  0.57962100  0.97088300  1
  O  O40  1  0.25896000  0.57962100  0.52911700  1
  O  O41  1  0.33197100  0.88742300  0.75000000  1
  O  O42  1  0.49254700  0.24413400  0.89863900  1
  O  O43  1  0.49254700  0.24413400  0.60136100  1
  O  O44  1  0.49978700  0.74949800  0.88000500  1
  O  O45  1  0.49978700  0.74949800  0.61999500  1
  O  O46  1  0.50021300  0.25050200  0.11999500  1
  O  O47  1  0.50021300  0.25050200  0.38000500  1
  O  O48  1  0.50745300  0.75586600  0.39863900  1
  O  O49  1  0.50745300  0.75586600  0.10136100  1
  O  O50  1  0.66802900  0.11257700  0.25000000  1
  O  O51  1  0.74104000  0.42037900  0.47088300  1
  O  O52  1  0.74104000  0.42037900  0.02911700  1
  O  O53  1  0.77561300  0.08470300  0.81056000  1
  O  O54  1  0.77561300  0.08470300  0.68944000  1
  O  O55  1  0.72438700  0.58470300  0.31056000  1
  O  O56  1  0.72438700  0.58470300  0.18944000  1
  O  O57  1  0.75896000  0.92037900  0.97088300  1
  O  O58  1  0.75896000  0.92037900  0.52911700  1
  O  O59  1  0.83197100  0.61257700  0.75000000  1
  O  O60  1  0.99254700  0.25586600  0.89863900  1
  O  O61  1  0.99254700  0.25586600  0.60136100  1
  O  O62  1  0.99978700  0.75050200  0.88000500  1
  O  O63  1  0.99978700  0.75050200  0.61999500  1
