# generated using pymatgen
data_LiFeSiO4
_symmetry_space_group_name_H-M   'P 1'
_cell_length_a   12.75299572
_cell_length_b   12.75299572
_cell_length_c   15.38571716
_cell_angle_alpha   90.00000000
_cell_angle_beta   90.00000000
_cell_angle_gamma   120.00000000
_symmetry_Int_Tables_number   1
_chemical_formula_structural   LiFeSiO4
_chemical_formula_sum   'Li18 Fe18 Si18 O72'
_cell_volume   2167.06932068
_cell_formula_units_Z   18
loop_
 _symmetry_equiv_pos_site_id
 _symmetry_equiv_pos_as_xyz
  1  'x, y, z'
loop_
 _atom_site_type_symbol
 _atom_site_label
 _atom_site_symmetry_multiplicity
 _atom_site_fract_x
 _atom_site_fract_y
 _atom_site_fract_z
 _atom_site_occupancy
  Li  Li0  1  0.17656900  0.81064400  0.59214700  1
  Li  Li1  1  0.30074167  0.14397733  0.42548033  1
  Li  Li2  1  0.84323567  0.69925833  0.42548033  1
  Li  Li3  1  0.85602267  0.15676433  0.42548033  1
  Li  Li4  1  0.18935600  0.36592500  0.59214700  1
  Li  Li5  1  0.63407500  0.82343100  0.59214700  1
  Li  Li6  1  0.84323567  0.14397733  0.92548033  1
  Li  Li7  1  0.96740833  0.47731067  0.75881367  1
  Li  Li8  1  0.50990233  0.03259167  0.75881367  1
  Li  Li9  1  0.52268933  0.49009767  0.75881367  1
  Li  Li10  1  0.85602267  0.69925833  0.92548033  1
  Li  Li11  1  0.30074167  0.15676433  0.92548033  1
  Li  Li12  1  0.50990233  0.47731067  0.25881367  1
  Li  Li13  1  0.63407500  0.81064400  0.09214700  1
  Li  Li14  1  0.17656900  0.36592500  0.09214700  1
  Li  Li15  1  0.18935600  0.82343100  0.09214700  1
  Li  Li16  1  0.52268933  0.03259167  0.25881367  1
  Li  Li17  1  0.96740833  0.49009767  0.25881367  1
  Fe  Fe18  1  0.00344267  0.24522133  0.74910033  1
  Fe  Fe19  1  0.00344267  0.75822133  0.24910033  1
  Fe  Fe20  1  0.24177867  0.24522133  0.24910033  1
  Fe  Fe21  1  0.75477867  0.99655733  0.24910033  1
  Fe  Fe22  1  0.24177867  0.99655733  0.74910033  1
  Fe  Fe23  1  0.75477867  0.75822133  0.74910033  1
  Fe  Fe24  1  0.67010933  0.57855467  0.08243367  1
  Fe  Fe25  1  0.67010933  0.09155467  0.58243367  1
  Fe  Fe26  1  0.90844533  0.57855467  0.58243367  1
  Fe  Fe27  1  0.42144533  0.32989067  0.58243367  1
  Fe  Fe28  1  0.90844533  0.32989067  0.08243367  1
  Fe  Fe29  1  0.42144533  0.09155467  0.08243367  1
  Fe  Fe30  1  0.33677600  0.91188800  0.41576700  1
  Fe  Fe31  1  0.33677600  0.42488800  0.91576700  1
  Fe  Fe32  1  0.57511200  0.91188800  0.91576700  1
  Fe  Fe33  1  0.08811200  0.66322400  0.91576700  1
  Fe  Fe34  1  0.57511200  0.66322400  0.41576700  1
  Fe  Fe35  1  0.08811200  0.42488800  0.41576700  1
  Si  Si36  1  0.07664667  0.66955733  0.41622833  1
  Si  Si37  1  0.92624400  0.33622400  0.58289500  1
  Si  Si38  1  0.40998000  0.07375600  0.58289500  1
  Si  Si39  1  0.66377600  0.59002000  0.58289500  1
  Si  Si40  1  0.33044267  0.40708933  0.41622833  1
  Si  Si41  1  0.59291067  0.92335333  0.41622833  1
  Si  Si42  1  0.74331333  0.00289067  0.74956167  1
  Si  Si43  1  0.59291067  0.66955733  0.91622833  1
  Si  Si44  1  0.07664667  0.40708933  0.91622833  1
  Si  Si45  1  0.33044267  0.92335333  0.91622833  1
  Si  Si46  1  0.99710933  0.74042267  0.74956167  1
  Si  Si47  1  0.25957733  0.25668667  0.74956167  1
  Si  Si48  1  0.40998000  0.33622400  0.08289500  1
  Si  Si49  1  0.25957733  0.00289067  0.24956167  1
  Si  Si50  1  0.74331333  0.74042267  0.24956167  1
  Si  Si51  1  0.99710933  0.25668667  0.24956167  1
  Si  Si52  1  0.66377600  0.07375600  0.08289500  1
  Si  Si53  1  0.92624400  0.59002000  0.08289500  1
  O  O54  1  0.28599200  0.01012700  0.35529800  1
  O  O55  1  0.98960267  0.71557833  0.36916333  1
  O  O56  1  0.05746833  0.67679367  0.52196467  1
  O  O57  1  0.19983133  0.08666067  0.22800467  1
  O  O58  1  0.32293600  0.94069100  0.53583000  1
  O  O59  1  0.88682933  0.80016867  0.22800467  1
  O  O60  1  0.36599600  0.16728300  0.54502500  1
  O  O61  1  0.72413500  0.71400800  0.35529800  1
  O  O62  1  0.28442167  0.27402433  0.36916333  1
  O  O63  1  0.80128700  0.63400400  0.54502500  1
  O  O64  1  0.13462033  0.83394967  0.71169167  1
  O  O65  1  0.91333933  0.11317067  0.22800467  1
  O  O66  1  0.32320633  0.38067467  0.52196467  1
  O  O67  1  0.61775500  0.67706400  0.53583000  1
  O  O68  1  0.91333933  0.80016867  0.72800467  1
  O  O69  1  0.98987300  0.27586500  0.35529800  1
  O  O70  1  0.19983133  0.11317067  0.72800467  1
  O  O71  1  0.72597567  0.01039733  0.36916333  1
  O  O72  1  0.16605033  0.30067067  0.71169167  1
  O  O73  1  0.61932533  0.94253167  0.52196467  1
  O  O74  1  0.69932933  0.86537967  0.71169167  1
  O  O75  1  0.05930900  0.38224500  0.53583000  1
  O  O76  1  0.88682933  0.08666067  0.72800467  1
  O  O77  1  0.83271700  0.19871300  0.54502500  1
  O  O78  1  0.95265867  0.34346033  0.68863133  1
  O  O79  1  0.65626933  0.04891167  0.70249667  1
  O  O80  1  0.72413500  0.01012700  0.85529800  1
  O  O81  1  0.86649800  0.41999400  0.56133800  1
  O  O82  1  0.98960267  0.27402433  0.86916333  1
  O  O83  1  0.55349600  0.13350200  0.56133800  1
  O  O84  1  0.03266267  0.50061633  0.87835833  1
  O  O85  1  0.39080167  0.04734133  0.68863133  1
  O  O86  1  0.95108833  0.60735767  0.70249667  1
  O  O87  1  0.46795367  0.96733733  0.87835833  1
  O  O88  1  0.80128700  0.16728300  0.04502500  1
  O  O89  1  0.58000600  0.44650400  0.56133800  1
  O  O90  1  0.98987300  0.71400800  0.85529800  1
  O  O91  1  0.28442167  0.01039733  0.86916333  1
  O  O92  1  0.58000600  0.13350200  0.06133800  1
  O  O93  1  0.65653967  0.60919833  0.68863133  1
  O  O94  1  0.86649800  0.44650400  0.06133800  1
  O  O95  1  0.39264233  0.34373067  0.70249667  1
  O  O96  1  0.83271700  0.63400400  0.04502500  1
  O  O97  1  0.28599200  0.27586500  0.85529800  1
  O  O98  1  0.36599600  0.19871300  0.04502500  1
  O  O99  1  0.72597567  0.71557833  0.86916333  1
  O  O100  1  0.55349600  0.41999400  0.06133800  1
  O  O101  1  0.49938367  0.53204633  0.87835833  1
  O  O102  1  0.61932533  0.67679367  0.02196467  1
  O  O103  1  0.32293600  0.38224500  0.03583000  1
  O  O104  1  0.39080167  0.34346033  0.18863133  1
  O  O105  1  0.53316467  0.75332733  0.89467133  1
  O  O106  1  0.65626933  0.60735767  0.20249667  1
  O  O107  1  0.22016267  0.46683533  0.89467133  1
  O  O108  1  0.69932933  0.83394967  0.21169167  1
  O  O109  1  0.05746833  0.38067467  0.02196467  1
  O  O110  1  0.61775500  0.94069100  0.03583000  1
  O  O111  1  0.13462033  0.30067067  0.21169167  1
  O  O112  1  0.46795367  0.50061633  0.37835833  1
  O  O113  1  0.24667267  0.77983733  0.89467133  1
  O  O114  1  0.65653967  0.04734133  0.18863133  1
  O  O115  1  0.95108833  0.34373067  0.20249667  1
  O  O116  1  0.24667267  0.46683533  0.39467133  1
  O  O117  1  0.32320633  0.94253167  0.02196467  1
  O  O118  1  0.53316467  0.77983733  0.39467133  1
  O  O119  1  0.05930900  0.67706400  0.03583000  1
  O  O120  1  0.49938367  0.96733733  0.37835833  1
  O  O121  1  0.95265867  0.60919833  0.18863133  1
  O  O122  1  0.03266267  0.53204633  0.37835833  1
  O  O123  1  0.39264233  0.04891167  0.20249667  1
  O  O124  1  0.22016267  0.75332733  0.39467133  1
  O  O125  1  0.16605033  0.86537967  0.21169167  1
