# generated using pymatgen
data_Li3Mn2F7
_symmetry_space_group_name_H-M   'P 1'
_cell_length_a   10.88578600
_cell_length_b   5.17427600
_cell_length_c   10.39465980
_cell_angle_alpha   90.00000000
_cell_angle_beta   100.05380502
_cell_angle_gamma   90.00000000
_symmetry_Int_Tables_number   1
_chemical_formula_structural   Li3Mn2F7
_chemical_formula_sum   'Li12 Mn8 F28'
_cell_volume   576.49960250
_cell_formula_units_Z   4
loop_
 _symmetry_equiv_pos_site_id
 _symmetry_equiv_pos_as_xyz
  1  'x, y, z'
loop_
 _atom_site_type_symbol
 _atom_site_label
 _atom_site_symmetry_multiplicity
 _atom_site_fract_x
 _atom_site_fract_y
 _atom_site_fract_z
 _atom_site_occupancy
  Li  Li0  1  0.55943700  0.26551500  0.12697300  1
  Li  Li1  1  0.55943700  0.73448500  0.62697300  1
  Li  Li2  1  0.75234650  0.24639150  0.49592600  1
  Li  Li3  1  0.75234650  0.75360850  0.99592600  1
  Li  Li4  1  0.94258450  0.76515050  0.37479500  1
  Li  Li5  1  0.94258450  0.23484950  0.87479500  1
  Li  Li6  1  0.05943700  0.76551500  0.12697300  1
  Li  Li7  1  0.05943700  0.23448500  0.62697300  1
  Li  Li8  1  0.25234650  0.74639150  0.49592600  1
  Li  Li9  1  0.25234650  0.25360850  0.99592600  1
  Li  Li10  1  0.44258450  0.26515050  0.37479500  1
  Li  Li11  1  0.44258450  0.73484950  0.87479500  1
  Mn  Mn12  1  0.66261950  0.75844350  0.34134700  1
  Mn  Mn13  1  0.66261950  0.24155650  0.84134700  1
  Mn  Mn14  1  0.83810950  0.25877550  0.15809400  1
  Mn  Mn15  1  0.83810950  0.74122450  0.65809400  1
  Mn  Mn16  1  0.16261950  0.25844350  0.34134700  1
  Mn  Mn17  1  0.16261950  0.74155650  0.84134700  1
  Mn  Mn18  1  0.33810950  0.75877550  0.15809400  1
  Mn  Mn19  1  0.33810950  0.24122450  0.65809400  1
  F  F20  1  0.66169950  0.07584650  0.03141500  1
  F  F21  1  0.69845250  0.53391750  0.17917000  1
  F  F22  1  0.59358550  0.42063350  0.40231300  1
  F  F23  1  0.66169950  0.92415350  0.53141500  1
  F  F24  1  0.69845250  0.46608250  0.67917000  1
  F  F25  1  0.59358550  0.57936650  0.90231300  1
  F  F26  1  0.90765200  0.92037100  0.09714800  1
  F  F27  1  0.80156850  0.03779050  0.32288700  1
  F  F28  1  0.84053100  0.57209000  0.46786900  1
  F  F29  1  0.90765200  0.07962900  0.59714800  1
  F  F30  1  0.50065650  0.97522750  0.24922900  1
  F  F31  1  0.80156850  0.96220950  0.82288700  1
  F  F32  1  0.84053100  0.42791000  0.96786900  1
  F  F33  1  0.50065650  0.02477250  0.74922900  1
  F  F34  1  0.16169950  0.57584650  0.03141500  1
  F  F35  1  0.19845250  0.03391750  0.17917000  1
  F  F36  1  0.09358550  0.92063350  0.40231300  1
  F  F37  1  0.16169950  0.42415350  0.53141500  1
  F  F38  1  0.19845250  0.96608250  0.67917000  1
  F  F39  1  0.09358550  0.07936650  0.90231300  1
  F  F40  1  0.40765200  0.42037100  0.09714800  1
  F  F41  1  0.30156850  0.53779050  0.32288700  1
  F  F42  1  0.34053100  0.07209000  0.46786900  1
  F  F43  1  0.40765200  0.57962900  0.59714800  1
  F  F44  1  0.00065650  0.47522750  0.24922900  1
  F  F45  1  0.30156850  0.46220950  0.82288700  1
  F  F46  1  0.34053100  0.92791000  0.96786900  1
  F  F47  1  0.00065650  0.52477250  0.74922900  1
