# generated using pymatgen
data_Li2CuSnO4
_symmetry_space_group_name_H-M   'P 1'
_cell_length_a   5.89929600
_cell_length_b   6.04792800
_cell_length_c   9.29287400
_cell_angle_alpha   90.00000000
_cell_angle_beta   90.00000000
_cell_angle_gamma   90.00000000
_symmetry_Int_Tables_number   1
_chemical_formula_structural   Li2CuSnO4
_chemical_formula_sum   'Li8 Cu4 Sn4 O16'
_cell_volume   331.55596725
_cell_formula_units_Z   4
loop_
 _symmetry_equiv_pos_site_id
 _symmetry_equiv_pos_as_xyz
  1  'x, y, z'
loop_
 _atom_site_type_symbol
 _atom_site_label
 _atom_site_symmetry_multiplicity
 _atom_site_fract_x
 _atom_site_fract_y
 _atom_site_fract_z
 _atom_site_occupancy
  Li  Li0  1  0.00000000  0.50000000  0.00000000  1
  Li  Li1  1  0.25000000  0.25000000  0.75000000  1
  Li  Li2  1  0.00000000  0.00000000  0.00000000  1
  Li  Li3  1  0.75000000  0.25000000  0.75000000  1
  Li  Li4  1  0.50000000  0.00000000  0.50000000  1
  Li  Li5  1  0.75000000  0.75000000  0.25000000  1
  Li  Li6  1  0.50000000  0.50000000  0.50000000  1
  Li  Li7  1  0.25000000  0.75000000  0.25000000  1
  Cu  Cu8  1  0.75000000  0.75000000  0.75000000  1
  Cu  Cu9  1  0.25000000  0.75000000  0.75000000  1
  Cu  Cu10  1  0.25000000  0.25000000  0.25000000  1
  Cu  Cu11  1  0.75000000  0.25000000  0.25000000  1
  Sn  Sn12  1  0.50000000  0.50000000  0.00000000  1
  Sn  Sn13  1  0.50000000  0.00000000  0.00000000  1
  Sn  Sn14  1  0.00000000  0.00000000  0.50000000  1
  Sn  Sn15  1  0.00000000  0.50000000  0.50000000  1
  O  O16  1  0.74433150  0.25000000  0.98002550  1
  O  O17  1  0.00000000  0.52494700  0.72620100  1
  O  O18  1  0.25566850  0.25000000  0.98002550  1
  O  O19  1  0.00000000  0.97505300  0.72620100  1
  O  O20  1  0.50000000  0.52494700  0.77379900  1
  O  O21  1  0.24433150  0.25000000  0.51997450  1
  O  O22  1  0.50000000  0.97505300  0.77379900  1
  O  O23  1  0.75566850  0.25000000  0.51997450  1
  O  O24  1  0.24433150  0.75000000  0.48002550  1
  O  O25  1  0.50000000  0.02494700  0.22620100  1
  O  O26  1  0.75566850  0.75000000  0.48002550  1
  O  O27  1  0.50000000  0.47505300  0.22620100  1
  O  O28  1  0.00000000  0.02494700  0.27379900  1
  O  O29  1  0.74433150  0.75000000  0.01997450  1
  O  O30  1  0.00000000  0.47505300  0.27379900  1
  O  O31  1  0.25566850  0.75000000  0.01997450  1
