# generated using pymatgen
data_Yb4Sb2O
_symmetry_space_group_name_H-M   'P 1'
_cell_length_a   4.64800400
_cell_length_b   4.64800400
_cell_length_c   16.18931400
_cell_angle_alpha   90.00000000
_cell_angle_beta   90.00000000
_cell_angle_gamma   90.00000000
_symmetry_Int_Tables_number   1
_chemical_formula_structural   Yb4Sb2O
_chemical_formula_sum   'Yb8 Sb4 O2'
_cell_volume   349.75298747
_cell_formula_units_Z   2
loop_
 _symmetry_equiv_pos_site_id
 _symmetry_equiv_pos_as_xyz
  1  'x, y, z'
loop_
 _atom_site_type_symbol
 _atom_site_label
 _atom_site_symmetry_multiplicity
 _atom_site_fract_x
 _atom_site_fract_y
 _atom_site_fract_z
 _atom_site_occupancy
  Yb  Yb0  1  0.00000000  0.50000000  0.00000000  1
  Yb  Yb1  1  0.50000000  0.50000000  0.16311900  1
  Yb  Yb2  1  0.00000000  0.00000000  0.33688100  1
  Yb  Yb3  1  0.50000000  0.00000000  0.00000000  1
  Yb  Yb4  1  0.50000000  0.00000000  0.50000000  1
  Yb  Yb5  1  0.00000000  0.00000000  0.66311900  1
  Yb  Yb6  1  0.50000000  0.50000000  0.83688100  1
  Yb  Yb7  1  0.00000000  0.50000000  0.50000000  1
  Sb  Sb8  1  0.00000000  0.00000000  0.13933200  1
  Sb  Sb9  1  0.50000000  0.50000000  0.36066800  1
  Sb  Sb10  1  0.50000000  0.50000000  0.63933200  1
  Sb  Sb11  1  0.00000000  0.00000000  0.86066800  1
  O  O12  1  0.50000000  0.50000000  0.00000000  1
  O  O13  1  0.00000000  0.00000000  0.50000000  1
