# generated using pymatgen
data_CeZr7O16
_symmetry_space_group_name_H-M   'P 1'
_cell_length_a   12.92617400
_cell_length_b   7.33911800
_cell_length_c   6.46268434
_cell_angle_alpha   90.00000000
_cell_angle_beta   110.79046723
_cell_angle_gamma   90.00000000
_symmetry_Int_Tables_number   1
_chemical_formula_structural   CeZr7O16
_chemical_formula_sum   'Ce2 Zr14 O32'
_cell_volume   573.17189272
_cell_formula_units_Z   2
loop_
 _symmetry_equiv_pos_site_id
 _symmetry_equiv_pos_as_xyz
  1  'x, y, z'
loop_
 _atom_site_type_symbol
 _atom_site_label
 _atom_site_symmetry_multiplicity
 _atom_site_fract_x
 _atom_site_fract_y
 _atom_site_fract_z
 _atom_site_occupancy
  Ce  Ce0  1  0.49997500  0.50000000  0.99903800  1
  Ce  Ce1  1  0.99997500  0.00000000  0.99903800  1
  Zr  Zr2  1  0.49901050  0.24880950  0.49814700  1
  Zr  Zr3  1  0.24781100  0.50000000  0.49815200  1
  Zr  Zr4  1  0.00162500  0.50000000  0.99786600  1
  Zr  Zr5  1  0.49901050  0.75119050  0.49814700  1
  Zr  Zr6  1  0.25105850  0.24677950  0.00171800  1
  Zr  Zr7  1  0.25082500  0.00000000  0.50400100  1
  Zr  Zr8  1  0.25105850  0.75322050  0.00171800  1
  Zr  Zr9  1  0.99901050  0.74880950  0.49814700  1
  Zr  Zr10  1  0.74781100  0.00000000  0.49815200  1
  Zr  Zr11  1  0.50162500  0.00000000  0.99786600  1
  Zr  Zr12  1  0.99901050  0.25119050  0.49814700  1
  Zr  Zr13  1  0.75105850  0.74677950  0.00171800  1
  Zr  Zr14  1  0.75082500  0.50000000  0.50400100  1
  Zr  Zr15  1  0.75105850  0.25322050  0.00171800  1
  O  O16  1  0.42302900  0.50000000  0.63614500  1
  O  O17  1  0.29814300  0.50000000  0.90152800  1
  O  O18  1  0.32540850  0.25164950  0.34934200  1
  O  O19  1  0.07555150  0.74577450  0.84897500  1
  O  O20  1  0.44689000  0.23634600  0.10580100  1
  O  O21  1  0.20096600  0.74994100  0.59807000  1
  O  O22  1  0.29449700  0.00000000  0.88859700  1
  O  O23  1  0.42451100  0.00000000  0.65043600  1
  O  O24  1  0.05297500  0.50000000  0.41145200  1
  O  O25  1  0.17334000  0.50000000  0.15276200  1
  O  O26  1  0.32540850  0.74835050  0.34934200  1
  O  O27  1  0.20096600  0.25005900  0.59807000  1
  O  O28  1  0.07555150  0.25422550  0.84897500  1
  O  O29  1  0.44689000  0.76365400  0.10580100  1
  O  O30  1  0.05198700  0.00000000  0.40324300  1
  O  O31  1  0.18350000  0.00000000  0.15267300  1
  O  O32  1  0.92302900  0.00000000  0.63614500  1
  O  O33  1  0.79814300  0.00000000  0.90152800  1
  O  O34  1  0.82540850  0.75164950  0.34934200  1
  O  O35  1  0.57555150  0.24577450  0.84897500  1
  O  O36  1  0.94689000  0.73634600  0.10580100  1
  O  O37  1  0.70096600  0.24994100  0.59807000  1
  O  O38  1  0.79449700  0.50000000  0.88859700  1
  O  O39  1  0.92451100  0.50000000  0.65043600  1
  O  O40  1  0.55297500  0.00000000  0.41145200  1
  O  O41  1  0.67334000  0.00000000  0.15276200  1
  O  O42  1  0.82540850  0.24835050  0.34934200  1
  O  O43  1  0.70096600  0.75005900  0.59807000  1
  O  O44  1  0.57555150  0.75422550  0.84897500  1
  O  O45  1  0.94689000  0.26365400  0.10580100  1
  O  O46  1  0.55198700  0.50000000  0.40324300  1
  O  O47  1  0.68350000  0.50000000  0.15267300  1
