# generated using pymatgen
data_Fe14O15
_symmetry_space_group_name_H-M   'P 1'
_cell_length_a   6.87368000
_cell_length_b   6.87368000
_cell_length_c   12.97471400
_cell_angle_alpha   90.00000000
_cell_angle_beta   90.00000000
_cell_angle_gamma   90.00000000
_symmetry_Int_Tables_number   1
_chemical_formula_structural   Fe14O15
_chemical_formula_sum   'Fe28 O30'
_cell_volume   613.02249795
_cell_formula_units_Z   2
loop_
 _symmetry_equiv_pos_site_id
 _symmetry_equiv_pos_as_xyz
  1  'x, y, z'
loop_
 _atom_site_type_symbol
 _atom_site_label
 _atom_site_symmetry_multiplicity
 _atom_site_fract_x
 _atom_site_fract_y
 _atom_site_fract_z
 _atom_site_occupancy
  Fe  Fe0  1  0.38525200  0.80121400  0.00000000  1
  Fe  Fe1  1  0.80121400  0.61474800  0.00000000  1
  Fe  Fe2  1  0.61474800  0.19878600  0.00000000  1
  Fe  Fe3  1  0.19878600  0.38525200  0.00000000  1
  Fe  Fe4  1  0.59538500  0.20711500  0.33426100  1
  Fe  Fe5  1  0.00000000  0.00000000  0.33753800  1
  Fe  Fe6  1  0.79288500  0.59538500  0.33426100  1
  Fe  Fe7  1  0.20711500  0.40461500  0.33426100  1
  Fe  Fe8  1  0.40461500  0.79288500  0.33426100  1
  Fe  Fe9  1  0.70711500  0.90461500  0.16573900  1
  Fe  Fe10  1  0.50000000  0.50000000  0.16246200  1
  Fe  Fe11  1  0.29288500  0.09538500  0.16573900  1
  Fe  Fe12  1  0.09538500  0.70711500  0.16573900  1
  Fe  Fe13  1  0.90461500  0.29288500  0.16573900  1
  Fe  Fe14  1  0.88525200  0.30121400  0.50000000  1
  Fe  Fe15  1  0.30121400  0.11474800  0.50000000  1
  Fe  Fe16  1  0.11474800  0.69878600  0.50000000  1
  Fe  Fe17  1  0.69878600  0.88525200  0.50000000  1
  Fe  Fe18  1  0.09538500  0.70711500  0.83426100  1
  Fe  Fe19  1  0.50000000  0.50000000  0.83753800  1
  Fe  Fe20  1  0.29288500  0.09538500  0.83426100  1
  Fe  Fe21  1  0.70711500  0.90461500  0.83426100  1
  Fe  Fe22  1  0.90461500  0.29288500  0.83426100  1
  Fe  Fe23  1  0.20711500  0.40461500  0.66573900  1
  Fe  Fe24  1  0.00000000  0.00000000  0.66246200  1
  Fe  Fe25  1  0.79288500  0.59538500  0.66573900  1
  Fe  Fe26  1  0.59538500  0.20711500  0.66573900  1
  Fe  Fe27  1  0.40461500  0.79288500  0.66573900  1
  O  O28  1  0.50000000  0.50000000  0.00000000  1
  O  O29  1  0.11170100  0.67638700  0.00000000  1
  O  O30  1  0.17638700  0.38829900  0.50000000  1
  O  O31  1  0.32361300  0.11170100  0.00000000  1
  O  O32  1  0.88829900  0.32361300  0.00000000  1
  O  O33  1  0.50000000  0.50000000  0.31831200  1
  O  O34  1  0.90535250  0.29667450  0.33551750  1
  O  O35  1  0.70332550  0.90535250  0.33551750  1
  O  O36  1  0.29667450  0.09464750  0.33551750  1
  O  O37  1  0.09464750  0.70332550  0.33551750  1
  O  O38  1  0.20332550  0.40535250  0.16448250  1
  O  O39  1  0.79667450  0.59464750  0.16448250  1
  O  O40  1  0.59464750  0.20332550  0.16448250  1
  O  O41  1  0.00000000  0.00000000  0.18168800  1
  O  O42  1  0.40535250  0.79667450  0.16448250  1
  O  O43  1  0.00000000  0.00000000  0.50000000  1
  O  O44  1  0.61170100  0.17638700  0.50000000  1
  O  O45  1  0.67638700  0.88829900  0.00000000  1
  O  O46  1  0.82361300  0.61170100  0.50000000  1
  O  O47  1  0.38829900  0.82361300  0.50000000  1
  O  O48  1  0.00000000  0.00000000  0.81831200  1
  O  O49  1  0.40535250  0.79667450  0.83551750  1
  O  O50  1  0.20332550  0.40535250  0.83551750  1
  O  O51  1  0.79667450  0.59464750  0.83551750  1
  O  O52  1  0.59464750  0.20332550  0.83551750  1
  O  O53  1  0.70332550  0.90535250  0.66448250  1
  O  O54  1  0.29667450  0.09464750  0.66448250  1
  O  O55  1  0.09464750  0.70332550  0.66448250  1
  O  O56  1  0.50000000  0.50000000  0.68168800  1
  O  O57  1  0.90535250  0.29667450  0.66448250  1
