# generated using pymatgen
data_Ba2YF7
_symmetry_space_group_name_H-M   'P 1'
_cell_length_a   13.82362800
_cell_length_b   6.80436800
_cell_length_c   8.23227546
_cell_angle_alpha   90.00000000
_cell_angle_beta   125.41096254
_cell_angle_gamma   90.00000000
_symmetry_Int_Tables_number   1
_chemical_formula_structural   Ba2YF7
_chemical_formula_sum   'Ba8 Y4 F28'
_cell_volume   631.09736102
_cell_formula_units_Z   4
loop_
 _symmetry_equiv_pos_site_id
 _symmetry_equiv_pos_as_xyz
  1  'x, y, z'
loop_
 _atom_site_type_symbol
 _atom_site_label
 _atom_site_symmetry_multiplicity
 _atom_site_fract_x
 _atom_site_fract_y
 _atom_site_fract_z
 _atom_site_occupancy
  Ba  Ba0  1  0.32051150  0.99384950  0.73910800  1
  Ba  Ba1  1  0.82051150  0.50615050  0.23910800  1
  Ba  Ba2  1  0.17948850  0.49384950  0.76089200  1
  Ba  Ba3  1  0.67948850  0.00615050  0.26089200  1
  Ba  Ba4  1  0.82051150  0.49384950  0.73910800  1
  Ba  Ba5  1  0.32051150  0.00615050  0.23910800  1
  Ba  Ba6  1  0.67948850  0.99384950  0.76089200  1
  Ba  Ba7  1  0.17948850  0.50615050  0.26089200  1
  Y  Y8  1  0.00000000  0.98518600  0.75000000  1
  Y  Y9  1  0.00000000  0.01481400  0.25000000  1
  Y  Y10  1  0.50000000  0.48518600  0.75000000  1
  Y  Y11  1  0.50000000  0.51481400  0.25000000  1
  F  F12  1  0.18615600  0.88351700  0.86046700  1
  F  F13  1  0.68615600  0.61648300  0.36046700  1
  F  F14  1  0.41804500  0.63943600  0.92724500  1
  F  F15  1  0.87393750  0.24026750  0.54605200  1
  F  F16  1  0.00000000  0.63466100  0.75000000  1
  F  F17  1  0.91804500  0.86056400  0.42724500  1
  F  F18  1  0.12606250  0.24026750  0.95394800  1
  F  F19  1  0.87393750  0.75973250  0.04605200  1
  F  F20  1  0.08195500  0.13943600  0.57275500  1
  F  F21  1  0.00000000  0.36533900  0.25000000  1
  F  F22  1  0.12606250  0.75973250  0.45394800  1
  F  F23  1  0.58195500  0.36056400  0.07275500  1
  F  F24  1  0.31384400  0.38351700  0.63953300  1
  F  F25  1  0.81384400  0.11648300  0.13953300  1
  F  F26  1  0.68615600  0.38351700  0.86046700  1
  F  F27  1  0.18615600  0.11648300  0.36046700  1
  F  F28  1  0.91804500  0.13943600  0.92724500  1
  F  F29  1  0.37393750  0.74026750  0.54605200  1
  F  F30  1  0.50000000  0.13466100  0.75000000  1
  F  F31  1  0.41804500  0.36056400  0.42724500  1
  F  F32  1  0.62606250  0.74026750  0.95394800  1
  F  F33  1  0.37393750  0.25973250  0.04605200  1
  F  F34  1  0.58195500  0.63943600  0.57275500  1
  F  F35  1  0.50000000  0.86533900  0.25000000  1
  F  F36  1  0.62606250  0.25973250  0.45394800  1
  F  F37  1  0.08195500  0.86056400  0.07275500  1
  F  F38  1  0.81384400  0.88351700  0.63953300  1
  F  F39  1  0.31384400  0.61648300  0.13953300  1
