# generated using pymatgen
data_Mn2P2O7F2
_symmetry_space_group_name_H-M   'P 1'
_cell_length_a   6.75384800
_cell_length_b   10.02321700
_cell_length_c   11.12071800
_cell_angle_alpha   90.00000000
_cell_angle_beta   90.00000000
_cell_angle_gamma   90.00000000
_symmetry_Int_Tables_number   1
_chemical_formula_structural   Mn2P2O7F2
_chemical_formula_sum   'Mn8 P8 O28 F8'
_cell_volume   752.82016428
_cell_formula_units_Z   4
loop_
 _symmetry_equiv_pos_site_id
 _symmetry_equiv_pos_as_xyz
  1  'x, y, z'
loop_
 _atom_site_type_symbol
 _atom_site_label
 _atom_site_symmetry_multiplicity
 _atom_site_fract_x
 _atom_site_fract_y
 _atom_site_fract_z
 _atom_site_occupancy
  Mn  Mn0  1  0.00000000  0.00000000  0.00000000  1
  Mn  Mn1  1  0.00000000  0.50000000  0.00000000  1
  Mn  Mn2  1  0.00000000  0.25000000  0.17444600  1
  Mn  Mn3  1  0.50000000  0.75000000  0.32555400  1
  Mn  Mn4  1  0.50000000  0.50000000  0.50000000  1
  Mn  Mn5  1  0.50000000  0.00000000  0.50000000  1
  Mn  Mn6  1  0.50000000  0.25000000  0.67444600  1
  Mn  Mn7  1  0.00000000  0.75000000  0.82555400  1
  P  P8  1  0.28341700  0.74633400  0.07495200  1
  P  P9  1  0.71658300  0.75366600  0.07495200  1
  P  P10  1  0.21658300  0.24633400  0.42504800  1
  P  P11  1  0.78341700  0.25366600  0.42504800  1
  P  P12  1  0.21658300  0.74633400  0.57495200  1
  P  P13  1  0.78341700  0.75366600  0.57495200  1
  P  P14  1  0.28341700  0.24633400  0.92504800  1
  P  P15  1  0.71658300  0.25366600  0.92504800  1
  O  O16  1  0.16054500  0.33176400  0.01533900  1
  O  O17  1  0.83945500  0.16823600  0.01533900  1
  O  O18  1  0.50000000  0.75000000  0.01361300  1
  O  O19  1  0.20980900  0.60165200  0.07576500  1
  O  O20  1  0.79019100  0.89834800  0.07576500  1
  O  O21  1  0.29709400  0.80670900  0.19933100  1
  O  O22  1  0.70290600  0.69329100  0.19933100  1
  O  O23  1  0.20290600  0.30670900  0.30066900  1
  O  O24  1  0.79709400  0.19329100  0.30066900  1
  O  O25  1  0.29019100  0.10165200  0.42423500  1
  O  O26  1  0.70980900  0.39834800  0.42423500  1
  O  O27  1  0.00000000  0.25000000  0.48638700  1
  O  O28  1  0.66054500  0.66823600  0.48466100  1
  O  O29  1  0.33945500  0.83176400  0.48466100  1
  O  O30  1  0.33945500  0.33176400  0.51533900  1
  O  O31  1  0.66054500  0.16823600  0.51533900  1
  O  O32  1  0.00000000  0.75000000  0.51361300  1
  O  O33  1  0.29019100  0.60165200  0.57576500  1
  O  O34  1  0.70980900  0.89834800  0.57576500  1
  O  O35  1  0.79709400  0.69329100  0.69933100  1
  O  O36  1  0.20290600  0.80670900  0.69933100  1
  O  O37  1  0.29709400  0.30670900  0.80066900  1
  O  O38  1  0.70290600  0.19329100  0.80066900  1
  O  O39  1  0.20980900  0.10165200  0.92423500  1
  O  O40  1  0.79019100  0.39834800  0.92423500  1
  O  O41  1  0.50000000  0.25000000  0.98638700  1
  O  O42  1  0.16054500  0.83176400  0.98466100  1
  O  O43  1  0.83945500  0.66823600  0.98466100  1
  F  F44  1  0.10966100  0.08070200  0.16427500  1
  F  F45  1  0.89033900  0.41929800  0.16427500  1
  F  F46  1  0.39033900  0.58070200  0.33572500  1
  F  F47  1  0.60966100  0.91929800  0.33572500  1
  F  F48  1  0.39033900  0.08070200  0.66427500  1
  F  F49  1  0.60966100  0.41929800  0.66427500  1
  F  F50  1  0.10966100  0.58070200  0.83572500  1
  F  F51  1  0.89033900  0.91929800  0.83572500  1
