# generated using pymatgen
data_Y2Ge2O7
_symmetry_space_group_name_H-M   'P 1'
_cell_length_a   6.84745200
_cell_length_b   6.86897776
_cell_length_c   12.40636918
_cell_angle_alpha   93.85185896
_cell_angle_beta   92.96791877
_cell_angle_gamma   92.61606221
_symmetry_Int_Tables_number   1
_chemical_formula_structural   Y2Ge2O7
_chemical_formula_sum   'Y8 Ge8 O28'
_cell_volume   580.72744900
_cell_formula_units_Z   4
loop_
 _symmetry_equiv_pos_site_id
 _symmetry_equiv_pos_as_xyz
  1  'x, y, z'
loop_
 _atom_site_type_symbol
 _atom_site_label
 _atom_site_symmetry_multiplicity
 _atom_site_fract_x
 _atom_site_fract_y
 _atom_site_fract_z
 _atom_site_occupancy
  Y  Y0  1  0.68525400  0.16837400  0.88113400  1
  Y  Y1  1  0.95444300  0.66811800  0.88735800  1
  Y  Y2  1  0.36634400  0.23003500  0.63065300  1
  Y  Y3  1  0.88903700  0.91916800  0.64356700  1
  Y  Y4  1  0.11096300  0.08083200  0.35643300  1
  Y  Y5  1  0.63365600  0.76996500  0.36934700  1
  Y  Y6  1  0.04555700  0.33188200  0.11264200  1
  Y  Y7  1  0.31474600  0.83162600  0.11886600  1
  Ge  Ge8  1  0.16854100  0.14696200  0.88643000  1
  Ge  Ge9  1  0.48600700  0.66765600  0.83616500  1
  Ge  Ge10  1  0.85528800  0.38580700  0.62233300  1
  Ge  Ge11  1  0.38986600  0.73510100  0.60275000  1
  Ge  Ge12  1  0.61013400  0.26489900  0.39725000  1
  Ge  Ge13  1  0.14471200  0.61419300  0.37766700  1
  Ge  Ge14  1  0.51399300  0.33234400  0.16383500  1
  Ge  Ge15  1  0.83145900  0.85303800  0.11357000  1
  O  O16  1  0.75537100  0.90350600  0.98181700  1
  O  O17  1  0.00098900  0.33635000  0.91757900  1
  O  O18  1  0.29145600  0.71675600  0.91851300  1
  O  O19  1  0.65893600  0.50776800  0.88259700  1
  O  O20  1  0.36641200  0.21129800  0.81225100  1
  O  O21  1  0.99188900  0.97974000  0.81673000  1
  O  O22  1  0.60058400  0.86881400  0.77674900  1
  O  O23  1  0.39093700  0.55385400  0.70061200  1
  O  O24  1  0.70640500  0.21320100  0.68869200  1
  O  O25  1  0.92960200  0.60415700  0.69668900  1
  O  O26  1  0.22513900  0.91901700  0.62247600  1
  O  O27  1  0.03855200  0.22496600  0.58227500  1
  O  O28  1  0.60255600  0.83645100  0.54903900  1
  O  O29  1  0.70434600  0.44043100  0.50700900  1
  O  O30  1  0.29565400  0.55956900  0.49299100  1
  O  O31  1  0.39744400  0.16354900  0.45096100  1
  O  O32  1  0.96144800  0.77503400  0.41772500  1
  O  O33  1  0.77486100  0.08098300  0.37752400  1
  O  O34  1  0.07039800  0.39584300  0.30331100  1
  O  O35  1  0.29359500  0.78679900  0.31130800  1
  O  O36  1  0.60906300  0.44614600  0.29938800  1
  O  O37  1  0.39941600  0.13118600  0.22325100  1
  O  O38  1  0.00811100  0.02026000  0.18327000  1
  O  O39  1  0.63358800  0.78870200  0.18774900  1
  O  O40  1  0.34106400  0.49223200  0.11740300  1
  O  O41  1  0.70854400  0.28324400  0.08148700  1
  O  O42  1  0.99901100  0.66365000  0.08242100  1
  O  O43  1  0.24462900  0.09649400  0.01818300  1
