# generated using pymatgen
data_Li3Zn(Fe5O8)4
_symmetry_space_group_name_H-M   'P 1'
_cell_length_a   11.94133200
_cell_length_b   12.02354200
_cell_length_c   8.47713889
_cell_angle_alpha   90.00000000
_cell_angle_beta   90.53885115
_cell_angle_gamma   90.00000000
_symmetry_Int_Tables_number   1
_chemical_formula_structural   Li3Zn(Fe5O8)4
_chemical_formula_sum   'Li6 Zn2 Fe40 O64'
_cell_volume   1217.06925047
_cell_formula_units_Z   2
loop_
 _symmetry_equiv_pos_site_id
 _symmetry_equiv_pos_as_xyz
  1  'x, y, z'
loop_
 _atom_site_type_symbol
 _atom_site_label
 _atom_site_symmetry_multiplicity
 _atom_site_fract_x
 _atom_site_fract_y
 _atom_site_fract_z
 _atom_site_occupancy
  Li  Li0  1  0.62318000  0.25074300  0.87534800  1
  Li  Li1  1  0.37528000  0.00000000  0.37388100  1
  Li  Li2  1  0.62318000  0.74925700  0.87534800  1
  Li  Li3  1  0.12318000  0.75074300  0.87534800  1
  Li  Li4  1  0.87528000  0.50000000  0.37388100  1
  Li  Li5  1  0.12318000  0.24925700  0.87534800  1
  Zn  Zn6  1  0.99448500  0.00000000  0.99349000  1
  Zn  Zn7  1  0.49448500  0.50000000  0.99349000  1
  Fe  Fe8  1  0.74554600  0.25246000  0.49629500  1
  Fe  Fe9  1  0.87299100  0.00000000  0.37313000  1
  Fe  Fe10  1  0.50201350  0.37434750  0.63232600  1
  Fe  Fe11  1  0.74514150  0.12363250  0.12099600  1
  Fe  Fe12  1  0.50250300  0.24965400  0.25062500  1
  Fe  Fe13  1  0.75113500  0.00000000  0.76107300  1
  Fe  Fe14  1  0.49978800  0.12514800  0.62311700  1
  Fe  Fe15  1  0.74514150  0.87636750  0.12099600  1
  Fe  Fe16  1  0.37442150  0.25119850  0.87676600  1
  Fe  Fe17  1  0.61921700  0.00000000  0.37316600  1
  Fe  Fe18  1  0.74554600  0.74754000  0.49629500  1
  Fe  Fe19  1  0.49468900  0.00000000  0.99334800  1
  Fe  Fe20  1  0.24895950  0.12641950  0.12442600  1
  Fe  Fe21  1  0.49978800  0.87485200  0.62311700  1
  Fe  Fe22  1  0.25583800  0.00000000  0.75733900  1
  Fe  Fe23  1  0.50250300  0.75034600  0.25062500  1
  Fe  Fe24  1  0.12793100  0.00000000  0.37371700  1
  Fe  Fe25  1  0.37442150  0.74880150  0.87676600  1
  Fe  Fe26  1  0.24895950  0.87358050  0.12442600  1
  Fe  Fe27  1  0.50201350  0.62565250  0.63232600  1
  Fe  Fe28  1  0.24554600  0.75246000  0.49629500  1
  Fe  Fe29  1  0.37299100  0.50000000  0.37313000  1
  Fe  Fe30  1  0.00201350  0.87434750  0.63232600  1
  Fe  Fe31  1  0.24514150  0.62363250  0.12099600  1
  Fe  Fe32  1  0.00250300  0.74965400  0.25062500  1
  Fe  Fe33  1  0.25113500  0.50000000  0.76107300  1
  Fe  Fe34  1  0.99978800  0.62514800  0.62311700  1
  Fe  Fe35  1  0.24514150  0.37636750  0.12099600  1
  Fe  Fe36  1  0.87442150  0.75119850  0.87676600  1
  Fe  Fe37  1  0.11921700  0.50000000  0.37316600  1
  Fe  Fe38  1  0.24554600  0.24754000  0.49629500  1
  Fe  Fe39  1  0.99468900  0.50000000  0.99334800  1
  Fe  Fe40  1  0.74895950  0.62641950  0.12442600  1
  Fe  Fe41  1  0.99978800  0.37485200  0.62311700  1
  Fe  Fe42  1  0.75583800  0.50000000  0.75733900  1
  Fe  Fe43  1  0.00250300  0.25034600  0.25062500  1
  Fe  Fe44  1  0.62793100  0.50000000  0.37371700  1
  Fe  Fe45  1  0.87442150  0.24880150  0.87676600  1
  Fe  Fe46  1  0.74895950  0.37358050  0.12442600  1
  Fe  Fe47  1  0.00201350  0.12565250  0.63232600  1
  O  O48  1  0.49825250  0.38572250  0.38244700  1
  O  O49  1  0.63537300  0.25012300  0.12635000  1
  O  O50  1  0.88133900  0.00000000  0.61572900  1
  O  O51  1  0.61387800  0.24935100  0.62187700  1
  O  O52  1  0.75587850  0.13180450  0.88628800  1
  O  O53  1  0.75403900  0.11926100  0.36587300  1
  O  O54  1  0.49331300  0.36569100  0.85898600  1
  O  O55  1  0.85863400  0.00000000  0.13575100  1
  O  O56  1  0.37804000  0.25010800  0.62994400  1
  O  O57  1  0.75403900  0.88073900  0.36587300  1
  O  O58  1  0.49378150  0.13031150  0.86563000  1
  O  O59  1  0.49856200  0.12793700  0.38719300  1
  O  O60  1  0.63317700  0.00000000  0.12143200  1
  O  O61  1  0.36611600  0.25432400  0.11890800  1
  O  O62  1  0.61788400  0.00000000  0.63172400  1
  O  O63  1  0.75587850  0.86819550  0.88628800  1
  O  O64  1  0.38366000  0.00000000  0.62453600  1
  O  O65  1  0.25440050  0.13237050  0.88504300  1
  O  O66  1  0.49856200  0.87206300  0.38719300  1
  O  O67  1  0.24361950  0.12089450  0.36545700  1
  O  O68  1  0.63537300  0.74987700  0.12635000  1
  O  O69  1  0.61387800  0.75064900  0.62187700  1
  O  O70  1  0.36470900  0.00000000  0.12604800  1
  O  O71  1  0.49378150  0.86968850  0.86563000  1
  O  O72  1  0.24361950  0.87910550  0.36545700  1
  O  O73  1  0.37804000  0.74989200  0.62994400  1
  O  O74  1  0.13321700  0.00000000  0.13460100  1
  O  O75  1  0.11837400  0.00000000  0.61870000  1
  O  O76  1  0.49331300  0.63430900  0.85898600  1
  O  O77  1  0.25440050  0.86762950  0.88504300  1
  O  O78  1  0.49825250  0.61427750  0.38244700  1
  O  O79  1  0.36611600  0.74567600  0.11890800  1
  O  O80  1  0.99825250  0.88572250  0.38244700  1
  O  O81  1  0.13537300  0.75012300  0.12635000  1
  O  O82  1  0.38133900  0.50000000  0.61572900  1
  O  O83  1  0.11387800  0.74935100  0.62187700  1
  O  O84  1  0.25587850  0.63180450  0.88628800  1
  O  O85  1  0.25403900  0.61926100  0.36587300  1
  O  O86  1  0.99331300  0.86569100  0.85898600  1
  O  O87  1  0.35863400  0.50000000  0.13575100  1
  O  O88  1  0.87804000  0.75010800  0.62994400  1
  O  O89  1  0.25403900  0.38073900  0.36587300  1
  O  O90  1  0.99378150  0.63031150  0.86563000  1
  O  O91  1  0.99856200  0.62793700  0.38719300  1
  O  O92  1  0.13317700  0.50000000  0.12143200  1
  O  O93  1  0.86611600  0.75432400  0.11890800  1
  O  O94  1  0.11788400  0.50000000  0.63172400  1
  O  O95  1  0.25587850  0.36819550  0.88628800  1
  O  O96  1  0.88366000  0.50000000  0.62453600  1
  O  O97  1  0.75440050  0.63237050  0.88504300  1
  O  O98  1  0.99856200  0.37206300  0.38719300  1
  O  O99  1  0.74361950  0.62089450  0.36545700  1
  O  O100  1  0.13537300  0.24987700  0.12635000  1
  O  O101  1  0.11387800  0.25064900  0.62187700  1
  O  O102  1  0.86470900  0.50000000  0.12604800  1
  O  O103  1  0.99378150  0.36968850  0.86563000  1
  O  O104  1  0.74361950  0.37910550  0.36545700  1
  O  O105  1  0.87804000  0.24989200  0.62994400  1
  O  O106  1  0.63321700  0.50000000  0.13460100  1
  O  O107  1  0.61837400  0.50000000  0.61870000  1
  O  O108  1  0.99331300  0.13430900  0.85898600  1
  O  O109  1  0.75440050  0.36762950  0.88504300  1
  O  O110  1  0.99825250  0.11427750  0.38244700  1
  O  O111  1  0.86611600  0.24567600  0.11890800  1
