# generated using pymatgen
data_Na5Mn2P(CO4)4
_symmetry_space_group_name_H-M   'P 1'
_cell_length_a   14.02041400
_cell_length_b   14.15057200
_cell_length_c   14.38680000
_cell_angle_alpha   90.00000000
_cell_angle_beta   90.00000000
_cell_angle_gamma   90.00000000
_symmetry_Int_Tables_number   1
_chemical_formula_structural   Na5Mn2P(CO4)4
_chemical_formula_sum   'Na40 Mn16 P8 C32 O128'
_cell_volume   2854.29620120
_cell_formula_units_Z   8
loop_
 _symmetry_equiv_pos_site_id
 _symmetry_equiv_pos_as_xyz
  1  'x, y, z'
loop_
 _atom_site_type_symbol
 _atom_site_label
 _atom_site_symmetry_multiplicity
 _atom_site_fract_x
 _atom_site_fract_y
 _atom_site_fract_z
 _atom_site_occupancy
  Na  Na0  1  0.50000000  0.00000000  0.29481900  1
  Na  Na1  1  0.50000000  0.29100700  0.00000000  1
  Na  Na2  1  0.20863500  0.00000000  0.00000000  1
  Na  Na3  1  0.75000000  0.25000000  0.04281500  1
  Na  Na4  1  0.79136500  0.00000000  0.00000000  1
  Na  Na5  1  0.96028200  0.25000000  0.25000000  1
  Na  Na6  1  0.00000000  0.00000000  0.20518100  1
  Na  Na7  1  0.50000000  0.70899300  0.00000000  1
  Na  Na8  1  0.53971800  0.25000000  0.25000000  1
  Na  Na9  1  0.75000000  0.25000000  0.45718500  1
  Na  Na10  1  0.50000000  0.50000000  0.79481900  1
  Na  Na11  1  0.50000000  0.79100700  0.50000000  1
  Na  Na12  1  0.20863500  0.50000000  0.50000000  1
  Na  Na13  1  0.75000000  0.75000000  0.54281500  1
  Na  Na14  1  0.79136500  0.50000000  0.50000000  1
  Na  Na15  1  0.96028200  0.75000000  0.75000000  1
  Na  Na16  1  0.00000000  0.50000000  0.70518100  1
  Na  Na17  1  0.50000000  0.20899300  0.50000000  1
  Na  Na18  1  0.53971800  0.75000000  0.75000000  1
  Na  Na19  1  0.75000000  0.75000000  0.95718500  1
  Na  Na20  1  0.00000000  0.00000000  0.79481900  1
  Na  Na21  1  0.00000000  0.29100700  0.50000000  1
  Na  Na22  1  0.70863500  0.00000000  0.50000000  1
  Na  Na23  1  0.25000000  0.25000000  0.54281500  1
  Na  Na24  1  0.29136500  0.00000000  0.50000000  1
  Na  Na25  1  0.46028200  0.25000000  0.75000000  1
  Na  Na26  1  0.50000000  0.00000000  0.70518100  1
  Na  Na27  1  0.00000000  0.70899300  0.50000000  1
  Na  Na28  1  0.03971800  0.25000000  0.75000000  1
  Na  Na29  1  0.25000000  0.25000000  0.95718500  1
  Na  Na30  1  0.00000000  0.50000000  0.29481900  1
  Na  Na31  1  0.00000000  0.79100700  0.00000000  1
  Na  Na32  1  0.70863500  0.50000000  0.00000000  1
  Na  Na33  1  0.25000000  0.75000000  0.04281500  1
  Na  Na34  1  0.29136500  0.50000000  0.00000000  1
  Na  Na35  1  0.46028200  0.75000000  0.25000000  1
  Na  Na36  1  0.50000000  0.50000000  0.20518100  1
  Na  Na37  1  0.00000000  0.20899300  0.00000000  1
  Na  Na38  1  0.03971800  0.75000000  0.25000000  1
  Na  Na39  1  0.25000000  0.75000000  0.45718500  1
  Mn  Mn40  1  0.12620100  0.12308150  0.37344650  1
  Mn  Mn41  1  0.62620100  0.87691850  0.12655350  1
  Mn  Mn42  1  0.87379900  0.87691850  0.37344650  1
  Mn  Mn43  1  0.37379900  0.12308150  0.12655350  1
  Mn  Mn44  1  0.12620100  0.62308150  0.87344650  1
  Mn  Mn45  1  0.62620100  0.37691850  0.62655350  1
  Mn  Mn46  1  0.87379900  0.37691850  0.87344650  1
  Mn  Mn47  1  0.37379900  0.62308150  0.62655350  1
  Mn  Mn48  1  0.62620100  0.12308150  0.87344650  1
  Mn  Mn49  1  0.12620100  0.87691850  0.62655350  1
  Mn  Mn50  1  0.37379900  0.87691850  0.87344650  1
  Mn  Mn51  1  0.87379900  0.12308150  0.62655350  1
  Mn  Mn52  1  0.62620100  0.62308150  0.37344650  1
  Mn  Mn53  1  0.12620100  0.37691850  0.12655350  1
  Mn  Mn54  1  0.37379900  0.37691850  0.37344650  1
  Mn  Mn55  1  0.87379900  0.62308150  0.12655350  1
  P  P56  1  0.75000000  0.25000000  0.25000000  1
  P  P57  1  0.00000000  0.00000000  0.00000000  1
  P  P58  1  0.75000000  0.75000000  0.75000000  1
  P  P59  1  0.00000000  0.50000000  0.50000000  1
  P  P60  1  0.25000000  0.25000000  0.75000000  1
  P  P61  1  0.50000000  0.00000000  0.50000000  1
  P  P62  1  0.25000000  0.75000000  0.25000000  1
  P  P63  1  0.50000000  0.50000000  0.00000000  1
  C  C64  1  0.59049350  0.08945050  0.09214600  1
  C  C65  1  0.65828400  0.83823050  0.34358950  1
  C  C66  1  0.84171600  0.83823050  0.15641050  1
  C  C67  1  0.84171600  0.66176950  0.34358950  1
  C  C68  1  0.90950650  0.08945050  0.40785400  1
  C  C69  1  0.40950650  0.91054950  0.09214600  1
  C  C70  1  0.09049350  0.91054950  0.40785400  1
  C  C71  1  0.65828400  0.66176950  0.15641050  1
  C  C72  1  0.59049350  0.58945050  0.59214600  1
  C  C73  1  0.65828400  0.33823050  0.84358950  1
  C  C74  1  0.84171600  0.33823050  0.65641050  1
  C  C75  1  0.84171600  0.16176950  0.84358950  1
  C  C76  1  0.90950650  0.58945050  0.90785400  1
  C  C77  1  0.40950650  0.41054950  0.59214600  1
  C  C78  1  0.09049350  0.41054950  0.90785400  1
  C  C79  1  0.65828400  0.16176950  0.65641050  1
  C  C80  1  0.09049350  0.08945050  0.59214600  1
  C  C81  1  0.15828400  0.83823050  0.84358950  1
  C  C82  1  0.34171600  0.83823050  0.65641050  1
  C  C83  1  0.34171600  0.66176950  0.84358950  1
  C  C84  1  0.40950650  0.08945050  0.90785400  1
  C  C85  1  0.90950650  0.91054950  0.59214600  1
  C  C86  1  0.59049350  0.91054950  0.90785400  1
  C  C87  1  0.15828400  0.66176950  0.65641050  1
  C  C88  1  0.09049350  0.58945050  0.09214600  1
  C  C89  1  0.15828400  0.33823050  0.34358950  1
  C  C90  1  0.34171600  0.33823050  0.15641050  1
  C  C91  1  0.34171600  0.16176950  0.34358950  1
  C  C92  1  0.40950650  0.58945050  0.40785400  1
  C  C93  1  0.90950650  0.41054950  0.09214600  1
  C  C94  1  0.59049350  0.41054950  0.40785400  1
  C  C95  1  0.15828400  0.16176950  0.15641050  1
  O  O96  1  0.52139350  0.15050400  0.10559750  1
  O  O97  1  0.59894050  0.85214550  0.27635700  1
  O  O98  1  0.59674950  0.01745800  0.14705750  1
  O  O99  1  0.64607700  0.76683750  0.40075850  1
  O  O100  1  0.65091650  0.10384350  0.02608700  1
  O  O101  1  0.68469800  0.31022250  0.18654950  1
  O  O102  1  0.68469800  0.18977750  0.31345050  1
  O  O103  1  0.72813850  0.89618500  0.35821150  1
  O  O104  1  0.77186150  0.60381500  0.35821150  1
  O  O105  1  0.77186150  0.89618500  0.14178850  1
  O  O106  1  0.81530200  0.31022250  0.31345050  1
  O  O107  1  0.81530200  0.18977750  0.18654950  1
  O  O108  1  0.34908350  0.89615650  0.02608700  1
  O  O109  1  0.84908350  0.10384350  0.47391300  1
  O  O110  1  0.85392300  0.73316250  0.40075850  1
  O  O111  1  0.85392300  0.76683750  0.09924150  1
  O  O112  1  0.40325050  0.98254200  0.14705750  1
  O  O113  1  0.90325050  0.01745800  0.35294250  1
  O  O114  1  0.90105950  0.85214550  0.22364300  1
  O  O115  1  0.90105950  0.64785450  0.27635700  1
  O  O116  1  0.93627550  0.06434550  0.06193000  1
  O  O117  1  0.93627550  0.43565450  0.43807000  1
  O  O118  1  0.47860650  0.84949600  0.10559750  1
  O  O119  1  0.97860650  0.15050400  0.39440250  1
  O  O120  1  0.02139350  0.84949600  0.39440250  1
  O  O121  1  0.56372450  0.06434550  0.43807000  1
  O  O122  1  0.56372450  0.43565450  0.06193000  1
  O  O123  1  0.59894050  0.64785450  0.22364300  1
  O  O124  1  0.09674950  0.98254200  0.35294250  1
  O  O125  1  0.64607700  0.73316250  0.09924150  1
  O  O126  1  0.15091650  0.89615650  0.47391300  1
  O  O127  1  0.72813850  0.60381500  0.14178850  1
  O  O128  1  0.52139350  0.65050400  0.60559750  1
  O  O129  1  0.59894050  0.35214550  0.77635700  1
  O  O130  1  0.59674950  0.51745800  0.64705750  1
  O  O131  1  0.64607700  0.26683750  0.90075850  1
  O  O132  1  0.65091650  0.60384350  0.52608700  1
  O  O133  1  0.68469800  0.81022250  0.68654950  1
  O  O134  1  0.68469800  0.68977750  0.81345050  1
  O  O135  1  0.72813850  0.39618500  0.85821150  1
  O  O136  1  0.77186150  0.10381500  0.85821150  1
  O  O137  1  0.77186150  0.39618500  0.64178850  1
  O  O138  1  0.81530200  0.81022250  0.81345050  1
  O  O139  1  0.81530200  0.68977750  0.68654950  1
  O  O140  1  0.34908350  0.39615650  0.52608700  1
  O  O141  1  0.84908350  0.60384350  0.97391300  1
  O  O142  1  0.85392300  0.23316250  0.90075850  1
  O  O143  1  0.85392300  0.26683750  0.59924150  1
  O  O144  1  0.40325050  0.48254200  0.64705750  1
  O  O145  1  0.90325050  0.51745800  0.85294250  1
  O  O146  1  0.90105950  0.35214550  0.72364300  1
  O  O147  1  0.90105950  0.14785450  0.77635700  1
  O  O148  1  0.93627550  0.56434550  0.56193000  1
  O  O149  1  0.93627550  0.93565450  0.93807000  1
  O  O150  1  0.47860650  0.34949600  0.60559750  1
  O  O151  1  0.97860650  0.65050400  0.89440250  1
  O  O152  1  0.02139350  0.34949600  0.89440250  1
  O  O153  1  0.56372450  0.56434550  0.93807000  1
  O  O154  1  0.56372450  0.93565450  0.56193000  1
  O  O155  1  0.59894050  0.14785450  0.72364300  1
  O  O156  1  0.09674950  0.48254200  0.85294250  1
  O  O157  1  0.64607700  0.23316250  0.59924150  1
  O  O158  1  0.15091650  0.39615650  0.97391300  1
  O  O159  1  0.72813850  0.10381500  0.64178850  1
  O  O160  1  0.02139350  0.15050400  0.60559750  1
  O  O161  1  0.09894050  0.85214550  0.77635700  1
  O  O162  1  0.09674950  0.01745800  0.64705750  1
  O  O163  1  0.14607700  0.76683750  0.90075850  1
  O  O164  1  0.15091650  0.10384350  0.52608700  1
  O  O165  1  0.18469800  0.31022250  0.68654950  1
  O  O166  1  0.18469800  0.18977750  0.81345050  1
  O  O167  1  0.22813850  0.89618500  0.85821150  1
  O  O168  1  0.27186150  0.60381500  0.85821150  1
  O  O169  1  0.27186150  0.89618500  0.64178850  1
  O  O170  1  0.31530200  0.31022250  0.81345050  1
  O  O171  1  0.31530200  0.18977750  0.68654950  1
  O  O172  1  0.84908350  0.89615650  0.52608700  1
  O  O173  1  0.34908350  0.10384350  0.97391300  1
  O  O174  1  0.35392300  0.73316250  0.90075850  1
  O  O175  1  0.35392300  0.76683750  0.59924150  1
  O  O176  1  0.90325050  0.98254200  0.64705750  1
  O  O177  1  0.40325050  0.01745800  0.85294250  1
  O  O178  1  0.40105950  0.85214550  0.72364300  1
  O  O179  1  0.40105950  0.64785450  0.77635700  1
  O  O180  1  0.43627550  0.06434550  0.56193000  1
  O  O181  1  0.43627550  0.43565450  0.93807000  1
  O  O182  1  0.97860650  0.84949600  0.60559750  1
  O  O183  1  0.47860650  0.15050400  0.89440250  1
  O  O184  1  0.52139350  0.84949600  0.89440250  1
  O  O185  1  0.06372450  0.06434550  0.93807000  1
  O  O186  1  0.06372450  0.43565450  0.56193000  1
  O  O187  1  0.09894050  0.64785450  0.72364300  1
  O  O188  1  0.59674950  0.98254200  0.85294250  1
  O  O189  1  0.14607700  0.73316250  0.59924150  1
  O  O190  1  0.65091650  0.89615650  0.97391300  1
  O  O191  1  0.22813850  0.60381500  0.64178850  1
  O  O192  1  0.02139350  0.65050400  0.10559750  1
  O  O193  1  0.09894050  0.35214550  0.27635700  1
  O  O194  1  0.09674950  0.51745800  0.14705750  1
  O  O195  1  0.14607700  0.26683750  0.40075850  1
  O  O196  1  0.15091650  0.60384350  0.02608700  1
  O  O197  1  0.18469800  0.81022250  0.18654950  1
  O  O198  1  0.18469800  0.68977750  0.31345050  1
  O  O199  1  0.22813850  0.39618500  0.35821150  1
  O  O200  1  0.27186150  0.10381500  0.35821150  1
  O  O201  1  0.27186150  0.39618500  0.14178850  1
  O  O202  1  0.31530200  0.81022250  0.31345050  1
  O  O203  1  0.31530200  0.68977750  0.18654950  1
  O  O204  1  0.84908350  0.39615650  0.02608700  1
  O  O205  1  0.34908350  0.60384350  0.47391300  1
  O  O206  1  0.35392300  0.23316250  0.40075850  1
  O  O207  1  0.35392300  0.26683750  0.09924150  1
  O  O208  1  0.90325050  0.48254200  0.14705750  1
  O  O209  1  0.40325050  0.51745800  0.35294250  1
  O  O210  1  0.40105950  0.35214550  0.22364300  1
  O  O211  1  0.40105950  0.14785450  0.27635700  1
  O  O212  1  0.43627550  0.56434550  0.06193000  1
  O  O213  1  0.43627550  0.93565450  0.43807000  1
  O  O214  1  0.97860650  0.34949600  0.10559750  1
  O  O215  1  0.47860650  0.65050400  0.39440250  1
  O  O216  1  0.52139350  0.34949600  0.39440250  1
  O  O217  1  0.06372450  0.56434550  0.43807000  1
  O  O218  1  0.06372450  0.93565450  0.06193000  1
  O  O219  1  0.09894050  0.14785450  0.22364300  1
  O  O220  1  0.59674950  0.48254200  0.35294250  1
  O  O221  1  0.14607700  0.23316250  0.09924150  1
  O  O222  1  0.65091650  0.39615650  0.47391300  1
  O  O223  1  0.22813850  0.10381500  0.14178850  1
