# generated using pymatgen
data_NaV2O4
_symmetry_space_group_name_H-M   'P 1'
_cell_length_a   6.03998400
_cell_length_b   6.03998400
_cell_length_c   9.05701400
_cell_angle_alpha   90.00000000
_cell_angle_beta   90.00000000
_cell_angle_gamma   90.00000000
_symmetry_Int_Tables_number   1
_chemical_formula_structural   NaV2O4
_chemical_formula_sum   'Na4 V8 O16'
_cell_volume   330.41261141
_cell_formula_units_Z   4
loop_
 _symmetry_equiv_pos_site_id
 _symmetry_equiv_pos_as_xyz
  1  'x, y, z'
loop_
 _atom_site_type_symbol
 _atom_site_label
 _atom_site_symmetry_multiplicity
 _atom_site_fract_x
 _atom_site_fract_y
 _atom_site_fract_z
 _atom_site_occupancy
  Na  Na0  1  0.00000000  0.50000000  0.25000000  1
  Na  Na1  1  0.50000000  0.50000000  0.50000000  1
  Na  Na2  1  0.50000000  0.00000000  0.75000000  1
  Na  Na3  1  0.00000000  0.00000000  0.00000000  1
  V  V4  1  0.75000000  0.00000000  0.37500000  1
  V  V5  1  0.50000000  0.25000000  0.12500000  1
  V  V6  1  0.25000000  0.00000000  0.37500000  1
  V  V7  1  0.50000000  0.75000000  0.12500000  1
  V  V8  1  0.25000000  0.50000000  0.87500000  1
  V  V9  1  0.00000000  0.75000000  0.62500000  1
  V  V10  1  0.75000000  0.50000000  0.87500000  1
  V  V11  1  0.00000000  0.25000000  0.62500000  1
  O  O12  1  0.78527950  0.00000000  0.60303850  1
  O  O13  1  0.00000000  0.78527950  0.39696150  1
  O  O14  1  0.00000000  0.21472050  0.39696150  1
  O  O15  1  0.21472050  0.00000000  0.60303850  1
  O  O16  1  0.28527950  0.00000000  0.14696150  1
  O  O17  1  0.50000000  0.78527950  0.35303850  1
  O  O18  1  0.50000000  0.21472050  0.35303850  1
  O  O19  1  0.71472050  0.00000000  0.14696150  1
  O  O20  1  0.28527950  0.50000000  0.10303850  1
  O  O21  1  0.50000000  0.28527950  0.89696150  1
  O  O22  1  0.50000000  0.71472050  0.89696150  1
  O  O23  1  0.71472050  0.50000000  0.10303850  1
  O  O24  1  0.78527950  0.50000000  0.64696150  1
  O  O25  1  0.00000000  0.28527950  0.85303850  1
  O  O26  1  0.00000000  0.71472050  0.85303850  1
  O  O27  1  0.21472050  0.50000000  0.64696150  1
