# generated using pymatgen
data_Ba2YBr7
_symmetry_space_group_name_H-M   'P 1'
_cell_length_a   8.20914100
_cell_length_b   13.66924800
_cell_length_c   15.29706800
_cell_angle_alpha   90.00000000
_cell_angle_beta   90.00000000
_cell_angle_gamma   90.00000000
_symmetry_Int_Tables_number   1
_chemical_formula_structural   Ba2YBr7
_chemical_formula_sum   'Ba8 Y4 Br28'
_cell_volume   1716.52659032
_cell_formula_units_Z   4
loop_
 _symmetry_equiv_pos_site_id
 _symmetry_equiv_pos_as_xyz
  1  'x, y, z'
loop_
 _atom_site_type_symbol
 _atom_site_label
 _atom_site_symmetry_multiplicity
 _atom_site_fract_x
 _atom_site_fract_y
 _atom_site_fract_z
 _atom_site_occupancy
  Ba  Ba0  1  0.25000000  0.24052400  0.52903900  1
  Ba  Ba1  1  0.25000000  0.25329100  0.22992300  1
  Ba  Ba2  1  0.75000000  0.24670900  0.72992300  1
  Ba  Ba3  1  0.75000000  0.25947600  0.02903900  1
  Ba  Ba4  1  0.25000000  0.74052400  0.97096100  1
  Ba  Ba5  1  0.25000000  0.75329100  0.27007700  1
  Ba  Ba6  1  0.75000000  0.74670900  0.77007700  1
  Ba  Ba7  1  0.75000000  0.75947600  0.47096100  1
  Y  Y8  1  0.25000000  0.93862500  0.71303700  1
  Y  Y9  1  0.75000000  0.56137500  0.21303700  1
  Y  Y10  1  0.25000000  0.43862500  0.78696300  1
  Y  Y11  1  0.75000000  0.06137500  0.28696300  1
  Br  Br12  1  0.75000000  0.10185200  0.88342700  1
  Br  Br13  1  0.02944100  0.08766300  0.65224400  1
  Br  Br14  1  0.47055900  0.08766300  0.65224400  1
  Br  Br15  1  0.96634700  0.10541900  0.14669800  1
  Br  Br16  1  0.53365300  0.10541900  0.14669800  1
  Br  Br17  1  0.96851400  0.18268800  0.37701200  1
  Br  Br18  1  0.53148600  0.18268800  0.37701200  1
  Br  Br19  1  0.03148600  0.31731200  0.87701200  1
  Br  Br20  1  0.46851400  0.31731200  0.87701200  1
  Br  Br21  1  0.03365300  0.39458100  0.64669800  1
  Br  Br22  1  0.46634700  0.39458100  0.64669800  1
  Br  Br23  1  0.52944100  0.41233700  0.15224400  1
  Br  Br24  1  0.97055900  0.41233700  0.15224400  1
  Br  Br25  1  0.25000000  0.39814800  0.38342700  1
  Br  Br26  1  0.75000000  0.60185200  0.61657300  1
  Br  Br27  1  0.02944100  0.58766300  0.84775600  1
  Br  Br28  1  0.47055900  0.58766300  0.84775600  1
  Br  Br29  1  0.96634700  0.60541900  0.35330200  1
  Br  Br30  1  0.53365300  0.60541900  0.35330200  1
  Br  Br31  1  0.96851400  0.68268800  0.12298800  1
  Br  Br32  1  0.53148600  0.68268800  0.12298800  1
  Br  Br33  1  0.46851400  0.81731200  0.62298800  1
  Br  Br34  1  0.03148600  0.81731200  0.62298800  1
  Br  Br35  1  0.46634700  0.89458100  0.85330200  1
  Br  Br36  1  0.03365300  0.89458100  0.85330200  1
  Br  Br37  1  0.52944100  0.91233700  0.34775600  1
  Br  Br38  1  0.97055900  0.91233700  0.34775600  1
  Br  Br39  1  0.25000000  0.89814800  0.11657300  1
