# generated using pymatgen
data_LiMnF4
_symmetry_space_group_name_H-M   'P 1'
_cell_length_a   8.75932800
_cell_length_b   9.23211400
_cell_length_c   11.38294800
_cell_angle_alpha   90.00000000
_cell_angle_beta   90.00000000
_cell_angle_gamma   90.00000000
_symmetry_Int_Tables_number   1
_chemical_formula_structural   LiMnF4
_chemical_formula_sum   'Li12 Mn12 F48'
_cell_volume   920.50616108
_cell_formula_units_Z   12
loop_
 _symmetry_equiv_pos_site_id
 _symmetry_equiv_pos_as_xyz
  1  'x, y, z'
loop_
 _atom_site_type_symbol
 _atom_site_label
 _atom_site_symmetry_multiplicity
 _atom_site_fract_x
 _atom_site_fract_y
 _atom_site_fract_z
 _atom_site_occupancy
  Li  Li0  1  0.32946800  0.00000000  0.00000000  1
  Li  Li1  1  0.32946800  0.00000000  0.50000000  1
  Li  Li2  1  0.50000000  0.67359600  0.25000000  1
  Li  Li3  1  0.50000000  0.32640400  0.75000000  1
  Li  Li4  1  0.67053200  0.00000000  0.50000000  1
  Li  Li5  1  0.67053200  0.00000000  0.00000000  1
  Li  Li6  1  0.82946800  0.50000000  0.00000000  1
  Li  Li7  1  0.82946800  0.50000000  0.50000000  1
  Li  Li8  1  0.00000000  0.17359600  0.25000000  1
  Li  Li9  1  0.00000000  0.82640400  0.75000000  1
  Li  Li10  1  0.17053200  0.50000000  0.50000000  1
  Li  Li11  1  0.17053200  0.50000000  0.00000000  1
  Mn  Mn12  1  0.50000000  0.35256400  0.07167400  1
  Mn  Mn13  1  0.50000000  0.35256400  0.42832600  1
  Mn  Mn14  1  0.50000000  0.92664400  0.75000000  1
  Mn  Mn15  1  0.50000000  0.64743600  0.92832600  1
  Mn  Mn16  1  0.50000000  0.64743600  0.57167400  1
  Mn  Mn17  1  0.50000000  0.07335600  0.25000000  1
  Mn  Mn18  1  0.00000000  0.85256400  0.07167400  1
  Mn  Mn19  1  0.00000000  0.85256400  0.42832600  1
  Mn  Mn20  1  0.00000000  0.42664400  0.75000000  1
  Mn  Mn21  1  0.00000000  0.14743600  0.92832600  1
  Mn  Mn22  1  0.00000000  0.14743600  0.57167400  1
  Mn  Mn23  1  0.00000000  0.57335600  0.25000000  1
  F  F24  1  0.20744900  0.85867100  0.07336400  1
  F  F25  1  0.20744900  0.85867100  0.42663600  1
  F  F26  1  0.20744900  0.14132900  0.92663600  1
  F  F27  1  0.20744900  0.14132900  0.57336400  1
  F  F28  1  0.29176900  0.07949300  0.25000000  1
  F  F29  1  0.29176900  0.92050700  0.75000000  1
  F  F30  1  0.50000000  0.42320200  0.59816900  1
  F  F31  1  0.50000000  0.87032500  0.25000000  1
  F  F32  1  0.50000000  0.42320200  0.90183100  1
  F  F33  1  0.50000000  0.29649400  0.25000000  1
  F  F34  1  0.50000000  0.12967500  0.75000000  1
  F  F35  1  0.50000000  0.57679800  0.09816900  1
  F  F36  1  0.50000000  0.70350600  0.75000000  1
  F  F37  1  0.50000000  0.87344600  0.56025500  1
  F  F38  1  0.50000000  0.12655400  0.06025500  1
  F  F39  1  0.50000000  0.57679800  0.40183100  1
  F  F40  1  0.50000000  0.12655400  0.43974500  1
  F  F41  1  0.50000000  0.87344600  0.93974500  1
  F  F42  1  0.70823100  0.07949300  0.25000000  1
  F  F43  1  0.70823100  0.92050700  0.75000000  1
  F  F44  1  0.79255100  0.14132900  0.57336400  1
  F  F45  1  0.79255100  0.14132900  0.92663600  1
  F  F46  1  0.79255100  0.85867100  0.07336400  1
  F  F47  1  0.79255100  0.85867100  0.42663600  1
  F  F48  1  0.70744900  0.35867100  0.07336400  1
  F  F49  1  0.70744900  0.35867100  0.42663600  1
  F  F50  1  0.70744900  0.64132900  0.92663600  1
  F  F51  1  0.70744900  0.64132900  0.57336400  1
  F  F52  1  0.79176900  0.57949300  0.25000000  1
  F  F53  1  0.79176900  0.42050700  0.75000000  1
  F  F54  1  0.00000000  0.92320200  0.59816900  1
  F  F55  1  0.00000000  0.37032500  0.25000000  1
  F  F56  1  0.00000000  0.92320200  0.90183100  1
  F  F57  1  0.00000000  0.79649400  0.25000000  1
  F  F58  1  0.00000000  0.62967500  0.75000000  1
  F  F59  1  0.00000000  0.07679800  0.09816900  1
  F  F60  1  0.00000000  0.20350600  0.75000000  1
  F  F61  1  0.00000000  0.37344600  0.56025500  1
  F  F62  1  0.00000000  0.62655400  0.06025500  1
  F  F63  1  0.00000000  0.07679800  0.40183100  1
  F  F64  1  0.00000000  0.62655400  0.43974500  1
  F  F65  1  0.00000000  0.37344600  0.93974500  1
  F  F66  1  0.20823100  0.57949300  0.25000000  1
  F  F67  1  0.20823100  0.42050700  0.75000000  1
  F  F68  1  0.29255100  0.64132900  0.57336400  1
  F  F69  1  0.29255100  0.64132900  0.92663600  1
  F  F70  1  0.29255100  0.35867100  0.07336400  1
  F  F71  1  0.29255100  0.35867100  0.42663600  1
