# generated using pymatgen
data_VCrO3
_symmetry_space_group_name_H-M   'P 1'
_cell_length_a   9.72102400
_cell_length_b   5.13285600
_cell_length_c   8.83802963
_cell_angle_alpha   90.00000000
_cell_angle_beta   107.55664699
_cell_angle_gamma   90.00000000
_symmetry_Int_Tables_number   1
_chemical_formula_structural   VCrO3
_chemical_formula_sum   'V8 Cr8 O24'
_cell_volume   420.44620361
_cell_formula_units_Z   8
loop_
 _symmetry_equiv_pos_site_id
 _symmetry_equiv_pos_as_xyz
  1  'x, y, z'
loop_
 _atom_site_type_symbol
 _atom_site_label
 _atom_site_symmetry_multiplicity
 _atom_site_fract_x
 _atom_site_fract_y
 _atom_site_fract_z
 _atom_site_occupancy
  V  V0  1  0.90255750  0.12421650  0.30010800  1
  V  V1  1  0.59744250  0.62421650  0.69989200  1
  V  V2  1  0.65192500  0.63051900  0.05014400  1
  V  V3  1  0.84807500  0.13051900  0.94985600  1
  V  V4  1  0.40255750  0.62421650  0.30010800  1
  V  V5  1  0.09744250  0.12421650  0.69989200  1
  V  V6  1  0.15192500  0.13051900  0.05014400  1
  V  V7  1  0.34807500  0.63051900  0.94985600  1
  Cr  Cr8  1  0.89769550  0.62734850  0.80045100  1
  Cr  Cr9  1  0.60230450  0.12734850  0.19954900  1
  Cr  Cr10  1  0.64887550  0.12277250  0.54957200  1
  Cr  Cr11  1  0.85112450  0.62277250  0.45042800  1
  Cr  Cr12  1  0.39769550  0.12734850  0.80045100  1
  Cr  Cr13  1  0.10230450  0.62734850  0.19954900  1
  Cr  Cr14  1  0.14887550  0.62277250  0.54957200  1
  Cr  Cr15  1  0.35112450  0.12277250  0.45042800  1
  O  O16  1  0.99853300  0.47458200  0.65131700  1
  O  O17  1  0.50300450  0.47434050  0.15215100  1
  O  O18  1  0.00000000  0.43511300  0.00000000  1
  O  O19  1  0.75096450  0.82111450  0.24982600  1
  O  O20  1  0.75055000  0.27455700  0.40219800  1
  O  O21  1  0.74926500  0.77642800  0.90079900  1
  O  O22  1  0.99699550  0.97434050  0.84784900  1
  O  O23  1  0.50146700  0.97458200  0.34868300  1
  O  O24  1  0.00000000  0.92242400  0.50000000  1
  O  O25  1  0.74903550  0.32111450  0.75017400  1
  O  O26  1  0.74945000  0.77455700  0.59780200  1
  O  O27  1  0.75073500  0.27642800  0.09920100  1
  O  O28  1  0.49853300  0.97458200  0.65131700  1
  O  O29  1  0.00300450  0.97434050  0.15215100  1
  O  O30  1  0.50000000  0.93511300  0.00000000  1
  O  O31  1  0.25096450  0.32111450  0.24982600  1
  O  O32  1  0.25055000  0.77455700  0.40219800  1
  O  O33  1  0.24926500  0.27642800  0.90079900  1
  O  O34  1  0.49699550  0.47434050  0.84784900  1
  O  O35  1  0.00146700  0.47458200  0.34868300  1
  O  O36  1  0.50000000  0.42242400  0.50000000  1
  O  O37  1  0.24903550  0.82111450  0.75017400  1
  O  O38  1  0.24945000  0.27455700  0.59780200  1
  O  O39  1  0.25073500  0.77642800  0.09920100  1
