# generated using pymatgen
data_GdAsO4
_symmetry_space_group_name_H-M   'P 1'
_cell_length_a   5.09907400
_cell_length_b   5.09907400
_cell_length_c   11.50932800
_cell_angle_alpha   90.00000000
_cell_angle_beta   90.00000000
_cell_angle_gamma   90.00000000
_symmetry_Int_Tables_number   1
_chemical_formula_structural   GdAsO4
_chemical_formula_sum   'Gd4 As4 O16'
_cell_volume   299.24892324
_cell_formula_units_Z   4
loop_
 _symmetry_equiv_pos_site_id
 _symmetry_equiv_pos_as_xyz
  1  'x, y, z'
loop_
 _atom_site_type_symbol
 _atom_site_label
 _atom_site_symmetry_multiplicity
 _atom_site_fract_x
 _atom_site_fract_y
 _atom_site_fract_z
 _atom_site_occupancy
  Gd  Gd0  1  0.50000000  0.50000000  0.00000000  1
  Gd  Gd1  1  0.50000000  0.00000000  0.25000000  1
  Gd  Gd2  1  0.00000000  0.00000000  0.50000000  1
  Gd  Gd3  1  0.00000000  0.50000000  0.75000000  1
  As  As4  1  0.00000000  0.00000000  0.00000000  1
  As  As5  1  0.00000000  0.50000000  0.25000000  1
  As  As6  1  0.50000000  0.50000000  0.50000000  1
  As  As7  1  0.50000000  0.00000000  0.75000000  1
  O  O8  1  0.64631600  0.24971800  0.42181700  1
  O  O9  1  0.14631600  0.24971800  0.32818300  1
  O  O10  1  0.25028200  0.14631600  0.07818300  1
  O  O11  1  0.25028200  0.64631600  0.17181700  1
  O  O12  1  0.74971800  0.85368400  0.07818300  1
  O  O13  1  0.74971800  0.35368400  0.17181700  1
  O  O14  1  0.85368400  0.75028200  0.32818300  1
  O  O15  1  0.35368400  0.75028200  0.42181700  1
  O  O16  1  0.14631600  0.74971800  0.92181700  1
  O  O17  1  0.64631600  0.74971800  0.82818300  1
  O  O18  1  0.75028200  0.64631600  0.57818300  1
  O  O19  1  0.75028200  0.14631600  0.67181700  1
  O  O20  1  0.24971800  0.35368400  0.57818300  1
  O  O21  1  0.24971800  0.85368400  0.67181700  1
  O  O22  1  0.35368400  0.25028200  0.82818300  1
  O  O23  1  0.85368400  0.25028200  0.92181700  1
