# generated using pymatgen
data_Ag7Sb9O25
_symmetry_space_group_name_H-M   'P 1'
_cell_length_a   7.33838110
_cell_length_b   7.33838110
_cell_length_c   36.18727185
_cell_angle_alpha   90.00000000
_cell_angle_beta   90.00000000
_cell_angle_gamma   120.00000000
_symmetry_Int_Tables_number   1
_chemical_formula_structural   Ag7Sb9O25
_chemical_formula_sum   'Ag21 Sb27 O75'
_cell_volume   1687.66793155
_cell_formula_units_Z   3
loop_
 _symmetry_equiv_pos_site_id
 _symmetry_equiv_pos_as_xyz
  1  'x, y, z'
loop_
 _atom_site_type_symbol
 _atom_site_label
 _atom_site_symmetry_multiplicity
 _atom_site_fract_x
 _atom_site_fract_y
 _atom_site_fract_z
 _atom_site_occupancy
  Ag  Ag0  1  0.49691233  0.99382467  0.24979367  1
  Ag  Ag1  1  0.00617533  0.50308767  0.24979367  1
  Ag  Ag2  1  0.66666667  0.33333333  0.33318733  1
  Ag  Ag3  1  0.66820333  0.83410167  0.08245167  1
  Ag  Ag4  1  0.16589833  0.83410167  0.08245167  1
  Ag  Ag5  1  0.16589833  0.33179667  0.08245167  1
  Ag  Ag6  1  0.49691233  0.50308767  0.24979367  1
  Ag  Ag7  1  0.16357900  0.32715800  0.58312700  1
  Ag  Ag8  1  0.67284200  0.83642100  0.58312700  1
  Ag  Ag9  1  0.33333333  0.66666667  0.66652067  1
  Ag  Ag10  1  0.33487000  0.16743500  0.41578500  1
  Ag  Ag11  1  0.83256500  0.16743500  0.41578500  1
  Ag  Ag12  1  0.83256500  0.66513000  0.41578500  1
  Ag  Ag13  1  0.16357900  0.83642100  0.58312700  1
  Ag  Ag14  1  0.83024567  0.66049133  0.91646033  1
  Ag  Ag15  1  0.33950867  0.16975433  0.91646033  1
  Ag  Ag16  1  0.00000000  0.00000000  0.99985400  1
  Ag  Ag17  1  0.00153667  0.50076833  0.74911833  1
  Ag  Ag18  1  0.49923167  0.50076833  0.74911833  1
  Ag  Ag19  1  0.49923167  0.99846333  0.74911833  1
  Ag  Ag20  1  0.83024567  0.16975433  0.91646033  1
  Sb  Sb21  1  0.33333333  0.66666667  0.15283967  1
  Sb  Sb22  1  0.16678600  0.83321400  0.33290300  1
  Sb  Sb23  1  0.82969733  0.17030267  0.16697067  1
  Sb  Sb24  1  0.82969733  0.65939467  0.16697067  1
  Sb  Sb25  1  0.34060533  0.17030267  0.16697067  1
  Sb  Sb26  1  0.00000000  0.00000000  0.24953100  1
  Sb  Sb27  1  0.66642800  0.83321400  0.33290300  1
  Sb  Sb28  1  0.16678600  0.33357200  0.33290300  1
  Sb  Sb29  1  0.66666667  0.33333333  0.08316133  1
  Sb  Sb30  1  0.00000000  0.00000000  0.48617300  1
  Sb  Sb31  1  0.83345267  0.16654733  0.66623633  1
  Sb  Sb32  1  0.49636400  0.50363600  0.50030400  1
  Sb  Sb33  1  0.49636400  0.99272800  0.50030400  1
  Sb  Sb34  1  0.00727200  0.50363600  0.50030400  1
  Sb  Sb35  1  0.66666667  0.33333333  0.58286433  1
  Sb  Sb36  1  0.33309467  0.16654733  0.66623633  1
  Sb  Sb37  1  0.83345267  0.66690533  0.66623633  1
  Sb  Sb38  1  0.33333333  0.66666667  0.41649467  1
  Sb  Sb39  1  0.66666667  0.33333333  0.81950633  1
  Sb  Sb40  1  0.50011933  0.49988067  0.99956967  1
  Sb  Sb41  1  0.16303067  0.83696933  0.83363733  1
  Sb  Sb42  1  0.16303067  0.32606133  0.83363733  1
  Sb  Sb43  1  0.67393867  0.83696933  0.83363733  1
  Sb  Sb44  1  0.33333333  0.66666667  0.91619767  1
  Sb  Sb45  1  0.99976133  0.49988067  0.99956967  1
  Sb  Sb46  1  0.50011933  0.00023867  0.99956967  1
  Sb  Sb47  1  0.00000000  0.00000000  0.74982800  1
  O  O48  1  0.27345267  0.13672633  0.22086433  1
  O  O49  1  0.47963400  0.95926800  0.17871500  1
  O  O50  1  0.13326867  0.86673133  0.27869133  1
  O  O51  1  0.60180000  0.80090000  0.01201600  1
  O  O52  1  0.04073200  0.52036600  0.17871500  1
  O  O53  1  0.53322867  0.06645733  0.05368433  1
  O  O54  1  0.86327367  0.13672633  0.22086433  1
  O  O55  1  0.46693567  0.53306433  0.32006533  1
  O  O56  1  0.12622833  0.87377167  0.15180767  1
  O  O57  1  0.86327367  0.72654733  0.22086433  1
  O  O58  1  0.46693567  0.93387133  0.32006533  1
  O  O59  1  0.73346267  0.86673133  0.27869133  1
  O  O60  1  0.93354267  0.46677133  0.05368433  1
  O  O61  1  0.19910000  0.80090000  0.01201600  1
  O  O62  1  0.19910000  0.39820000  0.01201600  1
  O  O63  1  0.79863500  0.20136500  0.11284600  1
  O  O64  1  0.66666667  0.33333333  0.17799533  1
  O  O65  1  0.79863500  0.59727000  0.11284600  1
  O  O66  1  0.47963400  0.52036600  0.17871500  1
  O  O67  1  0.13326867  0.26653733  0.27869133  1
  O  O68  1  0.06612867  0.53306433  0.32006533  1
  O  O69  1  0.74754333  0.87377167  0.15180767  1
  O  O70  1  0.12622833  0.25245667  0.15180767  1
  O  O71  1  0.53322867  0.46677133  0.05368433  1
  O  O72  1  0.40273000  0.20136500  0.11284600  1
  O  O73  1  0.94011933  0.47005967  0.55419767  1
  O  O74  1  0.14630067  0.29260133  0.51204833  1
  O  O75  1  0.79993533  0.20006467  0.61202467  1
  O  O76  1  0.26846667  0.13423333  0.34534933  1
  O  O77  1  0.70739867  0.85369933  0.51204833  1
  O  O78  1  0.19989533  0.39979067  0.38701767  1
  O  O79  1  0.52994033  0.47005967  0.55419767  1
  O  O80  1  0.13360233  0.86639767  0.65339867  1
  O  O81  1  0.79289500  0.20710500  0.48514100  1
  O  O82  1  0.52994033  0.05988067  0.55419767  1
  O  O83  1  0.13360233  0.26720467  0.65339867  1
  O  O84  1  0.40012933  0.20006467  0.61202467  1
  O  O85  1  0.60020933  0.80010467  0.38701767  1
  O  O86  1  0.86576667  0.13423333  0.34534933  1
  O  O87  1  0.86576667  0.73153333  0.34534933  1
  O  O88  1  0.46530167  0.53469833  0.44617933  1
  O  O89  1  0.33333333  0.66666667  0.51132867  1
  O  O90  1  0.46530167  0.93060333  0.44617933  1
  O  O91  1  0.14630067  0.85369933  0.51204833  1
  O  O92  1  0.79993533  0.59987067  0.61202467  1
  O  O93  1  0.73279533  0.86639767  0.65339867  1
  O  O94  1  0.41421000  0.20710500  0.48514100  1
  O  O95  1  0.79289500  0.58579000  0.48514100  1
  O  O96  1  0.19989533  0.80010467  0.38701767  1
  O  O97  1  0.06939667  0.53469833  0.44617933  1
  O  O98  1  0.60678600  0.80339300  0.88753100  1
  O  O99  1  0.81296733  0.62593467  0.84538167  1
  O  O100  1  0.46660200  0.53339800  0.94535800  1
  O  O101  1  0.93513333  0.46756667  0.67868267  1
  O  O102  1  0.37406533  0.18703267  0.84538167  1
  O  O103  1  0.86656200  0.73312400  0.72035100  1
  O  O104  1  0.19660700  0.80339300  0.88753100  1
  O  O105  1  0.80026900  0.19973100  0.98673200  1
  O  O106  1  0.45956167  0.54043833  0.81847433  1
  O  O107  1  0.19660700  0.39321400  0.88753100  1
  O  O108  1  0.80026900  0.60053800  0.98673200  1
  O  O109  1  0.06679600  0.53339800  0.94535800  1
  O  O110  1  0.26687600  0.13343800  0.72035100  1
  O  O111  1  0.53243333  0.46756667  0.67868267  1
  O  O112  1  0.53243333  0.06486667  0.67868267  1
  O  O113  1  0.13196833  0.86803167  0.77951267  1
  O  O114  1  0.00000000  0.00000000  0.84466200  1
  O  O115  1  0.13196833  0.26393667  0.77951267  1
  O  O116  1  0.81296733  0.18703267  0.84538167  1
  O  O117  1  0.46660200  0.93320400  0.94535800  1
  O  O118  1  0.39946200  0.19973100  0.98673200  1
  O  O119  1  0.08087667  0.54043833  0.81847433  1
  O  O120  1  0.45956167  0.91912333  0.81847433  1
  O  O121  1  0.86656200  0.13343800  0.72035100  1
  O  O122  1  0.73606333  0.86803167  0.77951267  1
