# generated using pymatgen
data_Ca3In2O6
_symmetry_space_group_name_H-M   'P 1'
_cell_length_a   3.26227700
_cell_length_b   11.04978100
_cell_length_c   16.75838900
_cell_angle_alpha   90.00000000
_cell_angle_beta   90.00000000
_cell_angle_gamma   90.00000000
_symmetry_Int_Tables_number   1
_chemical_formula_structural   Ca3In2O6
_chemical_formula_sum   'Ca12 In8 O24'
_cell_volume   604.09712942
_cell_formula_units_Z   4
loop_
 _symmetry_equiv_pos_site_id
 _symmetry_equiv_pos_as_xyz
  1  'x, y, z'
loop_
 _atom_site_type_symbol
 _atom_site_label
 _atom_site_symmetry_multiplicity
 _atom_site_fract_x
 _atom_site_fract_y
 _atom_site_fract_z
 _atom_site_occupancy
  Ca  Ca0  1  0.00000000  0.84231700  0.85706600  1
  Ca  Ca1  1  0.50000000  0.86831900  0.64838600  1
  Ca  Ca2  1  0.50000000  0.88523500  0.04677400  1
  Ca  Ca3  1  0.50000000  0.11476500  0.54677400  1
  Ca  Ca4  1  0.50000000  0.13168100  0.14838600  1
  Ca  Ca5  1  0.00000000  0.15768300  0.35706600  1
  Ca  Ca6  1  0.00000000  0.34494800  0.64226500  1
  Ca  Ca7  1  0.50000000  0.36816300  0.85161900  1
  Ca  Ca8  1  0.00000000  0.38170700  0.04587400  1
  Ca  Ca9  1  0.00000000  0.61829300  0.54587400  1
  Ca  Ca10  1  0.50000000  0.63183700  0.35161900  1
  Ca  Ca11  1  0.00000000  0.65505200  0.14226500  1
  In  In12  1  0.00000000  0.88087300  0.45426300  1
  In  In13  1  0.50000000  0.90432700  0.27290200  1
  In  In14  1  0.50000000  0.09567300  0.77290200  1
  In  In15  1  0.00000000  0.11912700  0.95426300  1
  In  In16  1  0.50000000  0.38751400  0.45782600  1
  In  In17  1  0.50000000  0.40187500  0.23237700  1
  In  In18  1  0.50000000  0.59812500  0.73237700  1
  In  In19  1  0.50000000  0.61248600  0.95782600  1
  O  O20  1  0.00000000  0.74394800  0.99671500  1
  O  O21  1  0.50000000  0.75408200  0.49293400  1
  O  O22  1  0.50000000  0.79454000  0.16910800  1
  O  O23  1  0.00000000  0.79483800  0.33488200  1
  O  O24  1  0.00000000  0.96568100  0.74495900  1
  O  O25  1  0.50000000  0.99192400  0.90715900  1
  O  O26  1  0.00000000  0.96832600  0.56888500  1
  O  O27  1  0.00000000  0.03167400  0.06888500  1
  O  O28  1  0.50000000  0.00807600  0.40715900  1
  O  O29  1  0.00000000  0.03431900  0.24495900  1
  O  O30  1  0.00000000  0.20516200  0.83488200  1
  O  O31  1  0.50000000  0.20546000  0.66910800  1
  O  O32  1  0.50000000  0.24591800  0.99293400  1
  O  O33  1  0.00000000  0.25605200  0.49671500  1
  O  O34  1  0.50000000  0.29835000  0.33987700  1
  O  O35  1  0.00000000  0.29432700  0.17337900  1
  O  O36  1  0.00000000  0.46671300  0.75446100  1
  O  O37  1  0.50000000  0.47480300  0.58211300  1
  O  O38  1  0.00000000  0.48274600  0.92616800  1
  O  O39  1  0.00000000  0.51725400  0.42616800  1
  O  O40  1  0.50000000  0.52519700  0.08211300  1
  O  O41  1  0.00000000  0.53328700  0.25446100  1
  O  O42  1  0.00000000  0.70567300  0.67337900  1
  O  O43  1  0.50000000  0.70165000  0.83987700  1
