# generated using pymatgen
data_Ba5Nb2O10
_symmetry_space_group_name_H-M   'P 1'
_cell_length_a   6.15730600
_cell_length_b   10.71332800
_cell_length_c   18.33528400
_cell_angle_alpha   90.00000000
_cell_angle_beta   90.00000000
_cell_angle_gamma   90.00000000
_symmetry_Int_Tables_number   1
_chemical_formula_structural   Ba5Nb2O10
_chemical_formula_sum   'Ba20 Nb8 O40'
_cell_volume   1209.49138706
_cell_formula_units_Z   4
loop_
 _symmetry_equiv_pos_site_id
 _symmetry_equiv_pos_as_xyz
  1  'x, y, z'
loop_
 _atom_site_type_symbol
 _atom_site_label
 _atom_site_symmetry_multiplicity
 _atom_site_fract_x
 _atom_site_fract_y
 _atom_site_fract_z
 _atom_site_occupancy
  Ba  Ba0  1  0.00000000  0.16812500  0.24949900  1
  Ba  Ba1  1  0.00000000  0.19229800  0.01842500  1
  Ba  Ba2  1  0.50000000  0.00376100  0.13507800  1
  Ba  Ba3  1  0.00000000  0.49956100  0.36495400  1
  Ba  Ba4  1  0.00000000  0.49623900  0.63507800  1
  Ba  Ba5  1  0.50000000  0.00043900  0.86495400  1
  Ba  Ba6  1  0.00000000  0.14929400  0.48034200  1
  Ba  Ba7  1  0.50000000  0.30770200  0.51842500  1
  Ba  Ba8  1  0.50000000  0.33187500  0.74949900  1
  Ba  Ba9  1  0.50000000  0.35070600  0.98034200  1
  Ba  Ba10  1  0.50000000  0.66812500  0.24949900  1
  Ba  Ba11  1  0.50000000  0.69229800  0.01842500  1
  Ba  Ba12  1  0.00000000  0.50376100  0.13507800  1
  Ba  Ba13  1  0.50000000  0.99956100  0.36495400  1
  Ba  Ba14  1  0.50000000  0.99623900  0.63507800  1
  Ba  Ba15  1  0.00000000  0.50043900  0.86495400  1
  Ba  Ba16  1  0.50000000  0.64929400  0.48034200  1
  Ba  Ba17  1  0.00000000  0.80770200  0.51842500  1
  Ba  Ba18  1  0.00000000  0.83187500  0.74949900  1
  Ba  Ba19  1  0.00000000  0.85070600  0.98034200  1
  Nb  Nb20  1  0.00000000  0.16332900  0.66927500  1
  Nb  Nb21  1  0.00000000  0.16908900  0.83019400  1
  Nb  Nb22  1  0.50000000  0.33667100  0.16927500  1
  Nb  Nb23  1  0.50000000  0.33091100  0.33019400  1
  Nb  Nb24  1  0.50000000  0.66332900  0.66927500  1
  Nb  Nb25  1  0.50000000  0.66908900  0.83019400  1
  Nb  Nb26  1  0.00000000  0.83667100  0.16927500  1
  Nb  Nb27  1  0.00000000  0.83091100  0.33019400  1
  O  O28  1  0.00000000  0.43712400  0.00026700  1
  O  O29  1  0.77034500  0.25419100  0.61987600  1
  O  O30  1  0.76002350  0.23600750  0.88532800  1
  O  O31  1  0.00000000  0.31275000  0.75486500  1
  O  O32  1  0.78011400  0.09295000  0.74755600  1
  O  O33  1  0.22965500  0.25419100  0.61987600  1
  O  O34  1  0.23997650  0.23600750  0.88532800  1
  O  O35  1  0.21988600  0.09295000  0.74755600  1
  O  O36  1  0.00000000  0.01515000  0.61054400  1
  O  O37  1  0.00000000  0.00649400  0.87875200  1
  O  O38  1  0.50000000  0.49350600  0.37875200  1
  O  O39  1  0.50000000  0.48485000  0.11054400  1
  O  O40  1  0.28011400  0.40705000  0.24755600  1
  O  O41  1  0.27034500  0.24580900  0.11987600  1
  O  O42  1  0.71988600  0.40705000  0.24755600  1
  O  O43  1  0.26002350  0.26399250  0.38532800  1
  O  O44  1  0.50000000  0.18725000  0.25486500  1
  O  O45  1  0.72965500  0.24580900  0.11987600  1
  O  O46  1  0.73997650  0.26399250  0.38532800  1
  O  O47  1  0.50000000  0.06287600  0.50026700  1
  O  O48  1  0.50000000  0.93712400  0.00026700  1
  O  O49  1  0.27034500  0.75419100  0.61987600  1
  O  O50  1  0.26002350  0.73600750  0.88532800  1
  O  O51  1  0.50000000  0.81275000  0.75486500  1
  O  O52  1  0.28011400  0.59295000  0.74755600  1
  O  O53  1  0.72965500  0.75419100  0.61987600  1
  O  O54  1  0.73997650  0.73600750  0.88532800  1
  O  O55  1  0.71988600  0.59295000  0.74755600  1
  O  O56  1  0.50000000  0.51515000  0.61054400  1
  O  O57  1  0.50000000  0.50649400  0.87875200  1
  O  O58  1  0.00000000  0.99350600  0.37875200  1
  O  O59  1  0.00000000  0.98485000  0.11054400  1
  O  O60  1  0.78011400  0.90705000  0.24755600  1
  O  O61  1  0.77034500  0.74580900  0.11987600  1
  O  O62  1  0.21988600  0.90705000  0.24755600  1
  O  O63  1  0.76002350  0.76399250  0.38532800  1
  O  O64  1  0.00000000  0.68725000  0.25486500  1
  O  O65  1  0.22965500  0.74580900  0.11987600  1
  O  O66  1  0.23997650  0.76399250  0.38532800  1
  O  O67  1  0.00000000  0.56287600  0.50026700  1
