# generated using pymatgen
data_LiSbO3
_symmetry_space_group_name_H-M   'P 1'
_cell_length_a   5.18106600
_cell_length_b   9.49288400
_cell_length_c   5.21453137
_cell_angle_alpha   90.00000000
_cell_angle_beta   105.50716202
_cell_angle_gamma   90.00000000
_symmetry_Int_Tables_number   1
_chemical_formula_structural   LiSbO3
_chemical_formula_sum   'Li4 Sb4 O12'
_cell_volume   247.13146344
_cell_formula_units_Z   4
loop_
 _symmetry_equiv_pos_site_id
 _symmetry_equiv_pos_as_xyz
  1  'x, y, z'
loop_
 _atom_site_type_symbol
 _atom_site_label
 _atom_site_symmetry_multiplicity
 _atom_site_fract_x
 _atom_site_fract_y
 _atom_site_fract_z
 _atom_site_occupancy
  Li  Li0  1  0.00000000  0.34751300  0.00000000  1
  Li  Li1  1  0.50000000  0.15248700  0.00000000  1
  Li  Li2  1  0.50000000  0.84751300  0.00000000  1
  Li  Li3  1  0.00000000  0.65248700  0.00000000  1
  Sb  Sb4  1  0.00000000  0.16193600  0.50000000  1
  Sb  Sb5  1  0.50000000  0.33806400  0.50000000  1
  Sb  Sb6  1  0.50000000  0.66193600  0.50000000  1
  Sb  Sb7  1  0.00000000  0.83806400  0.50000000  1
  O  O8  1  0.20480500  0.00000000  0.71357800  1
  O  O9  1  0.79519500  0.00000000  0.28642200  1
  O  O10  1  0.25894000  0.30025000  0.73355600  1
  O  O11  1  0.74106000  0.30025000  0.26644400  1
  O  O12  1  0.24106000  0.19975000  0.26644400  1
  O  O13  1  0.75894000  0.19975000  0.73355600  1
  O  O14  1  0.70480500  0.50000000  0.71357800  1
  O  O15  1  0.29519500  0.50000000  0.28642200  1
  O  O16  1  0.75894000  0.80025000  0.73355600  1
  O  O17  1  0.24106000  0.80025000  0.26644400  1
  O  O18  1  0.74106000  0.69975000  0.26644400  1
  O  O19  1  0.25894000  0.69975000  0.73355600  1
