# generated using pymatgen
data_LiTi3Sb(PO4)6
_symmetry_space_group_name_H-M   'P 1'
_cell_length_a   8.62987814
_cell_length_b   8.62987814
_cell_length_c   21.87184593
_cell_angle_alpha   90.00000000
_cell_angle_beta   90.00000000
_cell_angle_gamma   120.00000000
_symmetry_Int_Tables_number   1
_chemical_formula_structural   LiTi3Sb(PO4)6
_chemical_formula_sum   'Li3 Ti9 Sb3 P18 O72'
_cell_volume   1410.66988765
_cell_formula_units_Z   3
loop_
 _symmetry_equiv_pos_site_id
 _symmetry_equiv_pos_as_xyz
  1  'x, y, z'
loop_
 _atom_site_type_symbol
 _atom_site_label
 _atom_site_symmetry_multiplicity
 _atom_site_fract_x
 _atom_site_fract_y
 _atom_site_fract_z
 _atom_site_occupancy
  Li  Li0  1  0.00000000  0.00000000  0.00361000  1
  Li  Li1  1  0.66666667  0.33333333  0.33694333  1
  Li  Li2  1  0.33333333  0.66666667  0.67027667  1
  Ti  Ti3  1  0.00000000  0.00000000  0.14433100  1
  Ti  Ti4  1  0.33333333  0.66666667  0.02646667  1
  Ti  Ti5  1  0.33333333  0.66666667  0.30595067  1
  Ti  Ti6  1  0.66666667  0.33333333  0.47766433  1
  Ti  Ti7  1  0.00000000  0.00000000  0.35980000  1
  Ti  Ti8  1  0.00000000  0.00000000  0.63928400  1
  Ti  Ti9  1  0.33333333  0.66666667  0.81099767  1
  Ti  Ti10  1  0.66666667  0.33333333  0.69313333  1
  Ti  Ti11  1  0.66666667  0.33333333  0.97261733  1
  Sb  Sb12  1  0.66666667  0.33333333  0.18798933  1
  Sb  Sb13  1  0.33333333  0.66666667  0.52132267  1
  Sb  Sb14  1  0.00000000  0.00000000  0.85465600  1
  P  P15  1  0.37790233  0.04662467  0.08105167  1
  P  P16  1  0.66872233  0.62209767  0.08105167  1
  P  P17  1  0.95337533  0.33127767  0.08105167  1
  P  P18  1  0.71603500  0.00121500  0.25085000  1
  P  P19  1  0.99878500  0.71482000  0.25085000  1
  P  P20  1  0.28518000  0.28396500  0.25085000  1
  P  P21  1  0.04456900  0.37995800  0.41438500  1
  P  P22  1  0.33538900  0.95543100  0.41438500  1
  P  P23  1  0.62004200  0.66461100  0.41438500  1
  P  P24  1  0.38270167  0.33454833  0.58418333  1
  P  P25  1  0.66545167  0.04815333  0.58418333  1
  P  P26  1  0.95184667  0.61729833  0.58418333  1
  P  P27  1  0.71123567  0.71329133  0.74771833  1
  P  P28  1  0.00205567  0.28876433  0.74771833  1
  P  P29  1  0.28670867  0.99794433  0.74771833  1
  P  P30  1  0.04936833  0.66788167  0.91751667  1
  P  P31  1  0.33211833  0.38148667  0.91751667  1
  P  P32  1  0.61851333  0.95063167  0.91751667  1
  O  O33  1  0.19900633  0.16915267  0.30705567  1
  O  O34  1  0.83084733  0.02985367  0.30705567  1
  O  O35  1  0.19037000  0.02726200  0.08671000  1
  O  O36  1  0.97014633  0.80099367  0.30705567  1
  O  O37  1  0.35971433  0.86173667  0.07546167  1
  O  O38  1  0.48741067  0.12366133  0.14189833  1
  O  O39  1  0.83689200  0.80963000  0.08671000  1
  O  O40  1  0.50202233  0.64028567  0.07546167  1
  O  O41  1  0.13826333  0.49797767  0.07546167  1
  O  O42  1  0.80423567  0.98217733  0.19220433  1
  O  O43  1  0.69480400  0.17333400  0.24802500  1
  O  O44  1  0.01782267  0.82205833  0.19220433  1
  O  O45  1  0.63625067  0.51258933  0.14189833  1
  O  O46  1  0.97273800  0.16310800  0.08671000  1
  O  O47  1  0.87633867  0.36374933  0.14189833  1
  O  O48  1  0.52909433  0.83673867  0.25651567  1
  O  O49  1  0.16326133  0.69235567  0.25651567  1
  O  O50  1  0.82666600  0.52147000  0.24802500  1
  O  O51  1  0.17794167  0.19576433  0.19220433  1
  O  O52  1  0.30764433  0.47090567  0.25651567  1
  O  O53  1  0.69475233  0.52861167  0.02633467  1
  O  O54  1  0.47853000  0.30519600  0.24802500  1
  O  O55  1  0.83385933  0.30524767  0.02633467  1
  O  O56  1  0.47138833  0.16614067  0.02633467  1
  O  O57  1  0.86567300  0.50248600  0.64038900  1
  O  O58  1  0.49751400  0.36318700  0.64038900  1
  O  O59  1  0.85703667  0.36059533  0.42004333  1
  O  O60  1  0.63681300  0.13432700  0.64038900  1
  O  O61  1  0.02638100  0.19507000  0.40879500  1
  O  O62  1  0.15407733  0.45699467  0.47523167  1
  O  O63  1  0.50355867  0.14296333  0.42004333  1
  O  O64  1  0.16868900  0.97361900  0.40879500  1
  O  O65  1  0.80493000  0.83131100  0.40879500  1
  O  O66  1  0.47090233  0.31551067  0.52553767  1
  O  O67  1  0.36147067  0.50666733  0.58135833  1
  O  O68  1  0.68448933  0.15539167  0.52553767  1
  O  O69  1  0.30291733  0.84592267  0.47523167  1
  O  O70  1  0.63940467  0.49644133  0.42004333  1
  O  O71  1  0.54300533  0.69708267  0.47523167  1
  O  O72  1  0.19576100  0.17007200  0.58984900  1
  O  O73  1  0.82992800  0.02568900  0.58984900  1
  O  O74  1  0.49333267  0.85480333  0.58135833  1
  O  O75  1  0.84460833  0.52909767  0.52553767  1
  O  O76  1  0.97431100  0.80423900  0.58984900  1
  O  O77  1  0.36141900  0.86194500  0.35966800  1
  O  O78  1  0.14519667  0.63852933  0.58135833  1
  O  O79  1  0.50052600  0.63858100  0.35966800  1
  O  O80  1  0.13805500  0.49947400  0.35966800  1
  O  O81  1  0.53233967  0.83581933  0.97372233  1
  O  O82  1  0.16418067  0.69652033  0.97372233  1
  O  O83  1  0.52370333  0.69392867  0.75337667  1
  O  O84  1  0.30347967  0.46766033  0.97372233  1
  O  O85  1  0.69304767  0.52840333  0.74212833  1
  O  O86  1  0.82074400  0.79032800  0.80856500  1
  O  O87  1  0.17022533  0.47629667  0.75337667  1
  O  O88  1  0.83535567  0.30695233  0.74212833  1
  O  O89  1  0.47159667  0.16464433  0.74212833  1
  O  O90  1  0.13756900  0.64884400  0.85887100  1
  O  O91  1  0.02813733  0.84000067  0.91469167  1
  O  O92  1  0.35115600  0.48872500  0.85887100  1
  O  O93  1  0.96958400  0.17925600  0.80856500  1
  O  O94  1  0.30607133  0.82977467  0.75337667  1
  O  O95  1  0.20967200  0.03041600  0.80856500  1
  O  O96  1  0.86242767  0.50340533  0.92318233  1
  O  O97  1  0.49659467  0.35902233  0.92318233  1
  O  O98  1  0.15999933  0.18813667  0.91469167  1
  O  O99  1  0.51127500  0.86243100  0.85887100  1
  O  O100  1  0.64097767  0.13757233  0.92318233  1
  O  O101  1  0.02808567  0.19527833  0.69300133  1
  O  O102  1  0.81186333  0.97186267  0.91469167  1
  O  O103  1  0.16719267  0.97191433  0.69300133  1
  O  O104  1  0.80472167  0.83280733  0.69300133  1
