# generated using pymatgen
data_Li2Mn3F8
_symmetry_space_group_name_H-M   'P 1'
_cell_length_a   11.12375600
_cell_length_b   11.12375600
_cell_length_c   10.27091000
_cell_angle_alpha   90.00000000
_cell_angle_beta   90.00000000
_cell_angle_gamma   90.00000000
_symmetry_Int_Tables_number   1
_chemical_formula_structural   Li2Mn3F8
_chemical_formula_sum   'Li16 Mn24 F64'
_cell_volume   1270.90132285
_cell_formula_units_Z   8
loop_
 _symmetry_equiv_pos_site_id
 _symmetry_equiv_pos_as_xyz
  1  'x, y, z'
loop_
 _atom_site_type_symbol
 _atom_site_label
 _atom_site_symmetry_multiplicity
 _atom_site_fract_x
 _atom_site_fract_y
 _atom_site_fract_z
 _atom_site_occupancy
  Li  Li0  1  0.59350400  0.19396200  0.49556900  1
  Li  Li1  1  0.59350400  0.69396200  0.25443100  1
  Li  Li2  1  0.69396200  0.90649600  0.00443100  1
  Li  Li3  1  0.69396200  0.40649600  0.74556900  1
  Li  Li4  1  0.80603800  0.59350400  0.50443100  1
  Li  Li5  1  0.80603800  0.09350400  0.24556900  1
  Li  Li6  1  0.90649600  0.80603800  0.75443100  1
  Li  Li7  1  0.90649600  0.30603800  0.99556900  1
  Li  Li8  1  0.09350400  0.69396200  0.99556900  1
  Li  Li9  1  0.09350400  0.19396200  0.75443100  1
  Li  Li10  1  0.19396200  0.40649600  0.50443100  1
  Li  Li11  1  0.19396200  0.90649600  0.24556900  1
  Li  Li12  1  0.30603800  0.09350400  0.00443100  1
  Li  Li13  1  0.30603800  0.59350400  0.74556900  1
  Li  Li14  1  0.40649600  0.30603800  0.25443100  1
  Li  Li15  1  0.40649600  0.80603800  0.49556900  1
  Mn  Mn16  1  0.80404650  0.13280850  0.72839050  1
  Mn  Mn17  1  0.50000000  0.50000000  0.50000000  1
  Mn  Mn18  1  0.00000000  0.00000000  0.50000000  1
  Mn  Mn19  1  0.13280850  0.19595350  0.27160950  1
  Mn  Mn20  1  0.63280850  0.19595350  0.97839050  1
  Mn  Mn21  1  0.69595350  0.36719150  0.22839050  1
  Mn  Mn22  1  0.80404650  0.63280850  0.02160950  1
  Mn  Mn23  1  0.86719150  0.30404650  0.47839050  1
  Mn  Mn24  1  0.36719150  0.30404650  0.77160950  1
  Mn  Mn25  1  0.50000000  0.00000000  0.25000000  1
  Mn  Mn26  1  0.50000000  0.00000000  0.75000000  1
  Mn  Mn27  1  0.69595350  0.86719150  0.52160950  1
  Mn  Mn28  1  0.30404650  0.63280850  0.22839050  1
  Mn  Mn29  1  0.00000000  0.00000000  0.00000000  1
  Mn  Mn30  1  0.50000000  0.50000000  0.00000000  1
  Mn  Mn31  1  0.63280850  0.69595350  0.77160950  1
  Mn  Mn32  1  0.13280850  0.69595350  0.47839050  1
  Mn  Mn33  1  0.19595350  0.86719150  0.72839050  1
  Mn  Mn34  1  0.30404650  0.13280850  0.52160950  1
  Mn  Mn35  1  0.36719150  0.80404650  0.97839050  1
  Mn  Mn36  1  0.86719150  0.80404650  0.27160950  1
  Mn  Mn37  1  0.00000000  0.50000000  0.75000000  1
  Mn  Mn38  1  0.00000000  0.50000000  0.25000000  1
  Mn  Mn39  1  0.19595350  0.36719150  0.02160950  1
  F  F40  1  0.69596800  0.04572800  0.86685000  1
  F  F41  1  0.36728350  0.45955150  0.62641550  1
  F  F42  1  0.86728350  0.45955150  0.62358450  1
  F  F43  1  0.86546350  0.96469850  0.64561850  1
  F  F44  1  0.95427200  0.19596800  0.61685000  1
  F  F45  1  0.45955150  0.63271650  0.37358450  1
  F  F46  1  0.54044850  0.36728350  0.37358450  1
  F  F47  1  0.03530150  0.36546350  0.39561850  1
  F  F48  1  0.53530150  0.36546350  0.85438150  1
  F  F49  1  0.04572800  0.80403200  0.61685000  1
  F  F50  1  0.63453650  0.53530150  0.14561850  1
  F  F51  1  0.71307550  0.77028850  0.13875750  1
  F  F52  1  0.71307550  0.27028850  0.61124250  1
  F  F53  1  0.19596800  0.04572800  0.38315000  1
  F  F54  1  0.72971150  0.21307550  0.36124250  1
  F  F55  1  0.72971150  0.71307550  0.38875750  1
  F  F56  1  0.77028850  0.28692450  0.86124250  1
  F  F57  1  0.77028850  0.78692450  0.88875750  1
  F  F58  1  0.80403200  0.45427200  0.36685000  1
  F  F59  1  0.78692450  0.22971150  0.11124250  1
  F  F60  1  0.78692450  0.72971150  0.63875750  1
  F  F61  1  0.86546350  0.46469850  0.10438150  1
  F  F62  1  0.45427200  0.19596800  0.63315000  1
  F  F63  1  0.46469850  0.13453650  0.89561850  1
  F  F64  1  0.96469850  0.13453650  0.35438150  1
  F  F65  1  0.45955150  0.13271650  0.37641550  1
  F  F66  1  0.54044850  0.86728350  0.37641550  1
  F  F67  1  0.04572800  0.30403200  0.13315000  1
  F  F68  1  0.63453650  0.03530150  0.60438150  1
  F  F69  1  0.13271650  0.54044850  0.62358450  1
  F  F70  1  0.63271650  0.54044850  0.62641550  1
  F  F71  1  0.80403200  0.95427200  0.38315000  1
  F  F72  1  0.19596800  0.54572800  0.36685000  1
  F  F73  1  0.86728350  0.95955150  0.12641550  1
  F  F74  1  0.36728350  0.95955150  0.12358450  1
  F  F75  1  0.36546350  0.46469850  0.14561850  1
  F  F76  1  0.45427200  0.69596800  0.11685000  1
  F  F77  1  0.95955150  0.13271650  0.87358450  1
  F  F78  1  0.04044850  0.86728350  0.87358450  1
  F  F79  1  0.53530150  0.86546350  0.89561850  1
  F  F80  1  0.03530150  0.86546350  0.35438150  1
  F  F81  1  0.54572800  0.30403200  0.11685000  1
  F  F82  1  0.13453650  0.03530150  0.64561850  1
  F  F83  1  0.21307550  0.27028850  0.63875750  1
  F  F84  1  0.21307550  0.77028850  0.11124250  1
  F  F85  1  0.69596800  0.54572800  0.88315000  1
  F  F86  1  0.22971150  0.71307550  0.86124250  1
  F  F87  1  0.22971150  0.21307550  0.88875750  1
  F  F88  1  0.27028850  0.78692450  0.36124250  1
  F  F89  1  0.27028850  0.28692450  0.38875750  1
  F  F90  1  0.30403200  0.95427200  0.86685000  1
  F  F91  1  0.28692450  0.72971150  0.61124250  1
  F  F92  1  0.28692450  0.22971150  0.13875750  1
  F  F93  1  0.36546350  0.96469850  0.60438150  1
  F  F94  1  0.95427200  0.69596800  0.13315000  1
  F  F95  1  0.96469850  0.63453650  0.39561850  1
  F  F96  1  0.46469850  0.63453650  0.85438150  1
  F  F97  1  0.95955150  0.63271650  0.87641550  1
  F  F98  1  0.04044850  0.36728350  0.87641550  1
  F  F99  1  0.54572800  0.80403200  0.63315000  1
  F  F100  1  0.13453650  0.53530150  0.10438150  1
  F  F101  1  0.63271650  0.04044850  0.12358450  1
  F  F102  1  0.13271650  0.04044850  0.12641550  1
  F  F103  1  0.30403200  0.45427200  0.88315000  1
