# generated using pymatgen
data_Ti2N2O
_symmetry_space_group_name_H-M   'P 1'
_cell_length_a   8.20836800
_cell_length_b   8.22448788
_cell_length_c   8.22417966
_cell_angle_alpha   109.43672948
_cell_angle_beta   109.39175123
_cell_angle_gamma   109.46567183
_symmetry_Int_Tables_number   1
_chemical_formula_structural   Ti2N2O
_chemical_formula_sum   'Ti16 N16 O8'
_cell_volume   428.03091561
_cell_formula_units_Z   8
loop_
 _symmetry_equiv_pos_site_id
 _symmetry_equiv_pos_as_xyz
  1  'x, y, z'
loop_
 _atom_site_type_symbol
 _atom_site_label
 _atom_site_symmetry_multiplicity
 _atom_site_fract_x
 _atom_site_fract_y
 _atom_site_fract_z
 _atom_site_occupancy
  Ti  Ti0  1  0.20480700  0.24707200  0.95356400  1
  Ti  Ti1  1  0.99881300  0.48740100  0.99095400  1
  Ti  Ti2  1  0.23783200  0.53678400  0.78466500  1
  Ti  Ti3  1  0.75577400  0.96250000  0.70730900  1
  Ti  Ti4  1  0.03869300  0.28876000  0.25417300  1
  Ti  Ti5  1  0.53167900  0.78691500  0.24671200  1
  Ti  Ti6  1  0.99940700  0.98805400  0.48537000  1
  Ti  Ti7  1  0.51038100  0.02071800  0.01534700  1
  Ti  Ti8  1  0.30689500  0.75530800  0.54432700  1
  Ti  Ti9  1  0.49526800  0.49680000  0.49896900  1
  Ti  Ti10  1  0.70809700  0.26012500  0.46115300  1
  Ti  Ti11  1  0.46610100  0.20399700  0.75444500  1
  Ti  Ti12  1  0.95359000  0.70861100  0.74161600  1
  Ti  Ti13  1  0.26088200  0.04145600  0.30581100  1
  Ti  Ti14  1  0.74454100  0.45814300  0.20259000  1
  Ti  Ti15  1  0.78817100  0.74614800  0.04684600  1
  N  N16  1  0.49262200  0.72734600  0.45169000  1
  N  N17  1  0.27485500  0.53996600  0.04668900  1
  N  N18  1  0.44801200  0.98617000  0.22445800  1
  N  N19  1  0.26426500  0.48924000  0.54033700  1
  N  N20  1  0.00922600  0.95890500  0.73573700  1
  N  N21  1  0.45751200  0.23422200  0.01079200  1
  N  N22  1  0.22390800  0.94615400  0.48899500  1
  N  N23  1  0.96167100  0.44870400  0.72453200  1
  N  N24  1  0.77485700  0.22712900  0.23310800  1
  N  N25  1  0.99454300  0.04122300  0.26682300  1
  N  N26  1  0.73862000  0.51539000  0.46465700  1
  N  N27  1  0.54921900  0.00943100  0.77639200  1
  N  N28  1  0.76444600  0.72844400  0.27579100  1
  N  N29  1  0.94923600  0.22575800  0.96085900  1
  N  N30  1  0.50694500  0.27646100  0.54827300  1
  N  N31  1  0.72643000  0.46326800  0.95236300  1
  O  O32  1  0.23179800  0.27401900  0.72558800  1
  O  O33  1  0.04207500  0.77448300  0.03392000  1
  O  O34  1  0.22588000  0.77174700  0.76895400  1
  O  O35  1  0.77620600  0.05284400  0.51431500  1
  O  O36  1  0.27836500  0.27219900  0.22578300  1
  O  O37  1  0.54204500  0.76410500  0.98680100  1
  O  O38  1  0.04310500  0.55154700  0.27489800  1
  O  O39  1  0.72322800  0.73245300  0.77439100  1
