# generated using pymatgen
data_Na3BiAsCO7
_symmetry_space_group_name_H-M   'P 1'
_cell_length_a   5.16651000
_cell_length_b   7.41198200
_cell_length_c   9.84958232
_cell_angle_alpha   90.00000000
_cell_angle_beta   90.78665060
_cell_angle_gamma   90.00000000
_symmetry_Int_Tables_number   1
_chemical_formula_structural   Na3BiAsCO7
_chemical_formula_sum   'Na6 Bi2 As2 C2 O14'
_cell_volume   377.14513553
_cell_formula_units_Z   2
loop_
 _symmetry_equiv_pos_site_id
 _symmetry_equiv_pos_as_xyz
  1  'x, y, z'
loop_
 _atom_site_type_symbol
 _atom_site_label
 _atom_site_symmetry_multiplicity
 _atom_site_fract_x
 _atom_site_fract_y
 _atom_site_fract_z
 _atom_site_occupancy
  Na  Na0  1  0.23485800  0.25000000  0.08043700  1
  Na  Na1  1  0.74604200  0.01657100  0.24731400  1
  Na  Na2  1  0.74604200  0.48342900  0.24731400  1
  Na  Na3  1  0.25395800  0.51657100  0.75268600  1
  Na  Na4  1  0.25395800  0.98342900  0.75268600  1
  Na  Na5  1  0.76514200  0.75000000  0.91956300  1
  Bi  Bi6  1  0.23375200  0.75000000  0.34612900  1
  Bi  Bi7  1  0.76624800  0.25000000  0.65387100  1
  As  As8  1  0.27669100  0.25000000  0.40219100  1
  As  As9  1  0.72330900  0.75000000  0.59780900  1
  C  C10  1  0.27534000  0.75000000  0.04762300  1
  C  C11  1  0.72466000  0.25000000  0.95237700  1
  O  O12  1  0.72307200  0.25000000  0.08403700  1
  O  O13  1  0.05436700  0.75000000  0.11154700  1
  O  O14  1  0.49000900  0.75000000  0.11751900  1
  O  O15  1  0.21735500  0.06180600  0.28766500  1
  O  O16  1  0.21735500  0.43819400  0.28766500  1
  O  O17  1  0.62092800  0.25000000  0.41467400  1
  O  O18  1  0.81129600  0.75000000  0.38911100  1
  O  O19  1  0.18870400  0.25000000  0.61088900  1
  O  O20  1  0.37907200  0.75000000  0.58532600  1
  O  O21  1  0.78264500  0.56180600  0.71233500  1
  O  O22  1  0.78264500  0.93819400  0.71233500  1
  O  O23  1  0.50999100  0.25000000  0.88248100  1
  O  O24  1  0.94563300  0.25000000  0.88845300  1
  O  O25  1  0.27692800  0.75000000  0.91596300  1
