# generated using pymatgen
data_CsVH12(C2O7)2
_symmetry_space_group_name_H-M   'P 1'
_cell_length_a   9.28623567
_cell_length_b   7.53429270
_cell_length_c   10.33815775
_cell_angle_alpha   90.00000000
_cell_angle_beta   101.19384121
_cell_angle_gamma   90.00000000
_symmetry_Int_Tables_number   1
_chemical_formula_structural   CsVH12(C2O7)2
_chemical_formula_sum   'Cs2 V2 H24 C8 O28'
_cell_volume   709.55120055
_cell_formula_units_Z   2
loop_
 _symmetry_equiv_pos_site_id
 _symmetry_equiv_pos_as_xyz
  1  'x, y, z'
loop_
 _atom_site_type_symbol
 _atom_site_label
 _atom_site_symmetry_multiplicity
 _atom_site_fract_x
 _atom_site_fract_y
 _atom_site_fract_z
 _atom_site_occupancy
  Cs  Cs0  1  0.50000000  0.50515800  0.50000000  1
  Cs  Cs1  1  0.00000000  0.00515800  0.50000000  1
  V  V2  1  0.50000000  0.99861850  0.00000000  1
  V  V3  1  0.00000000  0.49861850  0.00000000  1
  H  H4  1  0.29526550  0.99738950  0.14829900  1
  H  H5  1  0.70473450  0.99738950  0.85170100  1
  H  H6  1  0.20986500  0.99761800  0.98369900  1
  H  H7  1  0.79013500  0.99761800  0.01630100  1
  H  H8  1  0.26875150  0.89311050  0.33428800  1
  H  H9  1  0.26925050  0.10549750  0.33244700  1
  H  H10  1  0.73074950  0.10549750  0.66755300  1
  H  H11  1  0.73124850  0.89311050  0.66571200  1
  H  H12  1  0.50904200  0.39564600  0.84887100  1
  H  H13  1  0.51097000  0.60726600  0.84816100  1
  H  H14  1  0.48903000  0.60726600  0.15183900  1
  H  H15  1  0.49095800  0.39564600  0.15112900  1
  H  H16  1  0.79526550  0.49738950  0.14829900  1
  H  H17  1  0.20473450  0.49738950  0.85170100  1
  H  H18  1  0.70986500  0.49761800  0.98369900  1
  H  H19  1  0.29013500  0.49761800  0.01630100  1
  H  H20  1  0.76875150  0.39311050  0.33428800  1
  H  H21  1  0.76925050  0.60549750  0.33244700  1
  H  H22  1  0.23074950  0.60549750  0.66755300  1
  H  H23  1  0.23124850  0.39311050  0.66571200  1
  H  H24  1  0.00904200  0.89564600  0.84887100  1
  H  H25  1  0.01097000  0.10726600  0.84816100  1
  H  H26  1  0.98903000  0.10726600  0.15183900  1
  H  H27  1  0.99095800  0.89564600  0.15112900  1
  C  C28  1  0.36698100  0.89607100  0.73845600  1
  C  C29  1  0.36895700  0.10257900  0.73866200  1
  C  C30  1  0.63104300  0.10257900  0.26133800  1
  C  C31  1  0.63301900  0.89607100  0.26154400  1
  C  C32  1  0.86698100  0.39607100  0.73845600  1
  C  C33  1  0.86895700  0.60257900  0.73866200  1
  C  C34  1  0.13104300  0.60257900  0.26133800  1
  C  C35  1  0.13301900  0.39607100  0.26154400  1
  O  O36  1  0.30459400  0.00117800  0.05046200  1
  O  O37  1  0.69540600  0.00117800  0.94953800  1
  O  O38  1  0.42881250  0.82418350  0.84951700  1
  O  O39  1  0.43073200  0.17431500  0.84984700  1
  O  O40  1  0.56926800  0.17431500  0.15015300  1
  O  O41  1  0.57118750  0.82418350  0.15048300  1
  O  O42  1  0.30964000  0.81290500  0.63755000  1
  O  O43  1  0.31162700  0.18529800  0.63746800  1
  O  O44  1  0.68837300  0.18529800  0.36253200  1
  O  O45  1  0.69036000  0.81290500  0.36245000  1
  O  O46  1  0.31327600  0.99842500  0.29968100  1
  O  O47  1  0.68672400  0.99842500  0.70031900  1
  O  O48  1  0.07355650  0.00049150  0.85009600  1
  O  O49  1  0.92644350  0.00049150  0.14990400  1
  O  O50  1  0.80459400  0.50117800  0.05046200  1
  O  O51  1  0.19540600  0.50117800  0.94953800  1
  O  O52  1  0.92881250  0.32418350  0.84951700  1
  O  O53  1  0.93073200  0.67431500  0.84984700  1
  O  O54  1  0.06926800  0.67431500  0.15015300  1
  O  O55  1  0.07118750  0.32418350  0.15048300  1
  O  O56  1  0.80964000  0.31290500  0.63755000  1
  O  O57  1  0.81162700  0.68529800  0.63746800  1
  O  O58  1  0.18837300  0.68529800  0.36253200  1
  O  O59  1  0.19036000  0.31290500  0.36245000  1
  O  O60  1  0.81327600  0.49842500  0.29968100  1
  O  O61  1  0.18672400  0.49842500  0.70031900  1
  O  O62  1  0.57355650  0.50049150  0.85009600  1
  O  O63  1  0.42644350  0.50049150  0.14990400  1
