# generated using pymatgen
data_NaVPCO7
_symmetry_space_group_name_H-M   'P 1'
_cell_length_a   5.33459714
_cell_length_b   6.30323400
_cell_length_c   9.31377853
_cell_angle_alpha   90.00000000
_cell_angle_beta   92.48706831
_cell_angle_gamma   90.00000000
_symmetry_Int_Tables_number   1
_chemical_formula_structural   NaVPCO7
_chemical_formula_sum   'Na2 V2 P2 C2 O14'
_cell_volume   312.88279647
_cell_formula_units_Z   2
loop_
 _symmetry_equiv_pos_site_id
 _symmetry_equiv_pos_as_xyz
  1  'x, y, z'
loop_
 _atom_site_type_symbol
 _atom_site_label
 _atom_site_symmetry_multiplicity
 _atom_site_fract_x
 _atom_site_fract_y
 _atom_site_fract_z
 _atom_site_occupancy
  Na  Na0  1  0.26975525  0.53068150  0.72355125  1
  Na  Na1  1  0.73024475  0.03068150  0.27644875  1
  V  V2  1  0.71323025  0.22824550  0.83845325  1
  V  V3  1  0.28676975  0.72824550  0.16154675  1
  P  P4  1  0.77954725  0.73642250  0.94279325  1
  P  P5  1  0.22045275  0.23642250  0.05720675  1
  C  C6  1  0.78276525  0.26042300  0.58577025  1
  C  C7  1  0.21723475  0.76042300  0.41422975  1
  O  O8  1  0.18081125  0.75814100  0.54318225  1
  O  O9  1  0.81918875  0.25814100  0.45681775  1
  O  O10  1  0.55782975  0.25641400  0.64549775  1
  O  O11  1  0.44217025  0.75641400  0.35450225  1
  O  O12  1  0.96220575  0.26468150  0.69180175  1
  O  O13  1  0.03779425  0.76468150  0.30819825  1
  O  O14  1  0.71725925  0.93618850  0.84577425  1
  O  O15  1  0.28274075  0.43618850  0.15422575  1
  O  O16  1  0.70252125  0.54635150  0.84676225  1
  O  O17  1  0.29747875  0.04635150  0.15323775  1
  O  O18  1  0.37235625  0.24930350  0.92142325  1
  O  O19  1  0.62764375  0.74930350  0.07857675  1
  O  O20  1  0.06466075  0.73544850  0.97955975  1
  O  O21  1  0.93533925  0.23544850  0.02044025  1
