# generated using pymatgen
data_Ta9PO25
_symmetry_space_group_name_H-M   'P 1'
_cell_length_a   15.73726200
_cell_length_b   15.73726200
_cell_length_c   3.87951200
_cell_angle_alpha   90.00000000
_cell_angle_beta   90.00000000
_cell_angle_gamma   90.00000000
_symmetry_Int_Tables_number   1
_chemical_formula_structural   Ta9PO25
_chemical_formula_sum   'Ta18 P2 O50'
_cell_volume   960.80543243
_cell_formula_units_Z   2
loop_
 _symmetry_equiv_pos_site_id
 _symmetry_equiv_pos_as_xyz
  1  'x, y, z'
loop_
 _atom_site_type_symbol
 _atom_site_label
 _atom_site_symmetry_multiplicity
 _atom_site_fract_x
 _atom_site_fract_y
 _atom_site_fract_z
 _atom_site_occupancy
  Ta  Ta0  1  0.00000000  0.00000000  0.00000000  1
  Ta  Ta1  1  0.39419450  0.27915550  0.49944050  1
  Ta  Ta2  1  0.61621400  0.17196400  0.49594800  1
  Ta  Ta3  1  0.32803600  0.11621400  0.00405200  1
  Ta  Ta4  1  0.77915550  0.10580550  0.00055950  1
  Ta  Ta5  1  0.22084450  0.89419450  0.00055950  1
  Ta  Ta6  1  0.67196400  0.88378600  0.00405200  1
  Ta  Ta7  1  0.38378600  0.82803600  0.49594800  1
  Ta  Ta8  1  0.60580550  0.72084450  0.49944050  1
  Ta  Ta9  1  0.50000000  0.50000000  0.50000000  1
  Ta  Ta10  1  0.89419450  0.77915550  0.99944050  1
  Ta  Ta11  1  0.11621400  0.67196400  0.99594800  1
  Ta  Ta12  1  0.82803600  0.61621400  0.50405200  1
  Ta  Ta13  1  0.27915550  0.60580550  0.50055950  1
  Ta  Ta14  1  0.72084450  0.39419450  0.50055950  1
  Ta  Ta15  1  0.17196400  0.38378600  0.50405200  1
  Ta  Ta16  1  0.88378600  0.32803600  0.99594800  1
  Ta  Ta17  1  0.10580550  0.22084450  0.99944050  1
  P  P18  1  0.50000000  0.00000000  0.75000000  1
  P  P19  1  0.00000000  0.50000000  0.25000000  1
  O  O20  1  0.00000000  0.00000000  0.50000000  1
  O  O21  1  0.44845650  0.38338650  0.50213950  1
  O  O22  1  0.67436500  0.28115500  0.50255000  1
  O  O23  1  0.38693650  0.24661050  0.99852450  1
  O  O24  1  0.50963900  0.21944800  0.49598300  1
  O  O25  1  0.21884500  0.17436500  0.99745000  1
  O  O26  1  0.64552600  0.15622600  0.00332500  1
  O  O27  1  0.34377400  0.14552600  0.49667500  1
  O  O28  1  0.74661050  0.11306350  0.50147550  1
  O  O29  1  0.44758900  0.06415800  0.96768800  1
  O  O30  1  0.56415800  0.05241100  0.53231200  1
  O  O31  1  0.88338650  0.05154350  0.99786050  1
  O  O32  1  0.28055200  0.00963900  0.00401700  1
  O  O33  1  0.71944800  0.99036100  0.00401700  1
  O  O34  1  0.11661350  0.94845650  0.99786050  1
  O  O35  1  0.43584200  0.94758900  0.53231200  1
  O  O36  1  0.55241100  0.93584200  0.96768800  1
  O  O37  1  0.25338950  0.88693650  0.50147550  1
  O  O38  1  0.65622600  0.85447400  0.49667500  1
  O  O39  1  0.35447400  0.84377400  0.00332500  1
  O  O40  1  0.78115500  0.82563500  0.99745000  1
  O  O41  1  0.49036100  0.78055200  0.49598300  1
  O  O42  1  0.61306350  0.75338950  0.99852450  1
  O  O43  1  0.32563500  0.71884500  0.50255000  1
  O  O44  1  0.55154350  0.61661350  0.50213950  1
  O  O45  1  0.50000000  0.50000000  0.00000000  1
  O  O46  1  0.94845650  0.88338650  0.00213950  1
  O  O47  1  0.17436500  0.78115500  0.00255000  1
  O  O48  1  0.88693650  0.74661050  0.49852450  1
  O  O49  1  0.00963900  0.71944800  0.99598300  1
  O  O50  1  0.71884500  0.67436500  0.49745000  1
  O  O51  1  0.14552600  0.65622600  0.50332500  1
  O  O52  1  0.84377400  0.64552600  0.99667500  1
  O  O53  1  0.24661050  0.61306350  0.00147550  1
  O  O54  1  0.94758900  0.56415800  0.46768800  1
  O  O55  1  0.06415800  0.55241100  0.03231200  1
  O  O56  1  0.38338650  0.55154350  0.49786050  1
  O  O57  1  0.78055200  0.50963900  0.50401700  1
  O  O58  1  0.21944800  0.49036100  0.50401700  1
  O  O59  1  0.61661350  0.44845650  0.49786050  1
  O  O60  1  0.93584200  0.44758900  0.03231200  1
  O  O61  1  0.05241100  0.43584200  0.46768800  1
  O  O62  1  0.75338950  0.38693650  0.00147550  1
  O  O63  1  0.15622600  0.35447400  0.99667500  1
  O  O64  1  0.85447400  0.34377400  0.50332500  1
  O  O65  1  0.28115500  0.32563500  0.49745000  1
  O  O66  1  0.99036100  0.28055200  0.99598300  1
  O  O67  1  0.11306350  0.25338950  0.49852450  1
  O  O68  1  0.82563500  0.21884500  0.00255000  1
  O  O69  1  0.05154350  0.11661350  0.00213950  1
