# generated using pymatgen
data_Fe4O3F5
_symmetry_space_group_name_H-M   'P 1'
_cell_length_a   9.57393600
_cell_length_b   6.18182400
_cell_length_c   10.40445081
_cell_angle_alpha   90.00000000
_cell_angle_beta   113.23996690
_cell_angle_gamma   90.00000000
_symmetry_Int_Tables_number   1
_chemical_formula_structural   Fe4O3F5
_chemical_formula_sum   'Fe16 O12 F20'
_cell_volume   565.81676966
_cell_formula_units_Z   4
loop_
 _symmetry_equiv_pos_site_id
 _symmetry_equiv_pos_as_xyz
  1  'x, y, z'
loop_
 _atom_site_type_symbol
 _atom_site_label
 _atom_site_symmetry_multiplicity
 _atom_site_fract_x
 _atom_site_fract_y
 _atom_site_fract_z
 _atom_site_occupancy
  Fe  Fe0  1  0.87798350  0.76259550  0.24383200  1
  Fe  Fe1  1  0.13003450  0.75895050  0.74457400  1
  Fe  Fe2  1  0.74822700  0.50000000  0.50484300  1
  Fe  Fe3  1  0.75197700  0.00000000  0.49926700  1
  Fe  Fe4  1  0.49433600  0.00000000  0.01137600  1
  Fe  Fe5  1  0.63003450  0.74104950  0.74457400  1
  Fe  Fe6  1  0.37798350  0.73740450  0.24383200  1
  Fe  Fe7  1  0.50650500  0.50000000  0.99577300  1
  Fe  Fe8  1  0.37798350  0.26259550  0.24383200  1
  Fe  Fe9  1  0.63003450  0.25895050  0.74457400  1
  Fe  Fe10  1  0.24822700  0.00000000  0.50484300  1
  Fe  Fe11  1  0.25197700  0.50000000  0.49926700  1
  Fe  Fe12  1  0.99433600  0.50000000  0.01137600  1
  Fe  Fe13  1  0.13003450  0.24104950  0.74457400  1
  Fe  Fe14  1  0.87798350  0.23740450  0.24383200  1
  Fe  Fe15  1  0.00650500  0.00000000  0.99577300  1
  O  O16  1  0.93082000  0.00000000  0.14736800  1
  O  O17  1  0.82788800  0.00000000  0.34765000  1
  O  O18  1  0.67312100  0.00000000  0.65006700  1
  O  O19  1  0.67716400  0.50000000  0.65502800  1
  O  O20  1  0.41937600  0.00000000  0.16129800  1
  O  O21  1  0.58132600  0.50000000  0.85031400  1
  O  O22  1  0.43082000  0.50000000  0.14736800  1
  O  O23  1  0.32788800  0.50000000  0.34765000  1
  O  O24  1  0.17312100  0.50000000  0.65006700  1
  O  O25  1  0.17716400  0.00000000  0.65502800  1
  O  O26  1  0.91937600  0.50000000  0.16129800  1
  O  O27  1  0.08132600  0.00000000  0.85031400  1
  F  F28  1  0.10029350  0.73749350  0.39859400  1
  F  F29  1  0.07479200  0.50000000  0.84985800  1
  F  F30  1  0.82419700  0.50000000  0.35195800  1
  F  F31  1  0.65331550  0.26105950  0.09855900  1
  F  F32  1  0.90162400  0.76340900  0.60106300  1
  F  F33  1  0.65331550  0.73894050  0.09855900  1
  F  F34  1  0.85262700  0.23924300  0.89821400  1
  F  F35  1  0.60029350  0.76250650  0.39859400  1
  F  F36  1  0.85262700  0.76075700  0.89821400  1
  F  F37  1  0.40162400  0.73659100  0.60106300  1
  F  F38  1  0.60029350  0.23749350  0.39859400  1
  F  F39  1  0.57479200  0.00000000  0.84985800  1
  F  F40  1  0.32419700  0.00000000  0.35195800  1
  F  F41  1  0.15331550  0.76105950  0.09855900  1
  F  F42  1  0.40162400  0.26340900  0.60106300  1
  F  F43  1  0.15331550  0.23894050  0.09855900  1
  F  F44  1  0.35262700  0.73924300  0.89821400  1
  F  F45  1  0.10029350  0.26250650  0.39859400  1
  F  F46  1  0.35262700  0.26075700  0.89821400  1
  F  F47  1  0.90162400  0.23659100  0.60106300  1
