# generated using pymatgen
data_CoH16C3N8O7
_symmetry_space_group_name_H-M   'P 1'
_cell_length_a   12.29278000
_cell_length_b   10.99541600
_cell_length_c   10.37821739
_cell_angle_alpha   90.00000000
_cell_angle_beta   120.70349038
_cell_angle_gamma   90.00000000
_symmetry_Int_Tables_number   1
_chemical_formula_structural   CoH16C3N8O7
_chemical_formula_sum   'Co4 H64 C12 N32 O28'
_cell_volume   1206.12597586
_cell_formula_units_Z   4
loop_
 _symmetry_equiv_pos_site_id
 _symmetry_equiv_pos_as_xyz
  1  'x, y, z'
loop_
 _atom_site_type_symbol
 _atom_site_label
 _atom_site_symmetry_multiplicity
 _atom_site_fract_x
 _atom_site_fract_y
 _atom_site_fract_z
 _atom_site_occupancy
  Co  Co0  1  0.99786900  0.07509500  0.99425000  1
  Co  Co1  1  0.99786900  0.92490500  0.49425000  1
  Co  Co2  1  0.49786900  0.57509500  0.99425000  1
  Co  Co3  1  0.49786900  0.42490500  0.49425000  1
  H  H4  1  0.30352450  0.68185150  0.99798700  1
  H  H5  1  0.30352450  0.31814850  0.49798700  1
  H  H6  1  0.33885700  0.56454000  0.11135400  1
  H  H7  1  0.33885700  0.43546000  0.61135400  1
  H  H8  1  0.14942800  0.50516200  0.89058500  1
  H  H9  1  0.14942800  0.49483800  0.39058500  1
  H  H10  1  0.00030950  0.85925550  0.10674700  1
  H  H11  1  0.00030950  0.14074450  0.60674700  1
  H  H12  1  0.59541800  0.44728400  0.25531200  1
  H  H13  1  0.59541800  0.55271600  0.75531200  1
  H  H14  1  0.19816750  0.78673150  0.17479900  1
  H  H15  1  0.19816750  0.21326850  0.67479900  1
  H  H16  1  0.71342500  0.68098300  0.22098300  1
  H  H17  1  0.71342500  0.31901700  0.72098300  1
  H  H18  1  0.09128050  0.23141950  0.23433700  1
  H  H19  1  0.09128050  0.76858050  0.73433700  1
  H  H20  1  0.14607000  0.39222400  0.12920900  1
  H  H21  1  0.14607000  0.60777600  0.62920900  1
  H  H22  1  0.92490750  0.60586450  0.92433300  1
  H  H23  1  0.92490750  0.39413550  0.42433300  1
  H  H24  1  0.01754250  0.59580350  0.10839200  1
  H  H25  1  0.01754250  0.40419650  0.60839200  1
  H  H26  1  0.87558350  0.51755650  0.02067800  1
  H  H27  1  0.87558350  0.48244350  0.52067800  1
  H  H28  1  0.77123000  0.70050300  0.97407500  1
  H  H29  1  0.77123000  0.29949700  0.47407500  1
  H  H30  1  0.88579900  0.70747600  0.14998700  1
  H  H31  1  0.88579900  0.29252400  0.64998700  1
  H  H32  1  0.94658350  0.80293950  0.82159500  1
  H  H33  1  0.94658350  0.19706050  0.32159500  1
  H  H34  1  0.91639700  0.68910900  0.71642900  1
  H  H35  1  0.91639700  0.31089100  0.21642900  1
  H  H36  1  0.80352450  0.18185150  0.99798700  1
  H  H37  1  0.80352450  0.81814850  0.49798700  1
  H  H38  1  0.83885700  0.06454000  0.11135400  1
  H  H39  1  0.83885700  0.93546000  0.61135400  1
  H  H40  1  0.64942800  0.00516200  0.89058500  1
  H  H41  1  0.64942800  0.99483800  0.39058500  1
  H  H42  1  0.50030950  0.35925550  0.10674700  1
  H  H43  1  0.50030950  0.64074450  0.60674700  1
  H  H44  1  0.09541800  0.94728400  0.25531200  1
  H  H45  1  0.09541800  0.05271600  0.75531200  1
  H  H46  1  0.69816750  0.28673150  0.17479900  1
  H  H47  1  0.69816750  0.71326850  0.67479900  1
  H  H48  1  0.21342500  0.18098300  0.22098300  1
  H  H49  1  0.21342500  0.81901700  0.72098300  1
  H  H50  1  0.59128050  0.73141950  0.23433700  1
  H  H51  1  0.59128050  0.26858050  0.73433700  1
  H  H52  1  0.64607000  0.89222400  0.12920900  1
  H  H53  1  0.64607000  0.10777600  0.62920900  1
  H  H54  1  0.42490750  0.10586450  0.92433300  1
  H  H55  1  0.42490750  0.89413550  0.42433300  1
  H  H56  1  0.51754250  0.09580350  0.10839200  1
  H  H57  1  0.51754250  0.90419650  0.60839200  1
  H  H58  1  0.37558350  0.01755650  0.02067800  1
  H  H59  1  0.37558350  0.98244350  0.52067800  1
  H  H60  1  0.27123000  0.20050300  0.97407500  1
  H  H61  1  0.27123000  0.79949700  0.47407500  1
  H  H62  1  0.38579900  0.20747600  0.14998700  1
  H  H63  1  0.38579900  0.79252400  0.64998700  1
  H  H64  1  0.44658350  0.30293950  0.82159500  1
  H  H65  1  0.44658350  0.69706050  0.32159500  1
  H  H66  1  0.41639700  0.18910900  0.71642900  1
  H  H67  1  0.41639700  0.81089100  0.21642900  1
  C  C68  1  0.26256250  0.44603550  0.80950800  1
  C  C69  1  0.26256250  0.55396450  0.30950800  1
  C  C70  1  0.70965350  0.42505350  0.04792000  1
  C  C71  1  0.70965350  0.57494650  0.54792000  1
  C  C72  1  0.01216600  0.32435300  0.92598100  1
  C  C73  1  0.01216600  0.67564700  0.42598100  1
  C  C74  1  0.76256250  0.94603550  0.80950800  1
  C  C75  1  0.76256250  0.05396450  0.30950800  1
  C  C76  1  0.20965350  0.92505350  0.04792000  1
  C  C77  1  0.20965350  0.07494650  0.54792000  1
  C  C78  1  0.51216600  0.82435300  0.92598100  1
  C  C79  1  0.51216600  0.17564700  0.42598100  1
  N  N80  1  0.32904800  0.59141600  0.01067000  1
  N  N81  1  0.32904800  0.40858400  0.51067000  1
  N  N82  1  0.23271750  0.52227150  0.89199100  1
  N  N83  1  0.23271750  0.47772850  0.39199100  1
  N  N84  1  0.07019000  0.92483900  0.14699100  1
  N  N85  1  0.07019000  0.07516100  0.64699100  1
  N  N86  1  0.67867250  0.37779950  0.14835100  1
  N  N87  1  0.67867250  0.62220050  0.64835100  1
  N  N88  1  0.12081850  0.20905350  0.15982800  1
  N  N89  1  0.12081850  0.79094650  0.65982800  1
  N  N90  1  0.11251850  0.31219450  0.07321900  1
  N  N91  1  0.11251850  0.68780550  0.57321900  1
  N  N92  1  0.92167000  0.59817200  0.02172000  1
  N  N93  1  0.92167000  0.40182800  0.52172000  1
  N  N94  1  0.86741100  0.70814600  0.04131800  1
  N  N95  1  0.86741100  0.29185400  0.54131800  1
  N  N96  1  0.82904800  0.09141600  0.01067000  1
  N  N97  1  0.82904800  0.90858400  0.51067000  1
  N  N98  1  0.73271750  0.02227150  0.89199100  1
  N  N99  1  0.73271750  0.97772850  0.39199100  1
  N  N100  1  0.57019000  0.42483900  0.14699100  1
  N  N101  1  0.57019000  0.57516100  0.64699100  1
  N  N102  1  0.17867250  0.87779950  0.14835100  1
  N  N103  1  0.17867250  0.12220050  0.64835100  1
  N  N104  1  0.62081850  0.70905350  0.15982800  1
  N  N105  1  0.62081850  0.29094650  0.65982800  1
  N  N106  1  0.61251850  0.81219450  0.07321900  1
  N  N107  1  0.61251850  0.18780550  0.57321900  1
  N  N108  1  0.42167000  0.09817200  0.02172000  1
  N  N109  1  0.42167000  0.90182800  0.52172000  1
  N  N110  1  0.36741100  0.20814600  0.04131800  1
  N  N111  1  0.36741100  0.79185400  0.54131800  1
  O  O112  1  0.37410300  0.45236900  0.82615100  1
  O  O113  1  0.37410300  0.54763100  0.32615100  1
  O  O114  1  0.17553600  0.37681200  0.71429000  1
  O  O115  1  0.17553600  0.62318800  0.21429000  1
  O  O116  1  0.64922600  0.51823900  0.96908300  1
  O  O117  1  0.64922600  0.48176100  0.46908300  1
  O  O118  1  0.80186100  0.37528200  0.04308100  1
  O  O119  1  0.80186100  0.62471800  0.54308100  1
  O  O120  1  0.94439100  0.22905700  0.86079100  1
  O  O121  1  0.94439100  0.77094300  0.36079100  1
  O  O122  1  0.99722250  0.42687150  0.86482900  1
  O  O123  1  0.99722250  0.57312850  0.36482900  1
  O  O124  1  0.98291900  0.72536100  0.81285500  1
  O  O125  1  0.98291900  0.27463900  0.31285500  1
  O  O126  1  0.87410300  0.95236900  0.82615100  1
  O  O127  1  0.87410300  0.04763100  0.32615100  1
  O  O128  1  0.67553600  0.87681200  0.71429000  1
  O  O129  1  0.67553600  0.12318800  0.21429000  1
  O  O130  1  0.14922600  0.01823900  0.96908300  1
  O  O131  1  0.14922600  0.98176100  0.46908300  1
  O  O132  1  0.30186100  0.87528200  0.04308100  1
  O  O133  1  0.30186100  0.12471800  0.54308100  1
  O  O134  1  0.44439100  0.72905700  0.86079100  1
  O  O135  1  0.44439100  0.27094300  0.36079100  1
  O  O136  1  0.49722250  0.92687150  0.86482900  1
  O  O137  1  0.49722250  0.07312850  0.36482900  1
  O  O138  1  0.48291900  0.22536100  0.81285500  1
  O  O139  1  0.48291900  0.77463900  0.31285500  1
