# generated using pymatgen
data_LiBi3(P3O10)2
_symmetry_space_group_name_H-M   'P 1'
_cell_length_a   10.43071800
_cell_length_b   13.80231600
_cell_length_c   12.94974300
_cell_angle_alpha   90.00000000
_cell_angle_beta   90.00000000
_cell_angle_gamma   90.00000000
_symmetry_Int_Tables_number   1
_chemical_formula_structural   LiBi3(P3O10)2
_chemical_formula_sum   'Li4 Bi12 P24 O80'
_cell_volume   1864.34945417
_cell_formula_units_Z   4
loop_
 _symmetry_equiv_pos_site_id
 _symmetry_equiv_pos_as_xyz
  1  'x, y, z'
loop_
 _atom_site_type_symbol
 _atom_site_label
 _atom_site_symmetry_multiplicity
 _atom_site_fract_x
 _atom_site_fract_y
 _atom_site_fract_z
 _atom_site_occupancy
  Li  Li0  1  0.56648100  0.00000000  0.00000000  1
  Li  Li1  1  0.43351900  0.00000000  0.50000000  1
  Li  Li2  1  0.06648100  0.50000000  0.00000000  1
  Li  Li3  1  0.93351900  0.50000000  0.50000000  1
  Bi  Bi4  1  0.12428500  0.00000000  0.50000000  1
  Bi  Bi5  1  0.50000000  0.78207100  0.25000000  1
  Bi  Bi6  1  0.50000000  0.21792900  0.75000000  1
  Bi  Bi7  1  0.50000000  0.74249900  0.75000000  1
  Bi  Bi8  1  0.50000000  0.25750100  0.25000000  1
  Bi  Bi9  1  0.87571500  0.00000000  0.00000000  1
  Bi  Bi10  1  0.62428500  0.50000000  0.50000000  1
  Bi  Bi11  1  0.00000000  0.28207100  0.25000000  1
  Bi  Bi12  1  0.00000000  0.71792900  0.75000000  1
  Bi  Bi13  1  0.00000000  0.24249900  0.75000000  1
  Bi  Bi14  1  0.00000000  0.75750100  0.25000000  1
  Bi  Bi15  1  0.37571500  0.50000000  0.00000000  1
  P  P16  1  0.26030350  0.13073250  0.16726200  1
  P  P17  1  0.26030350  0.86926750  0.83273800  1
  P  P18  1  0.25124300  0.04888500  0.71483100  1
  P  P19  1  0.25124300  0.95111500  0.28516900  1
  P  P20  1  0.42689850  0.29048750  0.51845300  1
  P  P21  1  0.42689850  0.70951250  0.48154700  1
  P  P22  1  0.57310150  0.70951250  0.01845300  1
  P  P23  1  0.57310150  0.29048750  0.98154700  1
  P  P24  1  0.74875700  0.95111500  0.21483100  1
  P  P25  1  0.74875700  0.04888500  0.78516900  1
  P  P26  1  0.73969650  0.86926750  0.66726200  1
  P  P27  1  0.73969650  0.13073250  0.33273800  1
  P  P28  1  0.76030350  0.63073250  0.16726200  1
  P  P29  1  0.76030350  0.36926750  0.83273800  1
  P  P30  1  0.75124300  0.54888500  0.71483100  1
  P  P31  1  0.75124300  0.45111500  0.28516900  1
  P  P32  1  0.92689850  0.79048750  0.51845300  1
  P  P33  1  0.92689850  0.20951250  0.48154700  1
  P  P34  1  0.07310150  0.20951250  0.01845300  1
  P  P35  1  0.07310150  0.79048750  0.98154700  1
  P  P36  1  0.24875700  0.45111500  0.21483100  1
  P  P37  1  0.24875700  0.54888500  0.78516900  1
  P  P38  1  0.23969650  0.36926750  0.66726200  1
  P  P39  1  0.23969650  0.63073250  0.33273800  1
  O  O40  1  0.19500400  0.02929800  0.20189100  1
  O  O41  1  0.19500400  0.97070200  0.79810900  1
  O  O42  1  0.20016650  0.14718350  0.05563100  1
  O  O43  1  0.20016650  0.85281650  0.94436900  1
  O  O44  1  0.29465950  0.99378550  0.61423400  1
  O  O45  1  0.29465950  0.00621450  0.38576600  1
  O  O46  1  0.78223200  0.79213400  0.74239800  1
  O  O47  1  0.78223200  0.20786600  0.25760200  1
  O  O48  1  0.36197400  0.90492200  0.22826500  1
  O  O49  1  0.36197400  0.09507800  0.77173500  1
  O  O50  1  0.86820850  0.10696650  0.81698400  1
  O  O51  1  0.86820850  0.89303350  0.18301600  1
  O  O52  1  0.40402150  0.12198250  0.15509700  1
  O  O53  1  0.40402150  0.87801750  0.84490300  1
  O  O54  1  0.40126700  0.28151400  0.40468900  1
  O  O55  1  0.40126700  0.71848600  0.59531100  1
  O  O56  1  0.45953150  0.35495350  0.94688700  1
  O  O57  1  0.45953150  0.64504650  0.05311300  1
  O  O58  1  0.43515200  0.19332900  0.57580800  1
  O  O59  1  0.43515200  0.80667100  0.42419200  1
  O  O60  1  0.56484800  0.80667100  0.07580800  1
  O  O61  1  0.56484800  0.19332900  0.92419200  1
  O  O62  1  0.54046850  0.64504650  0.44688700  1
  O  O63  1  0.54046850  0.35495350  0.55311300  1
  O  O64  1  0.59873300  0.71848600  0.90468900  1
  O  O65  1  0.59873300  0.28151400  0.09531100  1
  O  O66  1  0.59597850  0.87801750  0.65509700  1
  O  O67  1  0.59597850  0.12198250  0.34490300  1
  O  O68  1  0.13179150  0.10696650  0.68301600  1
  O  O69  1  0.13179150  0.89303350  0.31698400  1
  O  O70  1  0.63802600  0.09507800  0.72826500  1
  O  O71  1  0.63802600  0.90492200  0.27173500  1
  O  O72  1  0.21776800  0.20786600  0.24239800  1
  O  O73  1  0.21776800  0.79213400  0.75760200  1
  O  O74  1  0.70534050  0.00621450  0.11423400  1
  O  O75  1  0.70534050  0.99378550  0.88576600  1
  O  O76  1  0.79983350  0.85281650  0.55563100  1
  O  O77  1  0.79983350  0.14718350  0.44436900  1
  O  O78  1  0.80499600  0.97070200  0.70189100  1
  O  O79  1  0.80499600  0.02929800  0.29810900  1
  O  O80  1  0.69500400  0.52929800  0.20189100  1
  O  O81  1  0.69500400  0.47070200  0.79810900  1
  O  O82  1  0.70016650  0.64718350  0.05563100  1
  O  O83  1  0.70016650  0.35281650  0.94436900  1
  O  O84  1  0.79465950  0.49378550  0.61423400  1
  O  O85  1  0.79465950  0.50621450  0.38576600  1
  O  O86  1  0.28223200  0.29213400  0.74239800  1
  O  O87  1  0.28223200  0.70786600  0.25760200  1
  O  O88  1  0.86197400  0.40492200  0.22826500  1
  O  O89  1  0.86197400  0.59507800  0.77173500  1
  O  O90  1  0.36820850  0.60696650  0.81698400  1
  O  O91  1  0.36820850  0.39303350  0.18301600  1
  O  O92  1  0.90402150  0.62198250  0.15509700  1
  O  O93  1  0.90402150  0.37801750  0.84490300  1
  O  O94  1  0.90126700  0.78151400  0.40468900  1
  O  O95  1  0.90126700  0.21848600  0.59531100  1
  O  O96  1  0.95953150  0.85495350  0.94688700  1
  O  O97  1  0.95953150  0.14504650  0.05311300  1
  O  O98  1  0.93515200  0.69332900  0.57580800  1
  O  O99  1  0.93515200  0.30667100  0.42419200  1
  O  O100  1  0.06484800  0.30667100  0.07580800  1
  O  O101  1  0.06484800  0.69332900  0.92419200  1
  O  O102  1  0.04046850  0.14504650  0.44688700  1
  O  O103  1  0.04046850  0.85495350  0.55311300  1
  O  O104  1  0.09873300  0.21848600  0.90468900  1
  O  O105  1  0.09873300  0.78151400  0.09531100  1
  O  O106  1  0.09597850  0.37801750  0.65509700  1
  O  O107  1  0.09597850  0.62198250  0.34490300  1
  O  O108  1  0.63179150  0.60696650  0.68301600  1
  O  O109  1  0.63179150  0.39303350  0.31698400  1
  O  O110  1  0.13802600  0.59507800  0.72826500  1
  O  O111  1  0.13802600  0.40492200  0.27173500  1
  O  O112  1  0.71776800  0.70786600  0.24239800  1
  O  O113  1  0.71776800  0.29213400  0.75760200  1
  O  O114  1  0.20534050  0.50621450  0.11423400  1
  O  O115  1  0.20534050  0.49378550  0.88576600  1
  O  O116  1  0.29983350  0.35281650  0.55563100  1
  O  O117  1  0.29983350  0.64718350  0.44436900  1
  O  O118  1  0.30499600  0.47070200  0.70189100  1
  O  O119  1  0.30499600  0.52929800  0.29810900  1
