# generated using pymatgen
data_Na4PtO4
_symmetry_space_group_name_H-M   'P 1'
_cell_length_a   10.97508600
_cell_length_b   3.30166200
_cell_length_c   7.97716948
_cell_angle_alpha   90.00000000
_cell_angle_beta   121.07924247
_cell_angle_gamma   90.00000000
_symmetry_Int_Tables_number   1
_chemical_formula_structural   Na4PtO4
_chemical_formula_sum   'Na8 Pt2 O8'
_cell_volume   247.56741753
_cell_formula_units_Z   2
loop_
 _symmetry_equiv_pos_site_id
 _symmetry_equiv_pos_as_xyz
  1  'x, y, z'
loop_
 _atom_site_type_symbol
 _atom_site_label
 _atom_site_symmetry_multiplicity
 _atom_site_fract_x
 _atom_site_fract_y
 _atom_site_fract_z
 _atom_site_occupancy
  Na  Na0  1  0.29310100  0.50000000  0.67427600  1
  Na  Na1  1  0.13112500  0.50000000  0.89383600  1
  Na  Na2  1  0.70689900  0.50000000  0.32572400  1
  Na  Na3  1  0.86887500  0.50000000  0.10616400  1
  Na  Na4  1  0.79310100  0.00000000  0.67427600  1
  Na  Na5  1  0.63112500  0.00000000  0.89383600  1
  Na  Na6  1  0.20689900  0.00000000  0.32572400  1
  Na  Na7  1  0.36887500  0.00000000  0.10616400  1
  Pt  Pt8  1  0.00000000  0.00000000  0.50000000  1
  Pt  Pt9  1  0.50000000  0.50000000  0.50000000  1
  O  O10  1  0.19691700  0.00000000  0.76860200  1
  O  O11  1  0.80308300  0.00000000  0.23139800  1
  O  O12  1  0.06823700  0.50000000  0.40427100  1
  O  O13  1  0.93176300  0.50000000  0.59572900  1
  O  O14  1  0.69691700  0.50000000  0.76860200  1
  O  O15  1  0.30308300  0.50000000  0.23139800  1
  O  O16  1  0.56823700  0.00000000  0.40427100  1
  O  O17  1  0.43176300  0.00000000  0.59572900  1
