# generated using pymatgen
data_V3CuO8
_symmetry_space_group_name_H-M   'P 1'
_cell_length_a   8.27376200
_cell_length_b   8.27376200
_cell_length_c   8.27376200
_cell_angle_alpha   90.00000000
_cell_angle_beta   90.00000000
_cell_angle_gamma   90.00000000
_symmetry_Int_Tables_number   1
_chemical_formula_structural   V3CuO8
_chemical_formula_sum   'V12 Cu4 O32'
_cell_volume   566.38151645
_cell_formula_units_Z   4
loop_
 _symmetry_equiv_pos_site_id
 _symmetry_equiv_pos_as_xyz
  1  'x, y, z'
loop_
 _atom_site_type_symbol
 _atom_site_label
 _atom_site_symmetry_multiplicity
 _atom_site_fract_x
 _atom_site_fract_y
 _atom_site_fract_z
 _atom_site_occupancy
  V  V0  1  0.10998700  0.62442700  0.13250400  1
  V  V1  1  0.12442700  0.36749600  0.89001300  1
  V  V2  1  0.13250400  0.10998700  0.62442700  1
  V  V3  1  0.36749600  0.89001300  0.12442700  1
  V  V4  1  0.37557300  0.63250400  0.39001300  1
  V  V5  1  0.39001300  0.37557300  0.63250400  1
  V  V6  1  0.60998700  0.87557300  0.86749600  1
  V  V7  1  0.62442700  0.13250400  0.10998700  1
  V  V8  1  0.63250400  0.39001300  0.37557300  1
  V  V9  1  0.86749600  0.60998700  0.87557300  1
  V  V10  1  0.87557300  0.86749600  0.60998700  1
  V  V11  1  0.89001300  0.12442700  0.36749600  1
  Cu  Cu12  1  0.00180000  0.49820000  0.50180000  1
  Cu  Cu13  1  0.49820000  0.50180000  0.00180000  1
  Cu  Cu14  1  0.50180000  0.00180000  0.49820000  1
  Cu  Cu15  1  0.99820000  0.99820000  0.99820000  1
  O  O16  1  0.10076400  0.13182100  0.39279700  1
  O  O17  1  0.10720300  0.89923600  0.63182100  1
  O  O18  1  0.10914400  0.60914400  0.89085600  1
  O  O19  1  0.13182100  0.39279700  0.10076400  1
  O  O20  1  0.11599900  0.14791800  0.85691300  1
  O  O21  1  0.13830800  0.36169200  0.63830800  1
  O  O22  1  0.14308700  0.61599900  0.35208200  1
  O  O23  1  0.14791800  0.85691300  0.11599900  1
  O  O24  1  0.35208200  0.14308700  0.61599900  1
  O  O25  1  0.35691300  0.38400100  0.85208200  1
  O  O26  1  0.36169200  0.63830800  0.13830800  1
  O  O27  1  0.38400100  0.85208200  0.35691300  1
  O  O28  1  0.36817900  0.60720300  0.60076400  1
  O  O29  1  0.39085600  0.39085600  0.39085600  1
  O  O30  1  0.39279700  0.10076400  0.13182100  1
  O  O31  1  0.39923600  0.86817900  0.89279700  1
  O  O32  1  0.60076400  0.36817900  0.60720300  1
  O  O33  1  0.60720300  0.60076400  0.36817900  1
  O  O34  1  0.60914400  0.89085600  0.10914400  1
  O  O35  1  0.63182100  0.10720300  0.89923600  1
  O  O36  1  0.61599900  0.35208200  0.14308700  1
  O  O37  1  0.63830800  0.13830800  0.36169200  1
  O  O38  1  0.64308700  0.88400100  0.64791800  1
  O  O39  1  0.64791800  0.64308700  0.88400100  1
  O  O40  1  0.85208200  0.35691300  0.38400100  1
  O  O41  1  0.85691300  0.11599900  0.14791800  1
  O  O42  1  0.86169200  0.86169200  0.86169200  1
  O  O43  1  0.88400100  0.64791800  0.64308700  1
  O  O44  1  0.86817900  0.89279700  0.39923600  1
  O  O45  1  0.89085600  0.10914400  0.60914400  1
  O  O46  1  0.89279700  0.39923600  0.86817900  1
  O  O47  1  0.89923600  0.63182100  0.10720300  1
