# generated using pymatgen
data_K2O
_symmetry_space_group_name_H-M   'P 1'
_cell_length_a   6.47879200
_cell_length_b   6.66309800
_cell_length_c   12.89346800
_cell_angle_alpha   90.00000000
_cell_angle_beta   90.00000000
_cell_angle_gamma   90.00000000
_symmetry_Int_Tables_number   1
_chemical_formula_structural   K2O
_chemical_formula_sum   'K16 O8'
_cell_volume   556.59587686
_cell_formula_units_Z   8
loop_
 _symmetry_equiv_pos_site_id
 _symmetry_equiv_pos_as_xyz
  1  'x, y, z'
loop_
 _atom_site_type_symbol
 _atom_site_label
 _atom_site_symmetry_multiplicity
 _atom_site_fract_x
 _atom_site_fract_y
 _atom_site_fract_z
 _atom_site_occupancy
  K  K0  1  0.99972000  0.26063000  0.97908500  1
  K  K1  1  0.49972000  0.23937000  0.97908500  1
  K  K2  1  0.85646600  0.87735900  0.79428900  1
  K  K3  1  0.35646600  0.62264100  0.79428900  1
  K  K4  1  0.35646600  0.12264100  0.70571100  1
  K  K5  1  0.85646600  0.37735900  0.70571100  1
  K  K6  1  0.99972000  0.76063000  0.52091500  1
  K  K7  1  0.49972000  0.73937000  0.52091500  1
  K  K8  1  0.50028000  0.26063000  0.47908500  1
  K  K9  1  0.00028000  0.23937000  0.47908500  1
  K  K10  1  0.64353400  0.87735900  0.29428900  1
  K  K11  1  0.14353400  0.62264100  0.29428900  1
  K  K12  1  0.64353400  0.37735900  0.20571100  1
  K  K13  1  0.14353400  0.12264100  0.20571100  1
  K  K14  1  0.50028000  0.76063000  0.02091500  1
  K  K15  1  0.00028000  0.73937000  0.02091500  1
  O  O16  1  0.23184400  0.96901300  0.88502200  1
  O  O17  1  0.73184400  0.53098700  0.88502200  1
  O  O18  1  0.73184400  0.03098700  0.61497800  1
  O  O19  1  0.23184400  0.46901300  0.61497800  1
  O  O20  1  0.26815600  0.96901300  0.38502200  1
  O  O21  1  0.76815600  0.53098700  0.38502200  1
  O  O22  1  0.26815600  0.46901300  0.11497800  1
  O  O23  1  0.76815600  0.03098700  0.11497800  1
