# generated using pymatgen
data_Li4V2Si(PO6)2
_symmetry_space_group_name_H-M   'P 1'
_cell_length_a   14.35045200
_cell_length_b   9.03368400
_cell_length_c   8.49177644
_cell_angle_alpha   90.00000000
_cell_angle_beta   121.09449572
_cell_angle_gamma   90.00000000
_symmetry_Int_Tables_number   1
_chemical_formula_structural   Li4V2Si(PO6)2
_chemical_formula_sum   'Li16 V8 Si4 P8 O48'
_cell_volume   942.67815330
_cell_formula_units_Z   4
loop_
 _symmetry_equiv_pos_site_id
 _symmetry_equiv_pos_as_xyz
  1  'x, y, z'
loop_
 _atom_site_type_symbol
 _atom_site_label
 _atom_site_symmetry_multiplicity
 _atom_site_fract_x
 _atom_site_fract_y
 _atom_site_fract_z
 _atom_site_occupancy
  Li  Li0  1  0.70758450  0.45380450  0.90985700  1
  Li  Li1  1  0.71477250  0.54666250  0.40683800  1
  Li  Li2  1  0.24818300  0.25030000  0.76034100  1
  Li  Li3  1  0.00000000  0.34210600  0.50000000  1
  Li  Li4  1  0.00000000  0.66132200  0.00000000  1
  Li  Li5  1  0.29241550  0.45380450  0.09014300  1
  Li  Li6  1  0.75181700  0.25030000  0.23965900  1
  Li  Li7  1  0.28522750  0.54666250  0.59316200  1
  Li  Li8  1  0.20758450  0.95380450  0.90985700  1
  Li  Li9  1  0.21477250  0.04666250  0.40683800  1
  Li  Li10  1  0.74818300  0.75030000  0.76034100  1
  Li  Li11  1  0.50000000  0.84210600  0.50000000  1
  Li  Li12  1  0.50000000  0.16132200  0.00000000  1
  Li  Li13  1  0.79241550  0.95380450  0.09014300  1
  Li  Li14  1  0.25181700  0.75030000  0.23965900  1
  Li  Li15  1  0.78522750  0.04666250  0.59316200  1
  V  V16  1  0.89120050  0.24876250  0.10896300  1
  V  V17  1  0.89324300  0.74791900  0.60996900  1
  V  V18  1  0.10879950  0.24876250  0.89103700  1
  V  V19  1  0.10675700  0.74791900  0.39003100  1
  V  V20  1  0.39120050  0.74876250  0.10896300  1
  V  V21  1  0.39324300  0.24791900  0.60996900  1
  V  V22  1  0.60879950  0.74876250  0.89103700  1
  V  V23  1  0.60675700  0.24791900  0.39003100  1
  Si  Si24  1  0.85206300  0.60112600  0.20493300  1
  Si  Si25  1  0.14793700  0.60112600  0.79506700  1
  Si  Si26  1  0.35206300  0.10112600  0.20493300  1
  Si  Si27  1  0.64793700  0.10112600  0.79506700  1
  P  P28  1  0.00000000  0.04496200  0.50000000  1
  P  P29  1  0.84925800  0.40025900  0.70444300  1
  P  P30  1  0.00000000  0.95443100  0.00000000  1
  P  P31  1  0.15074200  0.40025900  0.29555700  1
  P  P32  1  0.50000000  0.54496200  0.50000000  1
  P  P33  1  0.34925800  0.90025900  0.70444300  1
  P  P34  1  0.50000000  0.45443100  0.00000000  1
  P  P35  1  0.65074200  0.90025900  0.29555700  1
  O  O36  1  0.56520250  0.45153250  0.44008000  1
  O  O37  1  0.56020650  0.54998950  0.93086600  1
  O  O38  1  0.75772900  0.66419200  0.00022400  1
  O  O39  1  0.83442050  0.41908350  0.18690200  1
  O  O40  1  0.96560800  0.66043500  0.22884600  1
  O  O41  1  0.83810400  0.64289600  0.37872800  1
  O  O42  1  0.91496450  0.15212250  0.34848700  1
  O  O43  1  0.76470400  0.33665600  0.50945100  1
  O  O44  1  0.83156450  0.57183150  0.69085300  1
  O  O45  1  0.96117650  0.34982450  0.73947700  1
  O  O46  1  0.82974050  0.35005650  0.85766300  1
  O  O47  1  0.08503550  0.15212250  0.65151300  1
  O  O48  1  0.91127100  0.85113700  0.84845700  1
  O  O49  1  0.16189600  0.64289600  0.62127200  1
  O  O50  1  0.03439200  0.66043500  0.77115400  1
  O  O51  1  0.16557950  0.41908350  0.81309800  1
  O  O52  1  0.24227100  0.66419200  0.99977600  1
  O  O53  1  0.08872900  0.85113700  0.15154300  1
  O  O54  1  0.17025950  0.35005650  0.14233700  1
  O  O55  1  0.03882350  0.34982450  0.26052300  1
  O  O56  1  0.16843550  0.57183150  0.30914700  1
  O  O57  1  0.23529600  0.33665600  0.49054900  1
  O  O58  1  0.43479750  0.45153250  0.55992000  1
  O  O59  1  0.43979350  0.54998950  0.06913400  1
  O  O60  1  0.06520250  0.95153250  0.44008000  1
  O  O61  1  0.06020650  0.04998950  0.93086600  1
  O  O62  1  0.25772900  0.16419200  0.00022400  1
  O  O63  1  0.33442050  0.91908350  0.18690200  1
  O  O64  1  0.46560800  0.16043500  0.22884600  1
  O  O65  1  0.33810400  0.14289600  0.37872800  1
  O  O66  1  0.41496450  0.65212250  0.34848700  1
  O  O67  1  0.26470400  0.83665600  0.50945100  1
  O  O68  1  0.33156450  0.07183150  0.69085300  1
  O  O69  1  0.46117650  0.84982450  0.73947700  1
  O  O70  1  0.32974050  0.85005650  0.85766300  1
  O  O71  1  0.58503550  0.65212250  0.65151300  1
  O  O72  1  0.41127100  0.35113700  0.84845700  1
  O  O73  1  0.66189600  0.14289600  0.62127200  1
  O  O74  1  0.53439200  0.16043500  0.77115400  1
  O  O75  1  0.66557950  0.91908350  0.81309800  1
  O  O76  1  0.74227100  0.16419200  0.99977600  1
  O  O77  1  0.58872900  0.35113700  0.15154300  1
  O  O78  1  0.67025950  0.85005650  0.14233700  1
  O  O79  1  0.53882350  0.84982450  0.26052300  1
  O  O80  1  0.66843550  0.07183150  0.30914700  1
  O  O81  1  0.73529600  0.83665600  0.49054900  1
  O  O82  1  0.93479750  0.95153250  0.55992000  1
  O  O83  1  0.93979350  0.04998950  0.06913400  1
