# generated using pymatgen
data_Dy2CO5
_symmetry_space_group_name_H-M   'P 1'
_cell_length_a   3.89773400
_cell_length_b   6.67356200
_cell_length_c   15.23165000
_cell_angle_alpha   90.00000000
_cell_angle_beta   90.00000000
_cell_angle_gamma   90.00000000
_symmetry_Int_Tables_number   1
_chemical_formula_structural   Dy2CO5
_chemical_formula_sum   'Dy8 C4 O20'
_cell_volume   396.20216903
_cell_formula_units_Z   4
loop_
 _symmetry_equiv_pos_site_id
 _symmetry_equiv_pos_as_xyz
  1  'x, y, z'
loop_
 _atom_site_type_symbol
 _atom_site_label
 _atom_site_symmetry_multiplicity
 _atom_site_fract_x
 _atom_site_fract_y
 _atom_site_fract_z
 _atom_site_occupancy
  Dy  Dy0  1  0.49662500  0.83213600  0.59294800  1
  Dy  Dy1  1  0.49662500  0.83213600  0.90705200  1
  Dy  Dy2  1  0.49662500  0.16786400  0.09294800  1
  Dy  Dy3  1  0.49662500  0.16786400  0.40705200  1
  Dy  Dy4  1  0.99662500  0.33213600  0.59294800  1
  Dy  Dy5  1  0.99662500  0.33213600  0.90705200  1
  Dy  Dy6  1  0.99662500  0.66786400  0.09294800  1
  Dy  Dy7  1  0.99662500  0.66786400  0.40705200  1
  C  C8  1  0.87255000  0.95756200  0.75000000  1
  C  C9  1  0.87255000  0.04243800  0.25000000  1
  C  C10  1  0.37255000  0.45756200  0.75000000  1
  C  C11  1  0.37255000  0.54243800  0.25000000  1
  O  O12  1  0.49762100  0.83358400  0.05727800  1
  O  O13  1  0.00714100  0.00208000  0.82586000  1
  O  O14  1  0.00714100  0.00208000  0.67414000  1
  O  O15  1  0.00714100  0.99792000  0.17414000  1
  O  O16  1  0.00714100  0.99792000  0.32586000  1
  O  O17  1  0.49762100  0.83358400  0.44272200  1
  O  O18  1  0.58659300  0.86318400  0.75000000  1
  O  O19  1  0.49762100  0.16641600  0.55727800  1
  O  O20  1  0.49762100  0.16641600  0.94272200  1
  O  O21  1  0.58659300  0.13681600  0.25000000  1
  O  O22  1  0.99762100  0.33358400  0.05727800  1
  O  O23  1  0.50714100  0.50208000  0.82586000  1
  O  O24  1  0.50714100  0.50208000  0.67414000  1
  O  O25  1  0.50714100  0.49792000  0.17414000  1
  O  O26  1  0.50714100  0.49792000  0.32586000  1
  O  O27  1  0.99762100  0.33358400  0.44272200  1
  O  O28  1  0.08659300  0.36318400  0.75000000  1
  O  O29  1  0.99762100  0.66641600  0.55727800  1
  O  O30  1  0.99762100  0.66641600  0.94272200  1
  O  O31  1  0.08659300  0.63681600  0.25000000  1
