# generated using pymatgen
data_Li2Cu4S3
_symmetry_space_group_name_H-M   'P 1'
_cell_length_a   14.78761200
_cell_length_b   3.79772600
_cell_length_c   10.00827892
_cell_angle_alpha   90.00000000
_cell_angle_beta   108.28398513
_cell_angle_gamma   90.00000000
_symmetry_Int_Tables_number   1
_chemical_formula_structural   Li2Cu4S3
_chemical_formula_sum   'Li8 Cu16 S12'
_cell_volume   533.68142120
_cell_formula_units_Z   4
loop_
 _symmetry_equiv_pos_site_id
 _symmetry_equiv_pos_as_xyz
  1  'x, y, z'
loop_
 _atom_site_type_symbol
 _atom_site_label
 _atom_site_symmetry_multiplicity
 _atom_site_fract_x
 _atom_site_fract_y
 _atom_site_fract_z
 _atom_site_occupancy
  Li  Li0  1  0.83665050  0.00738450  0.65309200  1
  Li  Li1  1  0.80667250  0.49336050  0.14567200  1
  Li  Li2  1  0.69332750  0.99336050  0.85432800  1
  Li  Li3  1  0.66334950  0.50738450  0.34690800  1
  Li  Li4  1  0.33665050  0.50738450  0.65309200  1
  Li  Li5  1  0.30667250  0.99336050  0.14567200  1
  Li  Li6  1  0.19332750  0.49336050  0.85432800  1
  Li  Li7  1  0.16334950  0.00738450  0.34690800  1
  Cu  Cu8  1  0.98307150  0.49259450  0.61795100  1
  Cu  Cu9  1  0.96966100  0.49989900  0.86668200  1
  Cu  Cu10  1  0.89918150  0.99944850  0.98843800  1
  Cu  Cu11  1  0.89625500  0.99541500  0.39893800  1
  Cu  Cu12  1  0.60374500  0.49541500  0.60106200  1
  Cu  Cu13  1  0.60081850  0.49944850  0.01156200  1
  Cu  Cu14  1  0.53033900  0.99989900  0.13331800  1
  Cu  Cu15  1  0.51692850  0.99259450  0.38204900  1
  Cu  Cu16  1  0.48307150  0.99259450  0.61795100  1
  Cu  Cu17  1  0.46966100  0.99989900  0.86668200  1
  Cu  Cu18  1  0.39918150  0.49944850  0.98843800  1
  Cu  Cu19  1  0.39625500  0.49541500  0.39893800  1
  Cu  Cu20  1  0.10374500  0.99541500  0.60106200  1
  Cu  Cu21  1  0.10081850  0.99944850  0.01156200  1
  Cu  Cu22  1  0.03033900  0.49989900  0.13331800  1
  Cu  Cu23  1  0.01692850  0.49259450  0.38204900  1
  S  S24  1  0.97073900  0.99278600  0.22684300  1
  S  S25  1  0.81737600  0.49947000  0.88075400  1
  S  S26  1  0.83686600  0.49575400  0.45813000  1
  S  S27  1  0.66313400  0.99575400  0.54187000  1
  S  S28  1  0.68262400  0.99947000  0.11924600  1
  S  S29  1  0.52926100  0.49278600  0.77315700  1
  S  S30  1  0.47073900  0.49278600  0.22684300  1
  S  S31  1  0.31737600  0.99947000  0.88075400  1
  S  S32  1  0.33686600  0.99575400  0.45813000  1
  S  S33  1  0.16313400  0.49575400  0.54187000  1
  S  S34  1  0.18262400  0.49947000  0.11924600  1
  S  S35  1  0.02926100  0.99278600  0.77315700  1
