# generated using pymatgen
data_TmBO3
_symmetry_space_group_name_H-M   'P 1'
_cell_length_a   4.20752400
_cell_length_b   6.52940000
_cell_length_c   8.47066400
_cell_angle_alpha   90.00000000
_cell_angle_beta   90.00000000
_cell_angle_gamma   90.00000000
_symmetry_Int_Tables_number   1
_chemical_formula_structural   TmBO3
_chemical_formula_sum   'Tm4 B4 O12'
_cell_volume   232.71122484
_cell_formula_units_Z   4
loop_
 _symmetry_equiv_pos_site_id
 _symmetry_equiv_pos_as_xyz
  1  'x, y, z'
loop_
 _atom_site_type_symbol
 _atom_site_label
 _atom_site_symmetry_multiplicity
 _atom_site_fract_x
 _atom_site_fract_y
 _atom_site_fract_z
 _atom_site_occupancy
  Tm  Tm0  1  0.06417200  0.00000000  0.00000000  1
  Tm  Tm1  1  0.06417200  0.00000000  0.50000000  1
  Tm  Tm2  1  0.56417200  0.50000000  0.00000000  1
  Tm  Tm3  1  0.56417200  0.50000000  0.50000000  1
  B  B4  1  0.62994100  0.86590100  0.25000000  1
  B  B5  1  0.62994100  0.13409900  0.75000000  1
  B  B6  1  0.12994100  0.36590100  0.25000000  1
  B  B7  1  0.12994100  0.63409900  0.75000000  1
  O  O8  1  0.49855850  0.82763850  0.10157200  1
  O  O9  1  0.49855850  0.82763850  0.39842800  1
  O  O10  1  0.93151400  0.94684000  0.25000000  1
  O  O11  1  0.49855850  0.17236150  0.60157200  1
  O  O12  1  0.49855850  0.17236150  0.89842800  1
  O  O13  1  0.93151400  0.05316000  0.75000000  1
  O  O14  1  0.99855850  0.32763850  0.10157200  1
  O  O15  1  0.99855850  0.32763850  0.39842800  1
  O  O16  1  0.43151400  0.44684000  0.25000000  1
  O  O17  1  0.99855850  0.67236150  0.60157200  1
  O  O18  1  0.99855850  0.67236150  0.89842800  1
  O  O19  1  0.43151400  0.55316000  0.75000000  1
