# generated using pymatgen
data_Y5O4F7
_symmetry_space_group_name_H-M   'P 1'
_cell_length_a   5.61587000
_cell_length_b   28.01659000
_cell_length_c   10.95314300
_cell_angle_alpha   90.00000000
_cell_angle_beta   90.00000000
_cell_angle_gamma   90.00000000
_symmetry_Int_Tables_number   1
_chemical_formula_structural   Y5O4F7
_chemical_formula_sum   'Y40 O32 F56'
_cell_volume   1723.34043560
_cell_formula_units_Z   8
loop_
 _symmetry_equiv_pos_site_id
 _symmetry_equiv_pos_as_xyz
  1  'x, y, z'
loop_
 _atom_site_type_symbol
 _atom_site_label
 _atom_site_symmetry_multiplicity
 _atom_site_fract_x
 _atom_site_fract_y
 _atom_site_fract_z
 _atom_site_occupancy
  Y  Y0  1  0.24685700  0.54956300  0.10228500  1
  Y  Y1  1  0.25139850  0.95076950  0.10392300  1
  Y  Y2  1  0.23254200  0.74950400  0.11175100  1
  Y  Y3  1  0.80906850  0.85254350  0.10306800  1
  Y  Y4  1  0.77893500  0.64762100  0.10753300  1
  Y  Y5  1  0.27893500  0.85237900  0.89246700  1
  Y  Y6  1  0.30906850  0.64745650  0.89693200  1
  Y  Y7  1  0.73254200  0.75049600  0.88824900  1
  Y  Y8  1  0.75139850  0.54923050  0.89607700  1
  Y  Y9  1  0.74685700  0.95043700  0.89771500  1
  Y  Y10  1  0.25139850  0.54923050  0.60392300  1
  Y  Y11  1  0.24685700  0.95043700  0.60228500  1
  Y  Y12  1  0.23254200  0.75049600  0.61175100  1
  Y  Y13  1  0.77893500  0.85237900  0.60753300  1
  Y  Y14  1  0.80906850  0.64745650  0.60306800  1
  Y  Y15  1  0.30906850  0.85254350  0.39693200  1
  Y  Y16  1  0.27893500  0.64762100  0.39246700  1
  Y  Y17  1  0.73254200  0.74950400  0.38824900  1
  Y  Y18  1  0.74685700  0.54956300  0.39771500  1
  Y  Y19  1  0.75139850  0.95076950  0.39607700  1
  Y  Y20  1  0.74685700  0.04956300  0.10228500  1
  Y  Y21  1  0.75139850  0.45076950  0.10392300  1
  Y  Y22  1  0.73254200  0.24950400  0.11175100  1
  Y  Y23  1  0.30906850  0.35254350  0.10306800  1
  Y  Y24  1  0.27893500  0.14762100  0.10753300  1
  Y  Y25  1  0.77893500  0.35237900  0.89246700  1
  Y  Y26  1  0.80906850  0.14745650  0.89693200  1
  Y  Y27  1  0.23254200  0.25049600  0.88824900  1
  Y  Y28  1  0.25139850  0.04923050  0.89607700  1
  Y  Y29  1  0.24685700  0.45043700  0.89771500  1
  Y  Y30  1  0.75139850  0.04923050  0.60392300  1
  Y  Y31  1  0.74685700  0.45043700  0.60228500  1
  Y  Y32  1  0.73254200  0.25049600  0.61175100  1
  Y  Y33  1  0.27893500  0.35237900  0.60753300  1
  Y  Y34  1  0.30906850  0.14745650  0.60306800  1
  Y  Y35  1  0.80906850  0.35254350  0.39693200  1
  Y  Y36  1  0.77893500  0.14762100  0.39246700  1
  Y  Y37  1  0.23254200  0.24950400  0.38824900  1
  Y  Y38  1  0.24685700  0.04956300  0.39771500  1
  Y  Y39  1  0.25139850  0.45076950  0.39607700  1
  O  O40  1  0.53188150  0.59994650  0.01440900  1
  O  O41  1  0.52970700  0.89723300  0.01273800  1
  O  O42  1  0.51252850  0.70231950  0.01870700  1
  O  O43  1  0.48664800  0.00000000  0.00000000  1
  O  O44  1  0.98672700  0.00000000  0.00000000  1
  O  O45  1  0.01252850  0.79768050  0.98129300  1
  O  O46  1  0.02970700  0.60276700  0.98726200  1
  O  O47  1  0.03188150  0.90005350  0.98559100  1
  O  O48  1  0.53188150  0.90005350  0.51440900  1
  O  O49  1  0.52970700  0.60276700  0.51273800  1
  O  O50  1  0.51252850  0.79768050  0.51870700  1
  O  O51  1  0.48672700  0.00000000  0.50000000  1
  O  O52  1  0.98664800  0.00000000  0.50000000  1
  O  O53  1  0.01252850  0.70231950  0.48129300  1
  O  O54  1  0.03188150  0.59994650  0.48559100  1
  O  O55  1  0.02970700  0.89723300  0.48726200  1
  O  O56  1  0.03188150  0.09994650  0.01440900  1
  O  O57  1  0.02970700  0.39723300  0.01273800  1
  O  O58  1  0.01252850  0.20231950  0.01870700  1
  O  O59  1  0.98664800  0.50000000  0.00000000  1
  O  O60  1  0.48672700  0.50000000  0.00000000  1
  O  O61  1  0.51252850  0.29768050  0.98129300  1
  O  O62  1  0.52970700  0.10276700  0.98726200  1
  O  O63  1  0.53188150  0.40005350  0.98559100  1
  O  O64  1  0.03188150  0.40005350  0.51440900  1
  O  O65  1  0.02970700  0.10276700  0.51273800  1
  O  O66  1  0.01252850  0.29768050  0.51870700  1
  O  O67  1  0.98672700  0.50000000  0.50000000  1
  O  O68  1  0.48664800  0.50000000  0.50000000  1
  O  O69  1  0.51252850  0.20231950  0.48129300  1
  O  O70  1  0.53188150  0.09994650  0.48559100  1
  O  O71  1  0.52970700  0.39723300  0.48726200  1
  F  F72  1  0.09934900  0.99999400  0.25096000  1
  F  F73  1  0.59934900  0.99999400  0.24904000  1
  F  F74  1  0.90955000  0.58714700  0.22895700  1
  F  F75  1  0.91850500  0.91365300  0.22534000  1
  F  F76  1  0.14736550  0.67251050  0.19953700  1
  F  F77  1  0.16686550  0.82715850  0.20822100  1
  F  F78  1  0.86185550  0.74862150  0.19460800  1
  F  F79  1  0.51135400  0.79994800  0.02435700  1
  F  F80  1  0.01135400  0.70005200  0.97564300  1
  F  F81  1  0.36185550  0.75137850  0.80539200  1
  F  F82  1  0.66686550  0.67284150  0.79177900  1
  F  F83  1  0.64736550  0.82748950  0.80046300  1
  F  F84  1  0.41850500  0.58634700  0.77466000  1
  F  F85  1  0.40955000  0.91285300  0.77104300  1
  F  F86  1  0.59934900  0.50000600  0.74904000  1
  F  F87  1  0.09934900  0.50000600  0.75096000  1
  F  F88  1  0.90955000  0.91285300  0.72895700  1
  F  F89  1  0.91850500  0.58634700  0.72534000  1
  F  F90  1  0.16686550  0.67284150  0.70822100  1
  F  F91  1  0.14736550  0.82748950  0.69953700  1
  F  F92  1  0.86185550  0.75137850  0.69460800  1
  F  F93  1  0.51135400  0.70005200  0.52435700  1
  F  F94  1  0.01135400  0.79994800  0.47564300  1
  F  F95  1  0.36185550  0.74862150  0.30539200  1
  F  F96  1  0.64736550  0.67251050  0.30046300  1
  F  F97  1  0.66686550  0.82715850  0.29177900  1
  F  F98  1  0.41850500  0.91365300  0.27466000  1
  F  F99  1  0.40955000  0.58714700  0.27104300  1
  F  F100  1  0.59934900  0.49999400  0.25096000  1
  F  F101  1  0.09934900  0.49999400  0.24904000  1
  F  F102  1  0.40955000  0.08714700  0.22895700  1
  F  F103  1  0.41850500  0.41365300  0.22534000  1
  F  F104  1  0.64736550  0.17251050  0.19953700  1
  F  F105  1  0.66686550  0.32715850  0.20822100  1
  F  F106  1  0.36185550  0.24862150  0.19460800  1
  F  F107  1  0.01135400  0.29994800  0.02435700  1
  F  F108  1  0.51135400  0.20005200  0.97564300  1
  F  F109  1  0.86185550  0.25137850  0.80539200  1
  F  F110  1  0.16686550  0.17284150  0.79177900  1
  F  F111  1  0.14736550  0.32748950  0.80046300  1
  F  F112  1  0.91850500  0.08634700  0.77466000  1
  F  F113  1  0.90955000  0.41285300  0.77104300  1
  F  F114  1  0.09934900  0.00000600  0.74904000  1
  F  F115  1  0.59934900  0.00000600  0.75096000  1
  F  F116  1  0.40955000  0.41285300  0.72895700  1
  F  F117  1  0.41850500  0.08634700  0.72534000  1
  F  F118  1  0.66686550  0.17284150  0.70822100  1
  F  F119  1  0.64736550  0.32748950  0.69953700  1
  F  F120  1  0.36185550  0.25137850  0.69460800  1
  F  F121  1  0.01135400  0.20005200  0.52435700  1
  F  F122  1  0.51135400  0.29994800  0.47564300  1
  F  F123  1  0.86185550  0.24862150  0.30539200  1
  F  F124  1  0.14736550  0.17251050  0.30046300  1
  F  F125  1  0.16686550  0.32715850  0.29177900  1
  F  F126  1  0.91850500  0.41365300  0.27466000  1
  F  F127  1  0.90955000  0.08714700  0.27104300  1
