# generated using pymatgen
data_SiS2
_symmetry_space_group_name_H-M   'P 1'
_cell_length_a   5.65046600
_cell_length_b   5.65046600
_cell_length_c   8.70355200
_cell_angle_alpha   90.00000000
_cell_angle_beta   90.00000000
_cell_angle_gamma   90.00000000
_symmetry_Int_Tables_number   1
_chemical_formula_structural   SiS2
_chemical_formula_sum   'Si4 S8'
_cell_volume   277.88497177
_cell_formula_units_Z   4
loop_
 _symmetry_equiv_pos_site_id
 _symmetry_equiv_pos_as_xyz
  1  'x, y, z'
loop_
 _atom_site_type_symbol
 _atom_site_label
 _atom_site_symmetry_multiplicity
 _atom_site_fract_x
 _atom_site_fract_y
 _atom_site_fract_z
 _atom_site_occupancy
  Si  Si0  1  0.00000000  0.00000000  0.00000000  1
  Si  Si1  1  0.00000000  0.50000000  0.25000000  1
  Si  Si2  1  0.50000000  0.50000000  0.50000000  1
  Si  Si3  1  0.50000000  0.00000000  0.75000000  1
  S  S4  1  0.21328200  0.25000000  0.12500000  1
  S  S5  1  0.75000000  0.28671800  0.37500000  1
  S  S6  1  0.25000000  0.71328200  0.37500000  1
  S  S7  1  0.78671800  0.75000000  0.12500000  1
  S  S8  1  0.71328200  0.75000000  0.62500000  1
  S  S9  1  0.25000000  0.78671800  0.87500000  1
  S  S10  1  0.75000000  0.21328200  0.87500000  1
  S  S11  1  0.28671800  0.25000000  0.62500000  1
