# generated using pymatgen
data_Li6Sn2B4SO16
_symmetry_space_group_name_H-M   'P 1'
_cell_length_a   13.52945200
_cell_length_b   13.52945200
_cell_length_c   13.52945200
_cell_angle_alpha   90.00000000
_cell_angle_beta   90.00000000
_cell_angle_gamma   90.00000000
_symmetry_Int_Tables_number   1
_chemical_formula_structural   Li6Sn2B4SO16
_chemical_formula_sum   'Li48 Sn16 B32 S8 O128'
_cell_volume   2476.51303707
_cell_formula_units_Z   8
loop_
 _symmetry_equiv_pos_site_id
 _symmetry_equiv_pos_as_xyz
  1  'x, y, z'
loop_
 _atom_site_type_symbol
 _atom_site_label
 _atom_site_symmetry_multiplicity
 _atom_site_fract_x
 _atom_site_fract_y
 _atom_site_fract_z
 _atom_site_occupancy
  Li  Li0  1  0.25000000  0.03340100  0.75000000  1
  Li  Li1  1  0.96659900  0.75000000  0.75000000  1
  Li  Li2  1  0.25000000  0.75000000  0.03340100  1
  Li  Li3  1  0.25000000  0.75000000  0.46659900  1
  Li  Li4  1  0.00000000  0.78340100  0.50000000  1
  Li  Li5  1  0.21659900  0.00000000  0.50000000  1
  Li  Li6  1  0.53340100  0.75000000  0.75000000  1
  Li  Li7  1  0.75000000  0.96659900  0.75000000  1
  Li  Li8  1  0.00000000  0.00000000  0.28340100  1
  Li  Li9  1  0.00000000  0.00000000  0.71659900  1
  Li  Li10  1  0.00000000  0.21659900  0.50000000  1
  Li  Li11  1  0.78340100  0.00000000  0.50000000  1
  Li  Li12  1  0.25000000  0.53340100  0.25000000  1
  Li  Li13  1  0.96659900  0.25000000  0.25000000  1
  Li  Li14  1  0.25000000  0.25000000  0.53340100  1
  Li  Li15  1  0.25000000  0.25000000  0.96659900  1
  Li  Li16  1  0.00000000  0.28340100  0.00000000  1
  Li  Li17  1  0.21659900  0.50000000  0.00000000  1
  Li  Li18  1  0.53340100  0.25000000  0.25000000  1
  Li  Li19  1  0.75000000  0.46659900  0.25000000  1
  Li  Li20  1  0.00000000  0.50000000  0.78340100  1
  Li  Li21  1  0.00000000  0.50000000  0.21659900  1
  Li  Li22  1  0.00000000  0.71659900  0.00000000  1
  Li  Li23  1  0.78340100  0.50000000  0.00000000  1
  Li  Li24  1  0.75000000  0.03340100  0.25000000  1
  Li  Li25  1  0.46659900  0.75000000  0.25000000  1
  Li  Li26  1  0.75000000  0.75000000  0.53340100  1
  Li  Li27  1  0.75000000  0.75000000  0.96659900  1
  Li  Li28  1  0.50000000  0.78340100  0.00000000  1
  Li  Li29  1  0.71659900  0.00000000  0.00000000  1
  Li  Li30  1  0.03340100  0.75000000  0.25000000  1
  Li  Li31  1  0.25000000  0.96659900  0.25000000  1
  Li  Li32  1  0.50000000  0.00000000  0.78340100  1
  Li  Li33  1  0.50000000  0.00000000  0.21659900  1
  Li  Li34  1  0.50000000  0.21659900  0.00000000  1
  Li  Li35  1  0.28340100  0.00000000  0.00000000  1
  Li  Li36  1  0.75000000  0.53340100  0.75000000  1
  Li  Li37  1  0.46659900  0.25000000  0.75000000  1
  Li  Li38  1  0.75000000  0.25000000  0.03340100  1
  Li  Li39  1  0.75000000  0.25000000  0.46659900  1
  Li  Li40  1  0.50000000  0.28340100  0.50000000  1
  Li  Li41  1  0.71659900  0.50000000  0.50000000  1
  Li  Li42  1  0.03340100  0.25000000  0.75000000  1
  Li  Li43  1  0.25000000  0.46659900  0.75000000  1
  Li  Li44  1  0.50000000  0.50000000  0.28340100  1
  Li  Li45  1  0.50000000  0.50000000  0.71659900  1
  Li  Li46  1  0.50000000  0.71659900  0.50000000  1
  Li  Li47  1  0.28340100  0.50000000  0.50000000  1
  Sn  Sn48  1  0.12500000  0.87500000  0.87500000  1
  Sn  Sn49  1  0.62500000  0.12500000  0.62500000  1
  Sn  Sn50  1  0.37500000  0.87500000  0.62500000  1
  Sn  Sn51  1  0.87500000  0.12500000  0.87500000  1
  Sn  Sn52  1  0.12500000  0.37500000  0.37500000  1
  Sn  Sn53  1  0.62500000  0.62500000  0.12500000  1
  Sn  Sn54  1  0.37500000  0.37500000  0.12500000  1
  Sn  Sn55  1  0.87500000  0.62500000  0.37500000  1
  Sn  Sn56  1  0.62500000  0.87500000  0.37500000  1
  Sn  Sn57  1  0.12500000  0.12500000  0.12500000  1
  Sn  Sn58  1  0.87500000  0.87500000  0.12500000  1
  Sn  Sn59  1  0.37500000  0.12500000  0.37500000  1
  Sn  Sn60  1  0.62500000  0.37500000  0.87500000  1
  Sn  Sn61  1  0.12500000  0.62500000  0.62500000  1
  Sn  Sn62  1  0.87500000  0.37500000  0.62500000  1
  Sn  Sn63  1  0.37500000  0.62500000  0.87500000  1
  B  B64  1  0.15312300  0.84687700  0.65312300  1
  B  B65  1  0.65312300  0.15312300  0.84687700  1
  B  B66  1  0.34687700  0.84687700  0.84687700  1
  B  B67  1  0.84687700  0.15312300  0.65312300  1
  B  B68  1  0.90312300  0.09687700  0.09687700  1
  B  B69  1  0.90312300  0.90312300  0.90312300  1
  B  B70  1  0.09687700  0.09687700  0.90312300  1
  B  B71  1  0.09687700  0.90312300  0.09687700  1
  B  B72  1  0.15312300  0.34687700  0.15312300  1
  B  B73  1  0.65312300  0.65312300  0.34687700  1
  B  B74  1  0.34687700  0.34687700  0.34687700  1
  B  B75  1  0.84687700  0.65312300  0.15312300  1
  B  B76  1  0.90312300  0.59687700  0.59687700  1
  B  B77  1  0.90312300  0.40312300  0.40312300  1
  B  B78  1  0.09687700  0.59687700  0.40312300  1
  B  B79  1  0.09687700  0.40312300  0.59687700  1
  B  B80  1  0.65312300  0.84687700  0.15312300  1
  B  B81  1  0.15312300  0.15312300  0.34687700  1
  B  B82  1  0.84687700  0.84687700  0.34687700  1
  B  B83  1  0.34687700  0.15312300  0.15312300  1
  B  B84  1  0.40312300  0.09687700  0.59687700  1
  B  B85  1  0.40312300  0.90312300  0.40312300  1
  B  B86  1  0.59687700  0.09687700  0.40312300  1
  B  B87  1  0.59687700  0.90312300  0.59687700  1
  B  B88  1  0.65312300  0.34687700  0.65312300  1
  B  B89  1  0.15312300  0.65312300  0.84687700  1
  B  B90  1  0.84687700  0.34687700  0.84687700  1
  B  B91  1  0.34687700  0.65312300  0.65312300  1
  B  B92  1  0.40312300  0.59687700  0.09687700  1
  B  B93  1  0.40312300  0.40312300  0.90312300  1
  B  B94  1  0.59687700  0.59687700  0.90312300  1
  B  B95  1  0.59687700  0.40312300  0.09687700  1
  S  S96  1  0.00000000  0.00000000  0.50000000  1
  S  S97  1  0.75000000  0.75000000  0.75000000  1
  S  S98  1  0.00000000  0.50000000  0.00000000  1
  S  S99  1  0.75000000  0.25000000  0.25000000  1
  S  S100  1  0.50000000  0.00000000  0.00000000  1
  S  S101  1  0.25000000  0.75000000  0.25000000  1
  S  S102  1  0.50000000  0.50000000  0.50000000  1
  S  S103  1  0.25000000  0.25000000  0.75000000  1
  O  O104  1  0.93604000  0.06396000  0.43604000  1
  O  O105  1  0.06396000  0.06396000  0.56396000  1
  O  O106  1  0.93604000  0.93604000  0.56396000  1
  O  O107  1  0.06396000  0.93604000  0.43604000  1
  O  O108  1  0.14846600  0.91661250  0.72780950  1
  O  O109  1  0.08338750  0.77219050  0.64846600  1
  O  O110  1  0.58338750  0.22780950  0.85153400  1
  O  O111  1  0.22780950  0.85153400  0.58338750  1
  O  O112  1  0.27219050  0.85153400  0.91661250  1
  O  O113  1  0.35153400  0.91661250  0.77219050  1
  O  O114  1  0.64846600  0.08338750  0.77219050  1
  O  O115  1  0.72780950  0.14846600  0.91661250  1
  O  O116  1  0.77219050  0.14846600  0.58338750  1
  O  O117  1  0.41661250  0.77219050  0.85153400  1
  O  O118  1  0.91661250  0.22780950  0.64846600  1
  O  O119  1  0.89846600  0.16661250  0.02219050  1
  O  O120  1  0.85153400  0.08338750  0.72780950  1
  O  O121  1  0.83338750  0.02219050  0.10153400  1
  O  O122  1  0.83338750  0.97780950  0.89846600  1
  O  O123  1  0.97780950  0.10153400  0.16661250  1
  O  O124  1  0.02219050  0.10153400  0.83338750  1
  O  O125  1  0.10153400  0.16661250  0.97780950  1
  O  O126  1  0.89846600  0.83338750  0.97780950  1
  O  O127  1  0.97780950  0.89846600  0.83338750  1
  O  O128  1  0.02219050  0.89846600  0.16661250  1
  O  O129  1  0.16661250  0.02219050  0.89846600  1
  O  O130  1  0.16661250  0.97780950  0.10153400  1
  O  O131  1  0.10153400  0.83338750  0.02219050  1
  O  O132  1  0.18604000  0.81396000  0.31396000  1
  O  O133  1  0.18604000  0.18604000  0.68604000  1
  O  O134  1  0.81396000  0.81396000  0.68604000  1
  O  O135  1  0.81396000  0.18604000  0.31396000  1
  O  O136  1  0.93604000  0.56396000  0.93604000  1
  O  O137  1  0.06396000  0.56396000  0.06396000  1
  O  O138  1  0.93604000  0.43604000  0.06396000  1
  O  O139  1  0.06396000  0.43604000  0.93604000  1
  O  O140  1  0.14846600  0.41661250  0.22780950  1
  O  O141  1  0.08338750  0.27219050  0.14846600  1
  O  O142  1  0.58338750  0.72780950  0.35153400  1
  O  O143  1  0.22780950  0.35153400  0.08338750  1
  O  O144  1  0.27219050  0.35153400  0.41661250  1
  O  O145  1  0.35153400  0.41661250  0.27219050  1
  O  O146  1  0.64846600  0.58338750  0.27219050  1
  O  O147  1  0.72780950  0.64846600  0.41661250  1
  O  O148  1  0.77219050  0.64846600  0.08338750  1
  O  O149  1  0.41661250  0.27219050  0.35153400  1
  O  O150  1  0.91661250  0.72780950  0.14846600  1
  O  O151  1  0.89846600  0.66661250  0.52219050  1
  O  O152  1  0.85153400  0.58338750  0.22780950  1
  O  O153  1  0.83338750  0.52219050  0.60153400  1
  O  O154  1  0.83338750  0.47780950  0.39846600  1
  O  O155  1  0.97780950  0.60153400  0.66661250  1
  O  O156  1  0.02219050  0.60153400  0.33338750  1
  O  O157  1  0.10153400  0.66661250  0.47780950  1
  O  O158  1  0.89846600  0.33338750  0.47780950  1
  O  O159  1  0.97780950  0.39846600  0.33338750  1
  O  O160  1  0.02219050  0.39846600  0.66661250  1
  O  O161  1  0.16661250  0.52219050  0.39846600  1
  O  O162  1  0.16661250  0.47780950  0.60153400  1
  O  O163  1  0.10153400  0.33338750  0.52219050  1
  O  O164  1  0.18604000  0.31396000  0.81396000  1
  O  O165  1  0.18604000  0.68604000  0.18604000  1
  O  O166  1  0.81396000  0.31396000  0.18604000  1
  O  O167  1  0.81396000  0.68604000  0.81396000  1
  O  O168  1  0.43604000  0.06396000  0.93604000  1
  O  O169  1  0.56396000  0.06396000  0.06396000  1
  O  O170  1  0.43604000  0.93604000  0.06396000  1
  O  O171  1  0.56396000  0.93604000  0.93604000  1
  O  O172  1  0.64846600  0.91661250  0.22780950  1
  O  O173  1  0.58338750  0.77219050  0.14846600  1
  O  O174  1  0.08338750  0.22780950  0.35153400  1
  O  O175  1  0.72780950  0.85153400  0.08338750  1
  O  O176  1  0.77219050  0.85153400  0.41661250  1
  O  O177  1  0.85153400  0.91661250  0.27219050  1
  O  O178  1  0.14846600  0.08338750  0.27219050  1
  O  O179  1  0.22780950  0.14846600  0.41661250  1
  O  O180  1  0.27219050  0.14846600  0.08338750  1
  O  O181  1  0.91661250  0.77219050  0.35153400  1
  O  O182  1  0.41661250  0.22780950  0.14846600  1
  O  O183  1  0.39846600  0.16661250  0.52219050  1
  O  O184  1  0.35153400  0.08338750  0.22780950  1
  O  O185  1  0.33338750  0.02219050  0.60153400  1
  O  O186  1  0.33338750  0.97780950  0.39846600  1
  O  O187  1  0.47780950  0.10153400  0.66661250  1
  O  O188  1  0.52219050  0.10153400  0.33338750  1
  O  O189  1  0.60153400  0.16661250  0.47780950  1
  O  O190  1  0.39846600  0.83338750  0.47780950  1
  O  O191  1  0.47780950  0.89846600  0.33338750  1
  O  O192  1  0.52219050  0.89846600  0.66661250  1
  O  O193  1  0.66661250  0.02219050  0.39846600  1
  O  O194  1  0.66661250  0.97780950  0.60153400  1
  O  O195  1  0.60153400  0.83338750  0.52219050  1
  O  O196  1  0.68604000  0.81396000  0.81396000  1
  O  O197  1  0.68604000  0.18604000  0.18604000  1
  O  O198  1  0.31396000  0.81396000  0.18604000  1
  O  O199  1  0.31396000  0.18604000  0.81396000  1
  O  O200  1  0.43604000  0.56396000  0.43604000  1
  O  O201  1  0.56396000  0.56396000  0.56396000  1
  O  O202  1  0.43604000  0.43604000  0.56396000  1
  O  O203  1  0.56396000  0.43604000  0.43604000  1
  O  O204  1  0.64846600  0.41661250  0.72780950  1
  O  O205  1  0.58338750  0.27219050  0.64846600  1
  O  O206  1  0.08338750  0.72780950  0.85153400  1
  O  O207  1  0.72780950  0.35153400  0.58338750  1
  O  O208  1  0.77219050  0.35153400  0.91661250  1
  O  O209  1  0.85153400  0.41661250  0.77219050  1
  O  O210  1  0.14846600  0.58338750  0.77219050  1
  O  O211  1  0.22780950  0.64846600  0.91661250  1
  O  O212  1  0.27219050  0.64846600  0.58338750  1
  O  O213  1  0.91661250  0.27219050  0.85153400  1
  O  O214  1  0.41661250  0.72780950  0.64846600  1
  O  O215  1  0.39846600  0.66661250  0.02219050  1
  O  O216  1  0.35153400  0.58338750  0.72780950  1
  O  O217  1  0.33338750  0.52219050  0.10153400  1
  O  O218  1  0.33338750  0.47780950  0.89846600  1
  O  O219  1  0.47780950  0.60153400  0.16661250  1
  O  O220  1  0.52219050  0.60153400  0.83338750  1
  O  O221  1  0.60153400  0.66661250  0.97780950  1
  O  O222  1  0.39846600  0.33338750  0.97780950  1
  O  O223  1  0.47780950  0.39846600  0.83338750  1
  O  O224  1  0.52219050  0.39846600  0.16661250  1
  O  O225  1  0.66661250  0.52219050  0.89846600  1
  O  O226  1  0.66661250  0.47780950  0.10153400  1
  O  O227  1  0.60153400  0.33338750  0.02219050  1
  O  O228  1  0.68604000  0.31396000  0.31396000  1
  O  O229  1  0.68604000  0.68604000  0.68604000  1
  O  O230  1  0.31396000  0.31396000  0.68604000  1
  O  O231  1  0.31396000  0.68604000  0.31396000  1
