# generated using pymatgen
data_Ba3Sn2O7
_symmetry_space_group_name_H-M   'P 1'
_cell_length_a   5.95192200
_cell_length_b   21.75313200
_cell_length_c   5.94049600
_cell_angle_alpha   90.00000000
_cell_angle_beta   90.00000000
_cell_angle_gamma   90.00000000
_symmetry_Int_Tables_number   1
_chemical_formula_structural   Ba3Sn2O7
_chemical_formula_sum   'Ba12 Sn8 O28'
_cell_volume   769.13351140
_cell_formula_units_Z   4
loop_
 _symmetry_equiv_pos_site_id
 _symmetry_equiv_pos_as_xyz
  1  'x, y, z'
loop_
 _atom_site_type_symbol
 _atom_site_label
 _atom_site_symmetry_multiplicity
 _atom_site_fract_x
 _atom_site_fract_y
 _atom_site_fract_z
 _atom_site_occupancy
  Ba  Ba0  1  0.75299500  0.18491700  0.75000000  1
  Ba  Ba1  1  0.24700500  0.18491700  0.25000000  1
  Ba  Ba2  1  0.74700500  0.31508300  0.25000000  1
  Ba  Ba3  1  0.25299500  0.31508300  0.75000000  1
  Ba  Ba4  1  0.25111300  0.00000000  0.25000000  1
  Ba  Ba5  1  0.74888700  0.00000000  0.75000000  1
  Ba  Ba6  1  0.25299500  0.68491700  0.75000000  1
  Ba  Ba7  1  0.74700500  0.68491700  0.25000000  1
  Ba  Ba8  1  0.24700500  0.81508300  0.25000000  1
  Ba  Ba9  1  0.75299500  0.81508300  0.75000000  1
  Ba  Ba10  1  0.75111300  0.50000000  0.25000000  1
  Ba  Ba11  1  0.24888700  0.50000000  0.75000000  1
  Sn  Sn12  1  0.75011650  0.09626850  0.25000000  1
  Sn  Sn13  1  0.24988350  0.09626850  0.75000000  1
  Sn  Sn14  1  0.74988350  0.40373150  0.75000000  1
  Sn  Sn15  1  0.25011650  0.40373150  0.25000000  1
  Sn  Sn16  1  0.25011650  0.59626850  0.25000000  1
  Sn  Sn17  1  0.74988350  0.59626850  0.75000000  1
  Sn  Sn18  1  0.24988350  0.90373150  0.75000000  1
  Sn  Sn19  1  0.75011650  0.90373150  0.25000000  1
  O  O20  1  0.00000000  0.09155400  0.00000000  1
  O  O21  1  0.00000000  0.09155400  0.50000000  1
  O  O22  1  0.50000000  0.09921500  0.50000000  1
  O  O23  1  0.50000000  0.09921500  0.00000000  1
  O  O24  1  0.76605000  0.19181000  0.25000000  1
  O  O25  1  0.23395000  0.19181000  0.75000000  1
  O  O26  1  0.26605000  0.30819000  0.25000000  1
  O  O27  1  0.73395000  0.30819000  0.75000000  1
  O  O28  1  0.00000000  0.40078500  0.00000000  1
  O  O29  1  0.00000000  0.40078500  0.50000000  1
  O  O30  1  0.50000000  0.40844600  0.50000000  1
  O  O31  1  0.50000000  0.40844600  0.00000000  1
  O  O32  1  0.27263100  0.00000000  0.75000000  1
  O  O33  1  0.72736900  0.00000000  0.25000000  1
  O  O34  1  0.50000000  0.59155400  0.00000000  1
  O  O35  1  0.50000000  0.59155400  0.50000000  1
  O  O36  1  0.00000000  0.59921500  0.50000000  1
  O  O37  1  0.00000000  0.59921500  0.00000000  1
  O  O38  1  0.26605000  0.69181000  0.25000000  1
  O  O39  1  0.73395000  0.69181000  0.75000000  1
  O  O40  1  0.76605000  0.80819000  0.25000000  1
  O  O41  1  0.23395000  0.80819000  0.75000000  1
  O  O42  1  0.50000000  0.90078500  0.00000000  1
  O  O43  1  0.50000000  0.90078500  0.50000000  1
  O  O44  1  0.00000000  0.90844600  0.50000000  1
  O  O45  1  0.00000000  0.90844600  0.00000000  1
  O  O46  1  0.77263100  0.50000000  0.75000000  1
  O  O47  1  0.22736900  0.50000000  0.25000000  1
