# generated using pymatgen
data_LiCuCO3
_symmetry_space_group_name_H-M   'P 1'
_cell_length_a   5.03701553
_cell_length_b   5.10451099
_cell_length_c   6.45094623
_cell_angle_alpha   111.29094576
_cell_angle_beta   90.26212578
_cell_angle_gamma   118.59431864
_symmetry_Int_Tables_number   1
_chemical_formula_structural   LiCuCO3
_chemical_formula_sum   'Li2 Cu2 C2 O6'
_cell_volume   132.42951495
_cell_formula_units_Z   2
loop_
 _symmetry_equiv_pos_site_id
 _symmetry_equiv_pos_as_xyz
  1  'x, y, z'
loop_
 _atom_site_type_symbol
 _atom_site_label
 _atom_site_symmetry_multiplicity
 _atom_site_fract_x
 _atom_site_fract_y
 _atom_site_fract_z
 _atom_site_occupancy
  Li  Li0  1  0.24415130  0.63506113  0.66864888  1
  Li  Li1  1  0.75584870  0.36493887  0.33135112  1
  Cu  Cu2  1  0.60127409  0.26122085  0.77197504  1
  Cu  Cu3  1  0.39872591  0.73877915  0.22802496  1
  C  C4  1  0.93485901  0.93213062  0.74020004  1
  C  C5  1  0.06514099  0.06786938  0.25979996  1
  O  O6  1  0.67627554  0.69027614  0.73907391  1
  O  O7  1  0.19464915  0.90186065  0.78590767  1
  O  O8  1  0.93028834  0.20612484  0.69194720  1
  O  O9  1  0.06971166  0.79387516  0.30805280  1
  O  O10  1  0.80535085  0.09813935  0.21409233  1
  O  O11  1  0.32372446  0.30972386  0.26092609  1
