# generated using pymatgen
data_Li2Mn3NiO8
_symmetry_space_group_name_H-M   'P 1'
_cell_length_a   5.82149386
_cell_length_b   5.82149386
_cell_length_c   14.55752898
_cell_angle_alpha   90.00000000
_cell_angle_beta   90.00000000
_cell_angle_gamma   120.00000000
_symmetry_Int_Tables_number   1
_chemical_formula_structural   Li2Mn3NiO8
_chemical_formula_sum   'Li6 Mn9 Ni3 O24'
_cell_volume   427.25502771
_cell_formula_units_Z   3
loop_
 _symmetry_equiv_pos_site_id
 _symmetry_equiv_pos_as_xyz
  1  'x, y, z'
loop_
 _atom_site_type_symbol
 _atom_site_label
 _atom_site_symmetry_multiplicity
 _atom_site_fract_x
 _atom_site_fract_y
 _atom_site_fract_z
 _atom_site_occupancy
  Li  Li0  1  0.66666667  0.33333333  0.21652633  1
  Li  Li1  1  0.33333333  0.66666667  0.16751867  1
  Li  Li2  1  0.33333333  0.66666667  0.54985967  1
  Li  Li3  1  0.00000000  0.00000000  0.50085200  1
  Li  Li4  1  0.00000000  0.00000000  0.88319300  1
  Li  Li5  1  0.66666667  0.33333333  0.83418533  1
  Mn  Mn6  1  0.16856633  0.83143367  0.33230967  1
  Mn  Mn7  1  0.16856633  0.33713267  0.33230967  1
  Mn  Mn8  1  0.66286733  0.83143367  0.33230967  1
  Mn  Mn9  1  0.83523300  0.16476700  0.66564300  1
  Mn  Mn10  1  0.83523300  0.67046600  0.66564300  1
  Mn  Mn11  1  0.32953400  0.16476700  0.66564300  1
  Mn  Mn12  1  0.50189967  0.49810033  0.99897633  1
  Mn  Mn13  1  0.50189967  0.00379933  0.99897633  1
  Mn  Mn14  1  0.99620067  0.49810033  0.99897633  1
  Ni  Ni15  1  0.00000000  0.00000000  0.11600800  1
  Ni  Ni16  1  0.66666667  0.33333333  0.44934133  1
  Ni  Ni17  1  0.33333333  0.66666667  0.78267467  1
  O  O18  1  0.66666667  0.33333333  0.07071433  1
  O  O19  1  0.02780933  0.51390467  0.26239767  1
  O  O20  1  0.48609533  0.97219067  0.26239767  1
  O  O21  1  0.48609533  0.51390467  0.26239767  1
  O  O22  1  0.18019300  0.81980700  0.07229200  1
  O  O23  1  0.18019300  0.36038600  0.07229200  1
  O  O24  1  0.63961400  0.81980700  0.07229200  1
  O  O25  1  0.00000000  0.00000000  0.26156800  1
  O  O26  1  0.33333333  0.66666667  0.40404767  1
  O  O27  1  0.69447600  0.84723800  0.59573100  1
  O  O28  1  0.15276200  0.30552400  0.59573100  1
  O  O29  1  0.15276200  0.84723800  0.59573100  1
  O  O30  1  0.84685967  0.15314033  0.40562533  1
  O  O31  1  0.84685967  0.69371933  0.40562533  1
  O  O32  1  0.30628067  0.15314033  0.40562533  1
  O  O33  1  0.66666667  0.33333333  0.59490133  1
  O  O34  1  0.00000000  0.00000000  0.73738100  1
  O  O35  1  0.36114267  0.18057133  0.92906433  1
  O  O36  1  0.81942867  0.63885733  0.92906433  1
  O  O37  1  0.81942867  0.18057133  0.92906433  1
  O  O38  1  0.51352633  0.48647367  0.73895867  1
  O  O39  1  0.51352633  0.02705267  0.73895867  1
  O  O40  1  0.97294733  0.48647367  0.73895867  1
  O  O41  1  0.33333333  0.66666667  0.92823467  1
