# generated using pymatgen
data_SrP2(H2O3)3
_symmetry_space_group_name_H-M   'P 1'
_cell_length_a   6.73556600
_cell_length_b   7.37824734
_cell_length_c   8.67295359
_cell_angle_alpha   102.03279142
_cell_angle_beta   110.00499275
_cell_angle_gamma   95.92784181
_symmetry_Int_Tables_number   1
_chemical_formula_structural   SrP2(H2O3)3
_chemical_formula_sum   'Sr2 P4 H12 O18'
_cell_volume   388.89790181
_cell_formula_units_Z   2
loop_
 _symmetry_equiv_pos_site_id
 _symmetry_equiv_pos_as_xyz
  1  'x, y, z'
loop_
 _atom_site_type_symbol
 _atom_site_label
 _atom_site_symmetry_multiplicity
 _atom_site_fract_x
 _atom_site_fract_y
 _atom_site_fract_z
 _atom_site_occupancy
  Sr  Sr0  1  0.39862500  0.74873700  0.30887900  1
  Sr  Sr1  1  0.60137500  0.25126300  0.69112100  1
  P  P2  1  0.76183000  0.80129700  0.76141000  1
  P  P3  1  0.23817000  0.19870300  0.23859000  1
  P  P4  1  0.15732700  0.09463600  0.87242800  1
  P  P5  1  0.84267300  0.90536400  0.12757200  1
  H  H6  1  0.27793500  0.47640800  0.74426900  1
  H  H7  1  0.72206500  0.52359200  0.25573100  1
  H  H8  1  0.24929200  0.51350400  0.56751400  1
  H  H9  1  0.75070800  0.48649600  0.43248600  1
  H  H10  1  0.18378900  0.67774700  0.91941200  1
  H  H11  1  0.81621100  0.32225300  0.08058800  1
  H  H12  1  0.16710000  0.46829400  0.93720400  1
  H  H13  1  0.83290000  0.53170600  0.06279600  1
  H  H14  1  0.97515500  0.28856700  0.53633000  1
  H  H15  1  0.02484500  0.71143300  0.46367000  1
  H  H16  1  0.22603200  0.85773200  0.60945200  1
  H  H17  1  0.77396800  0.14226800  0.39054800  1
  O  O18  1  0.97996800  0.11940200  0.17528300  1
  O  O19  1  0.02003200  0.88059800  0.82471700  1
  O  O20  1  0.29483800  0.11700100  0.07227400  1
  O  O21  1  0.70516200  0.88299900  0.92772600  1
  O  O22  1  0.26256100  0.40830200  0.27649600  1
  O  O23  1  0.73743900  0.59169800  0.72350400  1
  O  O24  1  0.35806600  0.10520800  0.37080000  1
  O  O25  1  0.64193400  0.89479200  0.62920000  1
  O  O26  1  0.99022100  0.76462100  0.14395100  1
  O  O27  1  0.00977900  0.23537900  0.85604900  1
  O  O28  1  0.69194300  0.91794500  0.22032500  1
  O  O29  1  0.30805700  0.08205500  0.77967500  1
  O  O30  1  0.26069500  0.41201800  0.62705700  1
  O  O31  1  0.73930500  0.58798200  0.37294300  1
  O  O32  1  0.27031900  0.58817800  0.96400000  1
  O  O33  1  0.72968100  0.41182200  0.03600000  1
  O  O34  1  0.18426500  0.74456800  0.51241700  1
  O  O35  1  0.81573500  0.25543200  0.48758300  1
