# generated using pymatgen
data_Li4Fe3TeO8
_symmetry_space_group_name_H-M   'P 1'
_cell_length_a   10.57536200
_cell_length_b   6.12415600
_cell_length_c   6.15205142
_cell_angle_alpha   90.00000000
_cell_angle_beta   124.14618282
_cell_angle_gamma   90.00000000
_symmetry_Int_Tables_number   1
_chemical_formula_structural   Li4Fe3TeO8
_chemical_formula_sum   'Li8 Fe6 Te2 O16'
_cell_volume   329.75106879
_cell_formula_units_Z   2
loop_
 _symmetry_equiv_pos_site_id
 _symmetry_equiv_pos_as_xyz
  1  'x, y, z'
loop_
 _atom_site_type_symbol
 _atom_site_label
 _atom_site_symmetry_multiplicity
 _atom_site_fract_x
 _atom_site_fract_y
 _atom_site_fract_z
 _atom_site_occupancy
  Li  Li0  1  0.50000000  0.00000000  0.50000000  1
  Li  Li1  1  0.25000000  0.25000000  0.00000000  1
  Li  Li2  1  0.25000000  0.75000000  0.00000000  1
  Li  Li3  1  0.00000000  0.00000000  0.50000000  1
  Li  Li4  1  0.00000000  0.50000000  0.50000000  1
  Li  Li5  1  0.75000000  0.75000000  0.00000000  1
  Li  Li6  1  0.75000000  0.25000000  0.00000000  1
  Li  Li7  1  0.50000000  0.50000000  0.50000000  1
  Fe  Fe8  1  0.25000000  0.75000000  0.50000000  1
  Fe  Fe9  1  0.25000000  0.25000000  0.50000000  1
  Fe  Fe10  1  0.50000000  0.00000000  0.00000000  1
  Fe  Fe11  1  0.75000000  0.25000000  0.50000000  1
  Fe  Fe12  1  0.75000000  0.75000000  0.50000000  1
  Fe  Fe13  1  0.00000000  0.50000000  0.00000000  1
  Te  Te14  1  0.00000000  0.00000000  0.00000000  1
  Te  Te15  1  0.50000000  0.50000000  0.00000000  1
  O  O16  1  0.74910300  0.00000000  0.27528500  1
  O  O17  1  0.48918000  0.24886500  0.74081900  1
  O  O18  1  0.48918000  0.75113500  0.74081900  1
  O  O19  1  0.25089700  0.00000000  0.72471500  1
  O  O20  1  0.24952000  0.00000000  0.26311400  1
  O  O21  1  0.51082000  0.75113500  0.25918100  1
  O  O22  1  0.51082000  0.24886500  0.25918100  1
  O  O23  1  0.75048000  0.00000000  0.73688600  1
  O  O24  1  0.24910300  0.50000000  0.27528500  1
  O  O25  1  0.98918000  0.74886500  0.74081900  1
  O  O26  1  0.98918000  0.25113500  0.74081900  1
  O  O27  1  0.75089700  0.50000000  0.72471500  1
  O  O28  1  0.74952000  0.50000000  0.26311400  1
  O  O29  1  0.01082000  0.25113500  0.25918100  1
  O  O30  1  0.01082000  0.74886500  0.25918100  1
  O  O31  1  0.25048000  0.50000000  0.73688600  1
