# generated using pymatgen
data_Li2Mn3O6
_symmetry_space_group_name_H-M   'P 1'
_cell_length_a   5.39271030
_cell_length_b   8.60989216
_cell_length_c   5.29363783
_cell_angle_alpha   90.00000000
_cell_angle_beta   112.24942067
_cell_angle_gamma   90.00000000
_symmetry_Int_Tables_number   1
_chemical_formula_structural   Li2Mn3O6
_chemical_formula_sum   'Li4 Mn6 O12'
_cell_volume   227.48682688
_cell_formula_units_Z   2
loop_
 _symmetry_equiv_pos_site_id
 _symmetry_equiv_pos_as_xyz
  1  'x, y, z'
loop_
 _atom_site_type_symbol
 _atom_site_label
 _atom_site_symmetry_multiplicity
 _atom_site_fract_x
 _atom_site_fract_y
 _atom_site_fract_z
 _atom_site_occupancy
  Li  Li0  1  0.50000000  0.67233975  0.50000000  1
  Li  Li1  1  0.50000000  0.32766025  0.50000000  1
  Li  Li2  1  0.00000000  0.17233975  0.50000000  1
  Li  Li3  1  0.00000000  0.82766025  0.50000000  1
  Mn  Mn4  1  0.50000000  0.50000000  0.00000000  1
  Mn  Mn5  1  0.50000000  0.16696600  0.00000000  1
  Mn  Mn6  1  0.50000000  0.83303400  0.00000000  1
  Mn  Mn7  1  0.00000000  0.00000000  0.00000000  1
  Mn  Mn8  1  0.00000000  0.66696600  0.00000000  1
  Mn  Mn9  1  0.00000000  0.33303400  0.00000000  1
  O  O10  1  0.74377725  0.50000000  0.80316350  1
  O  O11  1  0.25622275  0.50000000  0.19683650  1
  O  O12  1  0.70866425  0.66788250  0.22569050  1
  O  O13  1  0.79133575  0.83211750  0.77430950  1
  O  O14  1  0.20866425  0.83211750  0.22569050  1
  O  O15  1  0.29133575  0.66788250  0.77430950  1
  O  O16  1  0.24377725  0.00000000  0.80316350  1
  O  O17  1  0.75622275  0.00000000  0.19683650  1
  O  O18  1  0.20866425  0.16788250  0.22569050  1
  O  O19  1  0.29133575  0.33211750  0.77430950  1
  O  O20  1  0.70866425  0.33211750  0.22569050  1
  O  O21  1  0.79133575  0.16788250  0.77430950  1
