# generated using pymatgen
data_Na4NpO5
_symmetry_space_group_name_H-M   'P 1'
_cell_length_a   7.63701000
_cell_length_b   7.63701000
_cell_length_c   4.64685200
_cell_angle_alpha   90.00000000
_cell_angle_beta   90.00000000
_cell_angle_gamma   90.00000000
_symmetry_Int_Tables_number   1
_chemical_formula_structural   Na4NpO5
_chemical_formula_sum   'Na8 Np2 O10'
_cell_volume   271.02263239
_cell_formula_units_Z   2
loop_
 _symmetry_equiv_pos_site_id
 _symmetry_equiv_pos_as_xyz
  1  'x, y, z'
loop_
 _atom_site_type_symbol
 _atom_site_label
 _atom_site_symmetry_multiplicity
 _atom_site_fract_x
 _atom_site_fract_y
 _atom_site_fract_z
 _atom_site_occupancy
  Na  Na0  1  0.60084700  0.19914500  0.00000000  1
  Na  Na1  1  0.39915300  0.80085500  0.00000000  1
  Na  Na2  1  0.69914500  0.89915300  0.50000000  1
  Na  Na3  1  0.30085500  0.10084700  0.50000000  1
  Na  Na4  1  0.10084700  0.69914500  0.50000000  1
  Na  Na5  1  0.89915300  0.30085500  0.50000000  1
  Na  Na6  1  0.19914500  0.39915300  0.00000000  1
  Na  Na7  1  0.80085500  0.60084700  0.00000000  1
  Np  Np8  1  0.00000000  0.00000000  0.00000000  1
  Np  Np9  1  0.50000000  0.50000000  0.50000000  1
  O  O10  1  0.00000000  0.00000000  0.50000000  1
  O  O11  1  0.42355300  0.75266800  0.50000000  1
  O  O12  1  0.57644700  0.24733200  0.50000000  1
  O  O13  1  0.25266800  0.07644700  0.00000000  1
  O  O14  1  0.74733200  0.92355300  0.00000000  1
  O  O15  1  0.50000000  0.50000000  0.00000000  1
  O  O16  1  0.92355300  0.25266800  0.00000000  1
  O  O17  1  0.07644700  0.74733200  0.00000000  1
  O  O18  1  0.75266800  0.57644700  0.50000000  1
  O  O19  1  0.24733200  0.42355300  0.50000000  1
