# generated using pymatgen
data_Sn3P6WO24
_symmetry_space_group_name_H-M   'P 1'
_cell_length_a   8.77045239
_cell_length_b   8.77045239
_cell_length_c   22.33583233
_cell_angle_alpha   90.00000000
_cell_angle_beta   90.00000000
_cell_angle_gamma   120.00000000
_symmetry_Int_Tables_number   1
_chemical_formula_structural   Sn3P6WO24
_chemical_formula_sum   'Sn9 P18 W3 O72'
_cell_volume   1487.91034591
_cell_formula_units_Z   3
loop_
 _symmetry_equiv_pos_site_id
 _symmetry_equiv_pos_as_xyz
  1  'x, y, z'
loop_
 _atom_site_type_symbol
 _atom_site_label
 _atom_site_symmetry_multiplicity
 _atom_site_fract_x
 _atom_site_fract_y
 _atom_site_fract_z
 _atom_site_occupancy
  Sn  Sn0  1  0.66666667  0.33333333  0.19008533  1
  Sn  Sn1  1  0.33333333  0.66666667  0.30816367  1
  Sn  Sn2  1  0.33333333  0.66666667  0.02342867  1
  Sn  Sn3  1  0.33333333  0.66666667  0.52341867  1
  Sn  Sn4  1  0.00000000  0.00000000  0.64149700  1
  Sn  Sn5  1  0.00000000  0.00000000  0.35676200  1
  Sn  Sn6  1  0.00000000  0.00000000  0.85675200  1
  Sn  Sn7  1  0.66666667  0.33333333  0.97483033  1
  Sn  Sn8  1  0.66666667  0.33333333  0.69009533  1
  P  P9  1  0.71233300  0.71224800  0.25034600  1
  P  P10  1  0.28775200  0.00008500  0.25034600  1
  P  P11  1  0.99991500  0.28766700  0.25034600  1
  P  P12  1  0.66421867  0.04568133  0.08328033  1
  P  P13  1  0.38146267  0.33578133  0.08328033  1
  P  P14  1  0.95431867  0.61853733  0.08328033  1
  P  P15  1  0.37899967  0.04558133  0.58367933  1
  P  P16  1  0.95441867  0.33341833  0.58367933  1
  P  P17  1  0.66658167  0.62100033  0.58367933  1
  P  P18  1  0.33088533  0.37901467  0.41661367  1
  P  P19  1  0.04812933  0.66911467  0.41661367  1
  P  P20  1  0.62098533  0.95187067  0.41661367  1
  P  P21  1  0.04566633  0.37891467  0.91701267  1
  P  P22  1  0.62108533  0.66675167  0.91701267  1
  P  P23  1  0.33324833  0.95433367  0.91701267  1
  P  P24  1  0.99755200  0.71234800  0.74994700  1
  P  P25  1  0.71479600  0.00244800  0.74994700  1
  P  P26  1  0.28765200  0.28520400  0.74994700  1
  W  W27  1  0.00000000  0.00000000  0.14265000  1
  W  W28  1  0.66666667  0.33333333  0.47598333  1
  W  W29  1  0.33333333  0.66666667  0.80931667  1
  O  O30  1  0.84185200  0.54628200  0.02671400  1
  O  O31  1  0.70443000  0.15814800  0.02671400  1
  O  O32  1  0.69676167  0.53276733  0.24338133  1
  O  O33  1  0.45371800  0.29557000  0.02671400  1
  O  O34  1  0.53344067  0.70249733  0.25209233  1
  O  O35  1  0.81070467  0.83162833  0.19369233  1
  O  O36  1  0.46723267  0.16399433  0.24338133  1
  O  O37  1  0.29750267  0.83094333  0.25209233  1
  O  O38  1  0.16905667  0.46655933  0.25209233  1
  O  O39  1  0.64082400  0.12776900  0.13992000  1
  O  O40  1  0.83349633  0.02516567  0.09349567  1
  O  O41  1  0.48694500  0.35917600  0.13992000  1
  O  O42  1  0.16837167  0.97907633  0.19369233  1
  O  O43  1  0.83600567  0.30323833  0.24338133  1
  O  O44  1  0.02092367  0.18929533  0.19369233  1
  O  O45  1  0.50688800  0.86047200  0.07843800  1
  O  O46  1  0.35358400  0.49311200  0.07843800  1
  O  O47  1  0.19166933  0.16650367  0.09349567  1
  O  O48  1  0.87223100  0.51305500  0.13992000  1
  O  O49  1  0.13952800  0.64641600  0.07843800  1
  O  O50  1  0.20459133  0.02802267  0.30608767  1
  O  O51  1  0.97483433  0.80833067  0.09349567  1
  O  O52  1  0.97197733  0.17656867  0.30608767  1
  O  O53  1  0.82343133  0.79540867  0.30608767  1
  O  O54  1  0.50851867  0.87961533  0.36004733  1
  O  O55  1  0.37109667  0.49148133  0.36004733  1
  O  O56  1  0.36342833  0.86610067  0.57671467  1
  O  O57  1  0.12038467  0.62890333  0.36004733  1
  O  O58  1  0.20010733  0.03583067  0.58542567  1
  O  O59  1  0.47737133  0.16496167  0.52702567  1
  O  O60  1  0.13389933  0.49732767  0.57671467  1
  O  O61  1  0.96416933  0.16427667  0.58542567  1
  O  O62  1  0.83572333  0.79989267  0.58542567  1
  O  O63  1  0.30749067  0.46110233  0.47325333  1
  O  O64  1  0.50016300  0.35849900  0.42682900  1
  O  O65  1  0.15361167  0.69250933  0.47325333  1
  O  O66  1  0.83503833  0.31240967  0.52702567  1
  O  O67  1  0.50267233  0.63657167  0.57671467  1
  O  O68  1  0.68759033  0.52262867  0.52702567  1
  O  O69  1  0.17355467  0.19380533  0.41177133  1
  O  O70  1  0.02025067  0.82644533  0.41177133  1
  O  O71  1  0.85833600  0.49983700  0.42682900  1
  O  O72  1  0.53889767  0.84638833  0.47325333  1
  O  O73  1  0.80619467  0.97974933  0.41177133  1
  O  O74  1  0.87125800  0.36135600  0.63942100  1
  O  O75  1  0.64150100  0.14166400  0.42682900  1
  O  O76  1  0.63864400  0.50990200  0.63942100  1
  O  O77  1  0.49009800  0.12874200  0.63942100  1
  O  O78  1  0.17518533  0.21294867  0.69338067  1
  O  O79  1  0.03776333  0.82481467  0.69338067  1
  O  O80  1  0.03009500  0.19943400  0.91004800  1
  O  O81  1  0.78705133  0.96223667  0.69338067  1
  O  O82  1  0.86677400  0.36916400  0.91875900  1
  O  O83  1  0.14403800  0.49829500  0.86035900  1
  O  O84  1  0.80056600  0.83066100  0.91004800  1
  O  O85  1  0.63083600  0.49761000  0.91875900  1
  O  O86  1  0.50239000  0.13322600  0.91875900  1
  O  O87  1  0.97415733  0.79443567  0.80658667  1
  O  O88  1  0.16682967  0.69183233  0.76016233  1
  O  O89  1  0.82027833  0.02584267  0.80658667  1
  O  O90  1  0.50170500  0.64574300  0.86035900  1
  O  O91  1  0.16933900  0.96990500  0.91004800  1
  O  O92  1  0.35425700  0.85596200  0.86035900  1
  O  O93  1  0.84022133  0.52713867  0.74510467  1
  O  O94  1  0.68691733  0.15977867  0.74510467  1
  O  O95  1  0.52500267  0.83317033  0.76016233  1
  O  O96  1  0.20556433  0.17972167  0.80658667  1
  O  O97  1  0.47286133  0.31308267  0.74510467  1
  O  O98  1  0.53792467  0.69468933  0.97275433  1
  O  O99  1  0.30816767  0.47499733  0.76016233  1
  O  O100  1  0.30531067  0.84323533  0.97275433  1
  O  O101  1  0.15676467  0.46207533  0.97275433  1
