# generated using pymatgen
data_Li3V5O12
_symmetry_space_group_name_H-M   'P 1'
_cell_length_a   10.41024000
_cell_length_b   9.06917400
_cell_length_c   5.78647580
_cell_angle_alpha   90.00000000
_cell_angle_beta   111.18765084
_cell_angle_gamma   90.00000000
_symmetry_Int_Tables_number   1
_chemical_formula_structural   Li3V5O12
_chemical_formula_sum   'Li6 V10 O24'
_cell_volume   509.38445142
_cell_formula_units_Z   2
loop_
 _symmetry_equiv_pos_site_id
 _symmetry_equiv_pos_as_xyz
  1  'x, y, z'
loop_
 _atom_site_type_symbol
 _atom_site_label
 _atom_site_symmetry_multiplicity
 _atom_site_fract_x
 _atom_site_fract_y
 _atom_site_fract_z
 _atom_site_occupancy
  Li  Li0  1  0.00000000  0.09603400  0.00000000  1
  Li  Li1  1  0.00000000  0.25383200  0.50000000  1
  Li  Li2  1  0.00000000  0.75917400  0.00000000  1
  Li  Li3  1  0.50000000  0.59603400  0.00000000  1
  Li  Li4  1  0.50000000  0.75383200  0.50000000  1
  Li  Li5  1  0.50000000  0.25917400  0.00000000  1
  V  V6  1  0.20443600  0.40638900  0.98683900  1
  V  V7  1  0.21046850  0.60211750  0.48697800  1
  V  V8  1  0.79556400  0.40638900  0.01316100  1
  V  V9  1  0.78953150  0.60211750  0.51302200  1
  V  V10  1  0.00000000  0.91528200  0.50000000  1
  V  V11  1  0.70443600  0.90638900  0.98683900  1
  V  V12  1  0.71046850  0.10211750  0.48697800  1
  V  V13  1  0.29556400  0.90638900  0.01316100  1
  V  V14  1  0.28953150  0.10211750  0.51302200  1
  V  V15  1  0.50000000  0.41528200  0.50000000  1
  O  O16  1  0.38454550  0.40100750  0.11292600  1
  O  O17  1  0.14032300  0.23297300  0.94551100  1
  O  O18  1  0.39289000  0.58518100  0.58062400  1
  O  O19  1  0.13709500  0.50555300  0.18173500  1
  O  O20  1  0.85967700  0.23297300  0.05448900  1
  O  O21  1  0.14586050  0.48264250  0.68445800  1
  O  O22  1  0.86290500  0.50555300  0.81826500  1
  O  O23  1  0.12316850  0.77197450  0.42585400  1
  O  O24  1  0.85413950  0.48264250  0.31554200  1
  O  O25  1  0.61545450  0.40100750  0.88707400  1
  O  O26  1  0.87683150  0.77197450  0.57414600  1
  O  O27  1  0.60711000  0.58518100  0.41937600  1
  O  O28  1  0.88454550  0.90100750  0.11292600  1
  O  O29  1  0.64032300  0.73297300  0.94551100  1
  O  O30  1  0.89289000  0.08518100  0.58062400  1
  O  O31  1  0.63709500  0.00555300  0.18173500  1
  O  O32  1  0.35967700  0.73297300  0.05448900  1
  O  O33  1  0.64586050  0.98264250  0.68445800  1
  O  O34  1  0.36290500  0.00555300  0.81826500  1
  O  O35  1  0.62316850  0.27197450  0.42585400  1
  O  O36  1  0.35413950  0.98264250  0.31554200  1
  O  O37  1  0.11545450  0.90100750  0.88707400  1
  O  O38  1  0.37683150  0.27197450  0.57414600  1
  O  O39  1  0.10711000  0.08518100  0.41937600  1
