# generated using pymatgen
data_Na3AsH22S2O13
_symmetry_space_group_name_H-M   'P 1'
_cell_length_a   9.68695700
_cell_length_b   12.63445100
_cell_length_c   14.32670000
_cell_angle_alpha   90.00000000
_cell_angle_beta   90.00000000
_cell_angle_gamma   90.00000000
_symmetry_Int_Tables_number   1
_chemical_formula_structural   Na3AsH22S2O13
_chemical_formula_sum   'Na12 As4 H88 S8 O52'
_cell_volume   1753.43598139
_cell_formula_units_Z   4
loop_
 _symmetry_equiv_pos_site_id
 _symmetry_equiv_pos_as_xyz
  1  'x, y, z'
loop_
 _atom_site_type_symbol
 _atom_site_label
 _atom_site_symmetry_multiplicity
 _atom_site_fract_x
 _atom_site_fract_y
 _atom_site_fract_z
 _atom_site_occupancy
  Na  Na0  1  0.50454800  0.72932900  0.09554600  1
  Na  Na1  1  0.99545200  0.22932900  0.40445400  1
  Na  Na2  1  0.49545200  0.27067100  0.59554600  1
  Na  Na3  1  0.00454800  0.77067100  0.90445400  1
  Na  Na4  1  0.49545200  0.27067100  0.90445400  1
  Na  Na5  1  0.00454800  0.77067100  0.59554600  1
  Na  Na6  1  0.50454800  0.72932900  0.40445400  1
  Na  Na7  1  0.99545200  0.22932900  0.09554600  1
  Na  Na8  1  0.50000000  0.50000000  0.00000000  1
  Na  Na9  1  0.00000000  0.00000000  0.50000000  1
  Na  Na10  1  0.50000000  0.50000000  0.50000000  1
  Na  Na11  1  0.00000000  0.00000000  0.00000000  1
  As  As12  1  0.46280300  0.08781800  0.25000000  1
  As  As13  1  0.03719700  0.58781800  0.25000000  1
  As  As14  1  0.53719700  0.91218200  0.75000000  1
  As  As15  1  0.96280300  0.41218200  0.75000000  1
  H  H16  1  0.28515200  0.56288900  0.14408700  1
  H  H17  1  0.21484800  0.06288900  0.35591300  1
  H  H18  1  0.71484800  0.43711100  0.64408700  1
  H  H19  1  0.78515200  0.93711100  0.85591300  1
  H  H20  1  0.71484800  0.43711100  0.85591300  1
  H  H21  1  0.78515200  0.93711100  0.64408700  1
  H  H22  1  0.28515200  0.56288900  0.35591300  1
  H  H23  1  0.21484800  0.06288900  0.14408700  1
  H  H24  1  0.42636800  0.51718900  0.18040700  1
  H  H25  1  0.07363200  0.01718900  0.31959300  1
  H  H26  1  0.57363200  0.48281100  0.68040700  1
  H  H27  1  0.92636800  0.98281100  0.81959300  1
  H  H28  1  0.57363200  0.48281100  0.81959300  1
  H  H29  1  0.92636800  0.98281100  0.68040700  1
  H  H30  1  0.42636800  0.51718900  0.31959300  1
  H  H31  1  0.07363200  0.01718900  0.18040700  1
  H  H32  1  0.30927700  0.66858900  0.55006000  1
  H  H33  1  0.19072300  0.16858900  0.94994000  1
  H  H34  1  0.69072300  0.33141100  0.05006000  1
  H  H35  1  0.80927700  0.83141100  0.44994000  1
  H  H36  1  0.69072300  0.33141100  0.44994000  1
  H  H37  1  0.80927700  0.83141100  0.05006000  1
  H  H38  1  0.30927700  0.66858900  0.94994000  1
  H  H39  1  0.19072300  0.16858900  0.55006000  1
  H  H40  1  0.43829900  0.69776700  0.61454000  1
  H  H41  1  0.06170100  0.19776700  0.88546000  1
  H  H42  1  0.56170100  0.30223300  0.11454000  1
  H  H43  1  0.93829900  0.80223300  0.38546000  1
  H  H44  1  0.56170100  0.30223300  0.38546000  1
  H  H45  1  0.93829900  0.80223300  0.11454000  1
  H  H46  1  0.43829900  0.69776700  0.88546000  1
  H  H47  1  0.06170100  0.19776700  0.61454000  1
  H  H48  1  0.38253000  0.06336800  0.56385900  1
  H  H49  1  0.11747000  0.56336800  0.93614100  1
  H  H50  1  0.61747000  0.93663200  0.06385900  1
  H  H51  1  0.88253000  0.43663200  0.43614100  1
  H  H52  1  0.61747000  0.93663200  0.43614100  1
  H  H53  1  0.88253000  0.43663200  0.06385900  1
  H  H54  1  0.38253000  0.06336800  0.93614100  1
  H  H55  1  0.11747000  0.56336800  0.56385900  1
  H  H56  1  0.39032900  0.09806900  0.45828600  1
  H  H57  1  0.10967100  0.59806900  0.04171400  1
  H  H58  1  0.60967100  0.90193100  0.95828600  1
  H  H59  1  0.89032900  0.40193100  0.54171400  1
  H  H60  1  0.60967100  0.90193100  0.54171400  1
  H  H61  1  0.89032900  0.40193100  0.95828600  1
  H  H62  1  0.39032900  0.09806900  0.04171400  1
  H  H63  1  0.10967100  0.59806900  0.45828600  1
  H  H64  1  0.23485200  0.81260600  0.15918900  1
  H  H65  1  0.26514800  0.31260600  0.34081100  1
  H  H66  1  0.76514800  0.18739400  0.65918900  1
  H  H67  1  0.73485200  0.68739400  0.84081100  1
  H  H68  1  0.76514800  0.18739400  0.84081100  1
  H  H69  1  0.73485200  0.68739400  0.65918900  1
  H  H70  1  0.23485200  0.81260600  0.34081100  1
  H  H71  1  0.26514800  0.31260600  0.15918900  1
  H  H72  1  0.33695800  0.91084500  0.13990900  1
  H  H73  1  0.16304200  0.41084500  0.36009100  1
  H  H74  1  0.66304200  0.08915500  0.63990900  1
  H  H75  1  0.83695800  0.58915500  0.86009100  1
  H  H76  1  0.66304200  0.08915500  0.86009100  1
  H  H77  1  0.83695800  0.58915500  0.63990900  1
  H  H78  1  0.33695800  0.91084500  0.36009100  1
  H  H79  1  0.16304200  0.41084500  0.13990900  1
  H  H80  1  0.25867300  0.36765600  0.49342100  1
  H  H81  1  0.24132700  0.86765600  0.00657900  1
  H  H82  1  0.74132700  0.63234400  0.99342100  1
  H  H83  1  0.75867300  0.13234400  0.50657900  1
  H  H84  1  0.74132700  0.63234400  0.50657900  1
  H  H85  1  0.75867300  0.13234400  0.99342100  1
  H  H86  1  0.25867300  0.36765600  0.00657900  1
  H  H87  1  0.24132700  0.86765600  0.49342100  1
  H  H88  1  0.24800300  0.40887700  0.59969300  1
  H  H89  1  0.25199700  0.90887700  0.90030700  1
  H  H90  1  0.75199700  0.59112300  0.09969300  1
  H  H91  1  0.74800300  0.09112300  0.40030700  1
  H  H92  1  0.75199700  0.59112300  0.40030700  1
  H  H93  1  0.74800300  0.09112300  0.09969300  1
  H  H94  1  0.24800300  0.40887700  0.90030700  1
  H  H95  1  0.25199700  0.90887700  0.59969300  1
  H  H96  1  0.34370400  0.16890200  0.75000000  1
  H  H97  1  0.15629600  0.66890200  0.75000000  1
  H  H98  1  0.65629600  0.83109800  0.25000000  1
  H  H99  1  0.84370400  0.33109800  0.25000000  1
  H  H100  1  0.29292600  0.28803100  0.75000000  1
  H  H101  1  0.20707400  0.78803100  0.75000000  1
  H  H102  1  0.70707400  0.71196900  0.25000000  1
  H  H103  1  0.79292600  0.21196900  0.25000000  1
  S  S104  1  0.45808200  0.26138500  0.25000000  1
  S  S105  1  0.04191800  0.76138500  0.25000000  1
  S  S106  1  0.54191800  0.73861500  0.75000000  1
  S  S107  1  0.95808200  0.23861500  0.75000000  1
  S  S108  1  0.82587000  0.52757600  0.25000000  1
  S  S109  1  0.67413000  0.02757600  0.25000000  1
  S  S110  1  0.17413000  0.47242400  0.75000000  1
  S  S111  1  0.32587000  0.97242400  0.75000000  1
  O  O112  1  0.37810100  0.04005200  0.15184400  1
  O  O113  1  0.12189900  0.54005200  0.34815600  1
  O  O114  1  0.62189900  0.95994800  0.65184400  1
  O  O115  1  0.87810100  0.45994800  0.84815600  1
  O  O116  1  0.62189900  0.95994800  0.84815600  1
  O  O117  1  0.87810100  0.45994800  0.65184400  1
  O  O118  1  0.37810100  0.04005200  0.34815600  1
  O  O119  1  0.12189900  0.54005200  0.15184400  1
  O  O120  1  0.38953500  0.56652800  0.13497700  1
  O  O121  1  0.11046500  0.06652800  0.36502300  1
  O  O122  1  0.61046500  0.43347200  0.63497700  1
  O  O123  1  0.88953500  0.93347200  0.86502300  1
  O  O124  1  0.61046500  0.43347200  0.86502300  1
  O  O125  1  0.88953500  0.93347200  0.63497700  1
  O  O126  1  0.38953500  0.56652800  0.36502300  1
  O  O127  1  0.11046500  0.06652800  0.13497700  1
  O  O128  1  0.41098000  0.66765700  0.55366300  1
  O  O129  1  0.08902000  0.16765700  0.94633700  1
  O  O130  1  0.58902000  0.33234300  0.05366300  1
  O  O131  1  0.91098000  0.83234300  0.44633700  1
  O  O132  1  0.58902000  0.33234300  0.44633700  1
  O  O133  1  0.91098000  0.83234300  0.05366300  1
  O  O134  1  0.41098000  0.66765700  0.94633700  1
  O  O135  1  0.08902000  0.16765700  0.55366300  1
  O  O136  1  0.37868200  0.12553500  0.52362800  1
  O  O137  1  0.12131800  0.62553500  0.97637200  1
  O  O138  1  0.62131800  0.87446500  0.02362800  1
  O  O139  1  0.87868200  0.37446500  0.47637200  1
  O  O140  1  0.62131800  0.87446500  0.47637200  1
  O  O141  1  0.87868200  0.37446500  0.02362800  1
  O  O142  1  0.37868200  0.12553500  0.97637200  1
  O  O143  1  0.12131800  0.62553500  0.52362800  1
  O  O144  1  0.30879200  0.83840900  0.11766400  1
  O  O145  1  0.19120800  0.33840900  0.38233600  1
  O  O146  1  0.69120800  0.16159100  0.61766400  1
  O  O147  1  0.80879200  0.66159100  0.88233600  1
  O  O148  1  0.69120800  0.16159100  0.88233600  1
  O  O149  1  0.80879200  0.66159100  0.61766400  1
  O  O150  1  0.30879200  0.83840900  0.38233600  1
  O  O151  1  0.19120800  0.33840900  0.11766400  1
  O  O152  1  0.31237200  0.38848500  0.54980300  1
  O  O153  1  0.18762800  0.88848500  0.95019700  1
  O  O154  1  0.68762800  0.61151500  0.04980300  1
  O  O155  1  0.81237200  0.11151500  0.45019700  1
  O  O156  1  0.68762800  0.61151500  0.45019700  1
  O  O157  1  0.81237200  0.11151500  0.04980300  1
  O  O158  1  0.31237200  0.38848500  0.95019700  1
  O  O159  1  0.18762800  0.88848500  0.54980300  1
  O  O160  1  0.62414600  0.75705500  0.25000000  1
  O  O161  1  0.87585400  0.25705500  0.25000000  1
  O  O162  1  0.37585400  0.24294500  0.75000000  1
  O  O163  1  0.12414600  0.74294500  0.75000000  1
