# generated using pymatgen
data_Li2Cr3NiO8
_symmetry_space_group_name_H-M   'P 1'
_cell_length_a   8.30941328
_cell_length_b   8.33552700
_cell_length_c   8.38919617
_cell_angle_alpha   89.88641080
_cell_angle_beta   89.84247498
_cell_angle_gamma   89.67840382
_symmetry_Int_Tables_number   1
_chemical_formula_structural   Li2Cr3NiO8
_chemical_formula_sum   'Li8 Cr12 Ni4 O32'
_cell_volume   581.05126323
_cell_formula_units_Z   4
loop_
 _symmetry_equiv_pos_site_id
 _symmetry_equiv_pos_as_xyz
  1  'x, y, z'
loop_
 _atom_site_type_symbol
 _atom_site_label
 _atom_site_symmetry_multiplicity
 _atom_site_fract_x
 _atom_site_fract_y
 _atom_site_fract_z
 _atom_site_occupancy
  Li  Li0  1  0.99633300  0.00243200  0.99982000  1
  Li  Li1  1  0.74806400  0.74940500  0.25068700  1
  Li  Li2  1  0.25145100  0.75048000  0.75021900  1
  Li  Li3  1  0.50279900  0.50363000  0.00172400  1
  Li  Li4  1  0.00062300  0.50372600  0.49995000  1
  Li  Li5  1  0.25240900  0.24999000  0.24772200  1
  Li  Li6  1  0.75018500  0.24931800  0.75018100  1
  Li  Li7  1  0.49767000  0.00076600  0.49847600  1
  Cr  Cr8  1  0.37158500  0.87027200  0.12830700  1
  Cr  Cr9  1  0.12043100  0.87252500  0.37729400  1
  Cr  Cr10  1  0.86944000  0.87194000  0.62571300  1
  Cr  Cr11  1  0.37749100  0.62343800  0.38017600  1
  Cr  Cr12  1  0.62637100  0.62505400  0.62149900  1
  Cr  Cr13  1  0.87647300  0.62527000  0.87770100  1
  Cr  Cr14  1  0.62908800  0.37278500  0.37823400  1
  Cr  Cr15  1  0.87936100  0.37258500  0.12242700  1
  Cr  Cr16  1  0.12554200  0.37304800  0.86730000  1
  Cr  Cr17  1  0.62347700  0.12385300  0.12813000  1
  Cr  Cr18  1  0.37510200  0.12180300  0.87086700  1
  Cr  Cr19  1  0.11775200  0.12103000  0.62470000  1
  Ni  Ni20  1  0.62763800  0.87595100  0.87514000  1
  Ni  Ni21  1  0.12345800  0.62736500  0.12500800  1
  Ni  Ni22  1  0.37548200  0.37681100  0.62516700  1
  Ni  Ni23  1  0.87655500  0.12814300  0.37337300  1
  O  O24  1  0.60525800  0.89756300  0.12978200  1
  O  O25  1  0.39539200  0.88885100  0.88823400  1
  O  O26  1  0.10594600  0.88369200  0.61571500  1
  O  O27  1  0.14470500  0.87821600  0.13985900  1
  O  O28  1  0.89642700  0.87655600  0.38971400  1
  O  O29  1  0.35916100  0.86089700  0.36484800  1
  O  O30  1  0.64748000  0.86706100  0.62575100  1
  O  O31  1  0.85685900  0.86317400  0.86398000  1
  O  O32  1  0.37639700  0.64700500  0.14390900  1
  O  O33  1  0.14054200  0.64480400  0.36779800  1
  O  O34  1  0.86977400  0.64101300  0.64429200  1
  O  O35  1  0.38755600  0.62343800  0.60327700  1
  O  O36  1  0.64153700  0.64498700  0.86322300  1
  O  O37  1  0.61441300  0.60916400  0.38500900  1
  O  O38  1  0.86916500  0.60503800  0.10409600  1
  O  O39  1  0.10537900  0.61002700  0.87741400  1
  O  O40  1  0.39433000  0.39678700  0.37050600  1
  O  O41  1  0.62122300  0.38532900  0.60602800  1
  O  O42  1  0.89133800  0.38641800  0.88447100  1
  O  O43  1  0.85704800  0.37728400  0.35800400  1
  O  O44  1  0.10405400  0.37535000  0.10466300  1
  O  O45  1  0.64005400  0.35744300  0.13341300  1
  O  O46  1  0.35521200  0.35397300  0.88088100  1
  O  O47  1  0.12441300  0.35846600  0.64375300  1
  O  O48  1  0.62629800  0.14121400  0.35707300  1
  O  O49  1  0.85961400  0.14412500  0.13089600  1
  O  O50  1  0.13598700  0.13331800  0.85664300  1
  O  O51  1  0.61314900  0.10961700  0.89197200  1
  O  O52  1  0.35630000  0.12618000  0.64751900  1
  O  O53  1  0.38469400  0.10917100  0.10631000  1
  O  O54  1  0.13297400  0.10620800  0.39878600  1
  O  O55  1  0.89240400  0.10601300  0.62250000  1
