# generated using pymatgen
data_Li4Ti7O16
_symmetry_space_group_name_H-M   'P 1'
_cell_length_a   10.08130400
_cell_length_b   5.93632800
_cell_length_c   9.70109247
_cell_angle_alpha   90.00000000
_cell_angle_beta   90.03149141
_cell_angle_gamma   90.00000000
_symmetry_Int_Tables_number   1
_chemical_formula_structural   Li4Ti7O16
_chemical_formula_sum   'Li8 Ti14 O32'
_cell_volume   580.57078586
_cell_formula_units_Z   2
loop_
 _symmetry_equiv_pos_site_id
 _symmetry_equiv_pos_as_xyz
  1  'x, y, z'
loop_
 _atom_site_type_symbol
 _atom_site_label
 _atom_site_symmetry_multiplicity
 _atom_site_fract_x
 _atom_site_fract_y
 _atom_site_fract_z
 _atom_site_occupancy
  Li  Li0  1  0.91025400  0.00000000  0.96105300  1
  Li  Li1  1  0.89238600  0.00000000  0.64390600  1
  Li  Li2  1  0.65807800  0.24684400  0.54355000  1
  Li  Li3  1  0.65807800  0.75315600  0.54355000  1
  Li  Li4  1  0.41025400  0.50000000  0.96105300  1
  Li  Li5  1  0.39238600  0.50000000  0.64390600  1
  Li  Li6  1  0.15807800  0.74684400  0.54355000  1
  Li  Li7  1  0.15807800  0.25315600  0.54355000  1
  Ti  Ti8  1  0.36751050  0.25747050  0.36709400  1
  Ti  Ti9  1  0.64571450  0.25646750  0.85736500  1
  Ti  Ti10  1  0.64571450  0.74353250  0.85736500  1
  Ti  Ti11  1  0.13234800  0.00000000  0.14524100  1
  Ti  Ti12  1  0.59575700  0.00000000  0.13294700  1
  Ti  Ti13  1  0.39462600  0.00000000  0.64177200  1
  Ti  Ti14  1  0.36751050  0.74252950  0.36709400  1
  Ti  Ti15  1  0.86751050  0.75747050  0.36709400  1
  Ti  Ti16  1  0.14571450  0.75646750  0.85736500  1
  Ti  Ti17  1  0.14571450  0.24353250  0.85736500  1
  Ti  Ti18  1  0.63234800  0.50000000  0.14524100  1
  Ti  Ti19  1  0.09575700  0.50000000  0.13294700  1
  Ti  Ti20  1  0.89462600  0.50000000  0.64177200  1
  Ti  Ti21  1  0.86751050  0.24252950  0.36709400  1
  O  O22  1  0.47268750  0.23605450  0.52977600  1
  O  O23  1  0.96576400  0.00000000  0.27877300  1
  O  O24  1  0.27112750  0.23165850  0.71850500  1
  O  O25  1  0.76831000  0.00000000  0.45483200  1
  O  O26  1  0.72226300  0.00000000  0.96386100  1
  O  O27  1  0.22993500  0.00000000  0.96936700  1
  O  O28  1  0.71149500  0.24524000  0.22576300  1
  O  O29  1  0.71149500  0.75476000  0.22576300  1
  O  O30  1  0.53720300  0.00000000  0.77302200  1
  O  O31  1  0.03335500  0.00000000  0.79554600  1
  O  O32  1  0.52600800  0.25641200  0.03940200  1
  O  O33  1  0.52600800  0.74358800  0.03940200  1
  O  O34  1  0.47268750  0.76394550  0.52977600  1
  O  O35  1  0.45677000  0.00000000  0.27122800  1
  O  O36  1  0.27112750  0.76834150  0.71850500  1
  O  O37  1  0.26784300  0.00000000  0.46441300  1
  O  O38  1  0.97268750  0.73605450  0.52977600  1
  O  O39  1  0.46576400  0.50000000  0.27877300  1
  O  O40  1  0.77112750  0.73165850  0.71850500  1
  O  O41  1  0.26831000  0.50000000  0.45483200  1
  O  O42  1  0.22226300  0.50000000  0.96386100  1
  O  O43  1  0.72993500  0.50000000  0.96936700  1
  O  O44  1  0.21149500  0.74524000  0.22576300  1
  O  O45  1  0.21149500  0.25476000  0.22576300  1
  O  O46  1  0.03720300  0.50000000  0.77302200  1
  O  O47  1  0.53335500  0.50000000  0.79554600  1
  O  O48  1  0.02600800  0.75641200  0.03940200  1
  O  O49  1  0.02600800  0.24358800  0.03940200  1
  O  O50  1  0.97268750  0.26394550  0.52977600  1
  O  O51  1  0.95677000  0.50000000  0.27122800  1
  O  O52  1  0.77112750  0.26834150  0.71850500  1
  O  O53  1  0.76784300  0.50000000  0.46441300  1
