# generated using pymatgen
data_Mn2NbFe3(PO4)6
_symmetry_space_group_name_H-M   'P 1'
_cell_length_a   8.70057572
_cell_length_b   8.70057572
_cell_length_c   21.33091736
_cell_angle_alpha   90.00000000
_cell_angle_beta   90.00000000
_cell_angle_gamma   120.00000000
_symmetry_Int_Tables_number   1
_chemical_formula_structural   Mn2NbFe3(PO4)6
_chemical_formula_sum   'Mn6 Nb3 Fe9 P18 O72'
_cell_volume   1398.41523678
_cell_formula_units_Z   3
loop_
 _symmetry_equiv_pos_site_id
 _symmetry_equiv_pos_as_xyz
  1  'x, y, z'
loop_
 _atom_site_type_symbol
 _atom_site_label
 _atom_site_symmetry_multiplicity
 _atom_site_fract_x
 _atom_site_fract_y
 _atom_site_fract_z
 _atom_site_occupancy
  Mn  Mn0  1  0.66666667  0.33333333  0.32858533  1
  Mn  Mn1  1  0.33333333  0.66666667  0.16608167  1
  Mn  Mn2  1  0.33333333  0.66666667  0.66191867  1
  Mn  Mn3  1  0.00000000  0.00000000  0.49941500  1
  Mn  Mn4  1  0.00000000  0.00000000  0.99525200  1
  Mn  Mn5  1  0.66666667  0.33333333  0.83274833  1
  Nb  Nb6  1  0.00000000  0.00000000  0.14399800  1
  Nb  Nb7  1  0.66666667  0.33333333  0.47733133  1
  Nb  Nb8  1  0.33333333  0.66666667  0.81066467  1
  Fe  Fe9  1  0.66666667  0.33333333  0.18635233  1
  Fe  Fe10  1  0.33333333  0.66666667  0.31163167  1
  Fe  Fe11  1  0.33333333  0.66666667  0.02217167  1
  Fe  Fe12  1  0.33333333  0.66666667  0.51968567  1
  Fe  Fe13  1  0.00000000  0.00000000  0.64496500  1
  Fe  Fe14  1  0.00000000  0.00000000  0.35550500  1
  Fe  Fe15  1  0.00000000  0.00000000  0.85301900  1
  Fe  Fe16  1  0.66666667  0.33333333  0.97829833  1
  Fe  Fe17  1  0.66666667  0.33333333  0.68883833  1
  P  P18  1  0.70289967  0.70333533  0.25247533  1
  P  P19  1  0.29666467  0.99956433  0.25247533  1
  P  P20  1  0.00043567  0.29710033  0.25247533  1
  P  P21  1  0.66176667  0.04052333  0.08297533  1
  P  P22  1  0.37875667  0.33823333  0.08297533  1
  P  P23  1  0.95947667  0.62124333  0.08297533  1
  P  P24  1  0.36956633  0.03666867  0.58580867  1
  P  P25  1  0.96333133  0.33289767  0.58580867  1
  P  P26  1  0.66710233  0.63043367  0.58580867  1
  P  P27  1  0.32843333  0.37385667  0.41630867  1
  P  P28  1  0.04542333  0.67156667  0.41630867  1
  P  P29  1  0.62614333  0.95457667  0.41630867  1
  P  P30  1  0.03623300  0.37000200  0.91914200  1
  P  P31  1  0.62999800  0.66623100  0.91914200  1
  P  P32  1  0.33376900  0.96376700  0.91914200  1
  P  P33  1  0.99510000  0.70719000  0.74964200  1
  P  P34  1  0.71209000  0.00490000  0.74964200  1
  P  P35  1  0.29281000  0.28791000  0.74964200  1
  O  O36  1  0.86173833  0.53044567  0.02290767  1
  O  O37  1  0.66870733  0.13826167  0.02290767  1
  O  O38  1  0.68540267  0.51762033  0.25431133  1
  O  O39  1  0.46955433  0.33129267  0.02290767  1
  O  O40  1  0.81342233  0.80859167  0.19237967  1
  O  O41  1  0.51977067  0.68843933  0.24352333  1
  O  O42  1  0.48237967  0.16778233  0.25431133  1
  O  O43  1  0.31156067  0.83133133  0.24352333  1
  O  O44  1  0.67023667  0.13963733  0.14290633  1
  O  O45  1  0.16866867  0.48022933  0.24352333  1
  O  O46  1  0.83209500  0.01608600  0.07944500  1
  O  O47  1  0.46940067  0.32976333  0.14290633  1
  O  O48  1  0.19140833  0.00483067  0.19237967  1
  O  O49  1  0.83221767  0.31459733  0.25431133  1
  O  O50  1  0.49880333  0.85089967  0.08814267  1
  O  O51  1  0.99516933  0.18657767  0.19237967  1
  O  O52  1  0.35209633  0.50119667  0.08814267  1
  O  O53  1  0.18399100  0.16790500  0.07944500  1
  O  O54  1  0.14910033  0.64790367  0.08814267  1
  O  O55  1  0.86036267  0.53059933  0.14290633  1
  O  O56  1  0.19428600  0.99761700  0.31021600  1
  O  O57  1  0.98391400  0.81600900  0.07944500  1
  O  O58  1  0.00238300  0.19666900  0.31021600  1
  O  O59  1  0.80333100  0.80571400  0.31021600  1
  O  O60  1  0.52840500  0.86377900  0.35624100  1
  O  O61  1  0.33537400  0.47159500  0.35624100  1
  O  O62  1  0.35206933  0.85095367  0.58764467  1
  O  O63  1  0.13622100  0.66462600  0.35624100  1
  O  O64  1  0.48008900  0.14192500  0.52571300  1
  O  O65  1  0.18643733  0.02177267  0.57685667  1
  O  O66  1  0.14904633  0.50111567  0.58764467  1
  O  O67  1  0.97822733  0.16466467  0.57685667  1
  O  O68  1  0.33690333  0.47297067  0.47623967  1
  O  O69  1  0.83533533  0.81356267  0.57685667  1
  O  O70  1  0.49876167  0.34941933  0.41277833  1
  O  O71  1  0.13606733  0.66309667  0.47623967  1
  O  O72  1  0.85807500  0.33816400  0.52571300  1
  O  O73  1  0.49888433  0.64793067  0.58764467  1
  O  O74  1  0.16547000  0.18423300  0.42147600  1
  O  O75  1  0.66183600  0.51991100  0.52571300  1
  O  O76  1  0.01876300  0.83453000  0.42147600  1
  O  O77  1  0.85065767  0.50123833  0.41277833  1
  O  O78  1  0.81576700  0.98123700  0.42147600  1
  O  O79  1  0.52702933  0.86393267  0.47623967  1
  O  O80  1  0.86095267  0.33095033  0.64354933  1
  O  O81  1  0.65058067  0.14934233  0.41277833  1
  O  O82  1  0.66904967  0.53000233  0.64354933  1
  O  O83  1  0.46999767  0.13904733  0.64354933  1
  O  O84  1  0.19507167  0.19711233  0.68957433  1
  O  O85  1  0.00204067  0.80492833  0.68957433  1
  O  O86  1  0.01873600  0.18428700  0.92097800  1
  O  O87  1  0.80288767  0.99795933  0.68957433  1
  O  O88  1  0.14675567  0.47525833  0.85904633  1
  O  O89  1  0.85310400  0.35510600  0.91019000  1
  O  O90  1  0.81571300  0.83444900  0.92097800  1
  O  O91  1  0.64489400  0.49799800  0.91019000  1
  O  O92  1  0.00357000  0.80630400  0.80957300  1
  O  O93  1  0.50200200  0.14689600  0.91019000  1
  O  O94  1  0.16542833  0.68275267  0.74611167  1
  O  O95  1  0.80273400  0.99643000  0.80957300  1
  O  O96  1  0.52474167  0.67149733  0.85904633  1
  O  O97  1  0.16555100  0.98126400  0.92097800  1
  O  O98  1  0.83213667  0.51756633  0.75480933  1
  O  O99  1  0.32850267  0.85324433  0.85904633  1
  O  O100  1  0.68542967  0.16786333  0.75480933  1
  O  O101  1  0.51732433  0.83457167  0.74611167  1
  O  O102  1  0.48243367  0.31457033  0.75480933  1
  O  O103  1  0.19369600  0.19726600  0.80957300  1
  O  O104  1  0.52761933  0.66428367  0.97688267  1
  O  O105  1  0.31724733  0.48267567  0.74611167  1
  O  O106  1  0.33571633  0.86333567  0.97688267  1
  O  O107  1  0.13666433  0.47238067  0.97688267  1
