# generated using pymatgen
data_Li24MnCr11O36
_symmetry_space_group_name_H-M   'P 1'
_cell_length_a   15.17922200
_cell_length_b   8.71068200
_cell_length_c   10.24352536
_cell_angle_alpha   90.00000000
_cell_angle_beta   109.78353087
_cell_angle_gamma   90.00000000
_symmetry_Int_Tables_number   1
_chemical_formula_structural   Li24MnCr11O36
_chemical_formula_sum   'Li48 Mn2 Cr22 O72'
_cell_volume   1274.47298298
_cell_formula_units_Z   2
loop_
 _symmetry_equiv_pos_site_id
 _symmetry_equiv_pos_as_xyz
  1  'x, y, z'
loop_
 _atom_site_type_symbol
 _atom_site_label
 _atom_site_symmetry_multiplicity
 _atom_site_fract_x
 _atom_site_fract_y
 _atom_site_fract_z
 _atom_site_occupancy
  Li  Li0  1  0.16739500  0.82769100  0.25045900  1
  Li  Li1  1  0.16644950  0.66636650  0.49970800  1
  Li  Li2  1  0.16681900  0.82689000  0.75105900  1
  Li  Li3  1  0.16688400  0.50533200  0.74948500  1
  Li  Li4  1  0.33291300  0.66734900  0.74973600  1
  Li  Li5  1  0.16666800  0.66660000  0.99988200  1
  Li  Li6  1  0.16660550  0.50692450  0.25007000  1
  Li  Li7  1  0.33268700  0.66531400  0.24936100  1
  Li  Li8  1  0.16731300  0.16531400  0.75063900  1
  Li  Li9  1  0.16708700  0.16734900  0.25026400  1
  Li  Li10  1  0.33318100  0.32689000  0.24894100  1
  Li  Li11  1  0.33355050  0.16636650  0.50029200  1
  Li  Li12  1  0.33260500  0.32769100  0.74954100  1
  Li  Li13  1  0.33339450  0.00692450  0.74993000  1
  Li  Li14  1  0.49995650  0.16644150  0.74920800  1
  Li  Li15  1  0.33333200  0.16660000  0.00011800  1
  Li  Li16  1  0.33311600  0.00533200  0.25051500  1
  Li  Li17  1  0.00004350  0.66644150  0.25079200  1
  Li  Li18  1  0.49987350  0.82924150  0.25043000  1
  Li  Li19  1  0.00000000  0.16633300  0.50000000  1
  Li  Li20  1  0.00012650  0.32924150  0.74957000  1
  Li  Li21  1  0.49978800  0.50474400  0.74973400  1
  Li  Li22  1  0.00000000  0.16708200  0.00000000  1
  Li  Li23  1  0.00021200  0.00474400  0.25026600  1
  Li  Li24  1  0.66739500  0.32769100  0.25045900  1
  Li  Li25  1  0.66644950  0.16636650  0.49970800  1
  Li  Li26  1  0.66681900  0.32689000  0.75105900  1
  Li  Li27  1  0.66688400  0.00533200  0.74948500  1
  Li  Li28  1  0.83291300  0.16734900  0.74973600  1
  Li  Li29  1  0.66666800  0.16660000  0.99988200  1
  Li  Li30  1  0.66660550  0.00692450  0.25007000  1
  Li  Li31  1  0.83268700  0.16531400  0.24936100  1
  Li  Li32  1  0.66731300  0.66531400  0.75063900  1
  Li  Li33  1  0.66708700  0.66734900  0.25026400  1
  Li  Li34  1  0.83318100  0.82689000  0.24894100  1
  Li  Li35  1  0.83355050  0.66636650  0.50029200  1
  Li  Li36  1  0.83260500  0.82769100  0.74954100  1
  Li  Li37  1  0.83339450  0.50692450  0.74993000  1
  Li  Li38  1  0.99995650  0.66644150  0.74920800  1
  Li  Li39  1  0.83333200  0.66660000  0.00011800  1
  Li  Li40  1  0.83311600  0.50533200  0.25051500  1
  Li  Li41  1  0.50004350  0.16644150  0.25079200  1
  Li  Li42  1  0.99987350  0.32924150  0.25043000  1
  Li  Li43  1  0.50000000  0.66633300  0.50000000  1
  Li  Li44  1  0.50012650  0.82924150  0.74957000  1
  Li  Li45  1  0.99978800  0.00474400  0.74973400  1
  Li  Li46  1  0.50000000  0.66708200  0.00000000  1
  Li  Li47  1  0.50021200  0.50474400  0.25026600  1
  Mn  Mn48  1  0.00000000  0.50291200  0.50000000  1
  Mn  Mn49  1  0.50000000  0.00291200  0.50000000  1
  Cr  Cr50  1  0.16245550  0.33291450  0.49932900  1
  Cr  Cr51  1  0.33006650  0.49459050  0.49881400  1
  Cr  Cr52  1  0.17044550  0.33821250  0.00041800  1
  Cr  Cr53  1  0.33726450  0.50296650  0.99960300  1
  Cr  Cr54  1  0.16993350  0.99459050  0.50118600  1
  Cr  Cr55  1  0.00000000  0.83971400  0.50000000  1
  Cr  Cr56  1  0.16273550  0.00296650  0.00039700  1
  Cr  Cr57  1  0.00000000  0.82619100  0.00000000  1
  Cr  Cr58  1  0.33754450  0.83291450  0.50067100  1
  Cr  Cr59  1  0.32955450  0.83821250  0.99958200  1
  Cr  Cr60  1  0.00000000  0.49184500  0.00000000  1
  Cr  Cr61  1  0.66245550  0.83291450  0.49932900  1
  Cr  Cr62  1  0.83006650  0.99459050  0.49881400  1
  Cr  Cr63  1  0.67044550  0.83821250  0.00041800  1
  Cr  Cr64  1  0.83726450  0.00296650  0.99960300  1
  Cr  Cr65  1  0.66993350  0.49459050  0.50118600  1
  Cr  Cr66  1  0.50000000  0.33971400  0.50000000  1
  Cr  Cr67  1  0.66273550  0.50296650  0.00039700  1
  Cr  Cr68  1  0.50000000  0.32619100  0.00000000  1
  Cr  Cr69  1  0.83754450  0.33291450  0.50067100  1
  Cr  Cr70  1  0.82955450  0.33821250  0.99958200  1
  Cr  Cr71  1  0.50000000  0.99184500  0.00000000  1
  O  O72  1  0.26196250  0.66354650  0.38530700  1
  O  O73  1  0.08412200  0.34596400  0.61116400  1
  O  O74  1  0.26140700  0.67186300  0.88478600  1
  O  O75  1  0.24966800  0.48377800  0.61179900  1
  O  O76  1  0.08410600  0.34855600  0.11281700  1
  O  O77  1  0.25324750  0.48822650  0.11181800  1
  O  O78  1  0.24721600  0.34650700  0.38759500  1
  O  O79  1  0.09505100  0.16891000  0.38570100  1
  O  O80  1  0.41627500  0.48324900  0.38692500  1
  O  O81  1  0.24944150  0.34813750  0.88855800  1
  O  O82  1  0.23803750  0.16354650  0.61469300  1
  O  O83  1  0.41606800  0.35136800  0.61261000  1
  O  O84  1  0.09461600  0.16365600  0.88522600  1
  O  O85  1  0.41297100  0.48853100  0.88815200  1
  O  O86  1  0.08372500  0.98324900  0.61307500  1
  O  O87  1  0.23859300  0.17186300  0.11521400  1
  O  O88  1  0.42196900  0.34451900  0.11253000  1
  O  O89  1  0.08702900  0.98853100  0.11184800  1
  O  O90  1  0.08393200  0.85136800  0.38739000  1
  O  O91  1  0.25033200  0.98377800  0.38820100  1
  O  O92  1  0.42726750  0.16645150  0.38664200  1
  O  O93  1  0.07803100  0.84451900  0.88747000  1
  O  O94  1  0.25278400  0.84650700  0.61240500  1
  O  O95  1  0.07273250  0.66645150  0.61335800  1
  O  O96  1  0.24675250  0.98822650  0.88818200  1
  O  O97  1  0.42772300  0.16422900  0.88581500  1
  O  O98  1  0.41972150  0.99127750  0.61197700  1
  O  O99  1  0.25055850  0.84813750  0.11144200  1
  O  O100  1  0.07227700  0.66422900  0.11418500  1
  O  O101  1  0.41653050  0.98261050  0.11240500  1
  O  O102  1  0.41587800  0.84596400  0.38883600  1
  O  O103  1  0.08027850  0.49127750  0.38802300  1
  O  O104  1  0.41589400  0.84855600  0.88718300  1
  O  O105  1  0.40494900  0.66891000  0.61429900  1
  O  O106  1  0.08346950  0.48261050  0.88759500  1
  O  O107  1  0.40538400  0.66365600  0.11477400  1
  O  O108  1  0.76196250  0.16354650  0.38530700  1
  O  O109  1  0.58412200  0.84596400  0.61116400  1
  O  O110  1  0.76140700  0.17186300  0.88478600  1
  O  O111  1  0.74966800  0.98377800  0.61179900  1
  O  O112  1  0.58410600  0.84855600  0.11281700  1
  O  O113  1  0.75324750  0.98822650  0.11181800  1
  O  O114  1  0.74721600  0.84650700  0.38759500  1
  O  O115  1  0.59505100  0.66891000  0.38570100  1
  O  O116  1  0.91627500  0.98324900  0.38692500  1
  O  O117  1  0.74944150  0.84813750  0.88855800  1
  O  O118  1  0.73803750  0.66354650  0.61469300  1
  O  O119  1  0.91606800  0.85136800  0.61261000  1
  O  O120  1  0.59461600  0.66365600  0.88522600  1
  O  O121  1  0.91297100  0.98853100  0.88815200  1
  O  O122  1  0.58372500  0.48324900  0.61307500  1
  O  O123  1  0.73859300  0.67186300  0.11521400  1
  O  O124  1  0.92196900  0.84451900  0.11253000  1
  O  O125  1  0.58702900  0.48853100  0.11184800  1
  O  O126  1  0.58393200  0.35136800  0.38739000  1
  O  O127  1  0.75033200  0.48377800  0.38820100  1
  O  O128  1  0.92726750  0.66645150  0.38664200  1
  O  O129  1  0.57803100  0.34451900  0.88747000  1
  O  O130  1  0.75278400  0.34650700  0.61240500  1
  O  O131  1  0.57273250  0.16645150  0.61335800  1
  O  O132  1  0.74675250  0.48822650  0.88818200  1
  O  O133  1  0.92772300  0.66422900  0.88581500  1
  O  O134  1  0.91972150  0.49127750  0.61197700  1
  O  O135  1  0.75055850  0.34813750  0.11144200  1
  O  O136  1  0.57227700  0.16422900  0.11418500  1
  O  O137  1  0.91653050  0.48261050  0.11240500  1
  O  O138  1  0.91587800  0.34596400  0.38883600  1
  O  O139  1  0.58027850  0.99127750  0.38802300  1
  O  O140  1  0.91589400  0.34855600  0.88718300  1
  O  O141  1  0.90494900  0.16891000  0.61429900  1
  O  O142  1  0.58346950  0.98261050  0.88759500  1
  O  O143  1  0.90538400  0.16365600  0.11477400  1
