# generated using pymatgen
data_Fe2O3
_symmetry_space_group_name_H-M   'P 1'
_cell_length_a   5.14466510
_cell_length_b   5.28838435
_cell_length_c   7.51141745
_cell_angle_alpha   90.00000000
_cell_angle_beta   90.00000000
_cell_angle_gamma   90.00000000
_symmetry_Int_Tables_number   1
_chemical_formula_structural   Fe2O3
_chemical_formula_sum   'Fe8 O12'
_cell_volume   204.36288229
_cell_formula_units_Z   4
loop_
 _symmetry_equiv_pos_site_id
 _symmetry_equiv_pos_as_xyz
  1  'x, y, z'
loop_
 _atom_site_type_symbol
 _atom_site_label
 _atom_site_symmetry_multiplicity
 _atom_site_fract_x
 _atom_site_fract_y
 _atom_site_fract_z
 _atom_site_occupancy
  Fe  Fe0  1  0.99738200  0.97079600  0.11192100  1
  Fe  Fe1  1  0.99844000  0.53057900  0.88542900  1
  Fe  Fe2  1  0.50156000  0.03057900  0.88542900  1
  Fe  Fe3  1  0.00261800  0.02920400  0.61192100  1
  Fe  Fe4  1  0.49738200  0.52920400  0.61192100  1
  Fe  Fe5  1  0.49844000  0.96942100  0.38542900  1
  Fe  Fe6  1  0.50261800  0.47079600  0.11192100  1
  Fe  Fe7  1  0.00156000  0.46942100  0.38542900  1
  O  O8  1  0.19677900  0.74689400  0.50199700  1
  O  O9  1  0.30322100  0.24689400  0.50199700  1
  O  O10  1  0.80322100  0.25310600  0.00199700  1
  O  O11  1  0.69677900  0.75310600  0.00199700  1
  O  O12  1  0.63860400  0.89549100  0.65275000  1
  O  O13  1  0.86139600  0.39549100  0.65275000  1
  O  O14  1  0.13751300  0.90048200  0.84891400  1
  O  O15  1  0.36248700  0.40048200  0.84891400  1
  O  O16  1  0.86248700  0.09951800  0.34891400  1
  O  O17  1  0.36139600  0.10450900  0.15275000  1
  O  O18  1  0.63751300  0.59951800  0.34891400  1
  O  O19  1  0.13860400  0.60450900  0.15275000  1
