# generated using pymatgen
data_NiH10C2(N2O3)2
_symmetry_space_group_name_H-M   'P 1'
_cell_length_a   11.65842600
_cell_length_b   6.99537200
_cell_length_c   10.46150220
_cell_angle_alpha   90.00000000
_cell_angle_beta   109.88010777
_cell_angle_gamma   90.00000000
_symmetry_Int_Tables_number   1
_chemical_formula_structural   NiH10C2(N2O3)2
_chemical_formula_sum   'Ni4 H40 C8 N16 O24'
_cell_volume   802.34341011
_cell_formula_units_Z   4
loop_
 _symmetry_equiv_pos_site_id
 _symmetry_equiv_pos_as_xyz
  1  'x, y, z'
loop_
 _atom_site_type_symbol
 _atom_site_label
 _atom_site_symmetry_multiplicity
 _atom_site_fract_x
 _atom_site_fract_y
 _atom_site_fract_z
 _atom_site_occupancy
  Ni  Ni0  1  0.00000000  0.00000000  0.00000000  1
  Ni  Ni1  1  0.00000000  0.00000000  0.50000000  1
  Ni  Ni2  1  0.50000000  0.50000000  0.00000000  1
  Ni  Ni3  1  0.50000000  0.50000000  0.50000000  1
  H  H4  1  0.68261300  0.83258000  0.78463600  1
  H  H5  1  0.31738700  0.83258000  0.71536400  1
  H  H6  1  0.31738700  0.16742000  0.21536400  1
  H  H7  1  0.68261300  0.16742000  0.28463600  1
  H  H8  1  0.38574350  0.21368450  0.84596600  1
  H  H9  1  0.61425650  0.21368450  0.65403400  1
  H  H10  1  0.61425650  0.78631550  0.15403400  1
  H  H11  1  0.38574350  0.78631550  0.34596600  1
  H  H12  1  0.87003750  0.90208850  0.74245700  1
  H  H13  1  0.12996250  0.90208850  0.75754300  1
  H  H14  1  0.12996250  0.09791150  0.25754300  1
  H  H15  1  0.87003750  0.09791150  0.24245700  1
  H  H16  1  0.59745250  0.15409350  0.06271000  1
  H  H17  1  0.40254750  0.15409350  0.43729000  1
  H  H18  1  0.40254750  0.84590650  0.93729000  1
  H  H19  1  0.59745250  0.84590650  0.56271000  1
  H  H20  1  0.47538150  0.16156550  0.09500600  1
  H  H21  1  0.52461850  0.16156550  0.40499400  1
  H  H22  1  0.52461850  0.83843450  0.90499400  1
  H  H23  1  0.47538150  0.83843450  0.59500600  1
  H  H24  1  0.18261300  0.33258000  0.78463600  1
  H  H25  1  0.81738700  0.33258000  0.71536400  1
  H  H26  1  0.81738700  0.66742000  0.21536400  1
  H  H27  1  0.18261300  0.66742000  0.28463600  1
  H  H28  1  0.88574350  0.71368450  0.84596600  1
  H  H29  1  0.11425650  0.71368450  0.65403400  1
  H  H30  1  0.11425650  0.28631550  0.15403400  1
  H  H31  1  0.88574350  0.28631550  0.34596600  1
  H  H32  1  0.37003750  0.40208850  0.74245700  1
  H  H33  1  0.62996250  0.40208850  0.75754300  1
  H  H34  1  0.62996250  0.59791150  0.25754300  1
  H  H35  1  0.37003750  0.59791150  0.24245700  1
  H  H36  1  0.09745250  0.65409350  0.06271000  1
  H  H37  1  0.90254750  0.65409350  0.43729000  1
  H  H38  1  0.90254750  0.34590650  0.93729000  1
  H  H39  1  0.09745250  0.34590650  0.56271000  1
  H  H40  1  0.97538150  0.66156550  0.09500600  1
  H  H41  1  0.02461850  0.66156550  0.40499400  1
  H  H42  1  0.02461850  0.33843450  0.90499400  1
  H  H43  1  0.97538150  0.33843450  0.59500600  1
  C  C44  1  0.75236500  0.97442200  0.96832400  1
  C  C45  1  0.24763500  0.97442200  0.53167600  1
  C  C46  1  0.24763500  0.02557800  0.03167600  1
  C  C47  1  0.75236500  0.02557800  0.46832400  1
  C  C48  1  0.25236500  0.47442200  0.96832400  1
  C  C49  1  0.74763500  0.47442200  0.53167600  1
  C  C50  1  0.74763500  0.52557800  0.03167600  1
  C  C51  1  0.25236500  0.52557800  0.46832400  1
  N  N52  1  0.75788600  0.90077000  0.84916800  1
  N  N53  1  0.24211400  0.90077000  0.65083200  1
  N  N54  1  0.24211400  0.09923000  0.15083200  1
  N  N55  1  0.75788600  0.09923000  0.34916800  1
  N  N56  1  0.37259900  0.35872800  0.83785000  1
  N  N57  1  0.62740100  0.35872800  0.66215000  1
  N  N58  1  0.62740100  0.64127200  0.16215000  1
  N  N59  1  0.37259900  0.64127200  0.33785000  1
  N  N60  1  0.25788600  0.40077000  0.84916800  1
  N  N61  1  0.74211400  0.40077000  0.65083200  1
  N  N62  1  0.74211400  0.59923000  0.15083200  1
  N  N63  1  0.25788600  0.59923000  0.34916800  1
  N  N64  1  0.87259900  0.85872800  0.83785000  1
  N  N65  1  0.12740100  0.85872800  0.66215000  1
  N  N66  1  0.12740100  0.14127200  0.16215000  1
  N  N67  1  0.87259900  0.14127200  0.33785000  1
  O  O68  1  0.85120700  0.03040900  0.05924400  1
  O  O69  1  0.14879300  0.03040900  0.44075600  1
  O  O70  1  0.14879300  0.96959100  0.94075600  1
  O  O71  1  0.85120700  0.96959100  0.55924400  1
  O  O72  1  0.64656150  0.98426250  0.97933600  1
  O  O73  1  0.35343850  0.98426250  0.52066400  1
  O  O74  1  0.35343850  0.01573750  0.02066400  1
  O  O75  1  0.64656150  0.01573750  0.47933600  1
  O  O76  1  0.55295050  0.23416450  0.11056300  1
  O  O77  1  0.44704950  0.23416450  0.38943700  1
  O  O78  1  0.44704950  0.76583550  0.88943700  1
  O  O79  1  0.55295050  0.76583550  0.61056300  1
  O  O80  1  0.35120700  0.53040900  0.05924400  1
  O  O81  1  0.64879300  0.53040900  0.44075600  1
  O  O82  1  0.64879300  0.46959100  0.94075600  1
  O  O83  1  0.35120700  0.46959100  0.55924400  1
  O  O84  1  0.14656150  0.48426250  0.97933600  1
  O  O85  1  0.85343850  0.48426250  0.52066400  1
  O  O86  1  0.85343850  0.51573750  0.02066400  1
  O  O87  1  0.14656150  0.51573750  0.47933600  1
  O  O88  1  0.05295050  0.73416450  0.11056300  1
  O  O89  1  0.94704950  0.73416450  0.38943700  1
  O  O90  1  0.94704950  0.26583550  0.88943700  1
  O  O91  1  0.05295050  0.26583550  0.61056300  1
