# generated using pymatgen
data_Li2Cu(SiO3)2
_symmetry_space_group_name_H-M   'P 1'
_cell_length_a   7.15570400
_cell_length_b   7.27589000
_cell_length_c   19.52135800
_cell_angle_alpha   90.00000000
_cell_angle_beta   90.00000000
_cell_angle_gamma   90.00000000
_symmetry_Int_Tables_number   1
_chemical_formula_structural   Li2Cu(SiO3)2
_chemical_formula_sum   'Li16 Cu8 Si16 O48'
_cell_volume   1016.36223131
_cell_formula_units_Z   8
loop_
 _symmetry_equiv_pos_site_id
 _symmetry_equiv_pos_as_xyz
  1  'x, y, z'
loop_
 _atom_site_type_symbol
 _atom_site_label
 _atom_site_symmetry_multiplicity
 _atom_site_fract_x
 _atom_site_fract_y
 _atom_site_fract_z
 _atom_site_occupancy
  Li  Li0  1  0.77884000  0.02719050  0.66834150  1
  Li  Li1  1  0.02884000  0.27719050  0.58165850  1
  Li  Li2  1  0.52884000  0.72280950  0.91834150  1
  Li  Li3  1  0.27884000  0.97280950  0.83165850  1
  Li  Li4  1  0.27884000  0.02719050  0.16834150  1
  Li  Li5  1  0.52884000  0.27719050  0.08165850  1
  Li  Li6  1  0.02884000  0.72280950  0.41834150  1
  Li  Li7  1  0.77884000  0.97280950  0.33165850  1
  Li  Li8  1  0.27884000  0.52719050  0.66834150  1
  Li  Li9  1  0.52884000  0.77719050  0.58165850  1
  Li  Li10  1  0.02884000  0.22280950  0.91834150  1
  Li  Li11  1  0.77884000  0.47280950  0.83165850  1
  Li  Li12  1  0.77884000  0.52719050  0.16834150  1
  Li  Li13  1  0.02884000  0.77719050  0.08165850  1
  Li  Li14  1  0.52884000  0.22280950  0.41834150  1
  Li  Li15  1  0.27884000  0.47280950  0.33165850  1
  Cu  Cu16  1  0.79957800  0.00000000  0.50000000  1
  Cu  Cu17  1  0.04957800  0.25000000  0.75000000  1
  Cu  Cu18  1  0.29957800  0.00000000  0.00000000  1
  Cu  Cu19  1  0.54957800  0.25000000  0.25000000  1
  Cu  Cu20  1  0.29957800  0.50000000  0.50000000  1
  Cu  Cu21  1  0.54957800  0.75000000  0.75000000  1
  Cu  Cu22  1  0.79957800  0.50000000  0.00000000  1
  Cu  Cu23  1  0.04957800  0.75000000  0.25000000  1
  Si  Si24  1  0.21975800  0.94867150  0.66864150  1
  Si  Si25  1  0.96975800  0.69867150  0.58135850  1
  Si  Si26  1  0.46975800  0.30132850  0.91864150  1
  Si  Si27  1  0.71975800  0.05132850  0.83135850  1
  Si  Si28  1  0.71975800  0.94867150  0.16864150  1
  Si  Si29  1  0.46975800  0.69867150  0.08135850  1
  Si  Si30  1  0.96975800  0.30132850  0.41864150  1
  Si  Si31  1  0.21975800  0.05132850  0.33135850  1
  Si  Si32  1  0.71975800  0.44867150  0.66864150  1
  Si  Si33  1  0.46975800  0.19867150  0.58135850  1
  Si  Si34  1  0.96975800  0.80132850  0.91864150  1
  Si  Si35  1  0.21975800  0.55132850  0.83135850  1
  Si  Si36  1  0.21975800  0.44867150  0.16864150  1
  Si  Si37  1  0.96975800  0.19867150  0.08135850  1
  Si  Si38  1  0.46975800  0.80132850  0.41864150  1
  Si  Si39  1  0.71975800  0.55132850  0.33135850  1
  O  O40  1  0.14236500  0.00407600  0.74453300  1
  O  O41  1  0.37500850  0.78454900  0.66724250  1
  O  O42  1  0.28681850  0.14174300  0.63022650  1
  O  O43  1  0.03681850  0.89174300  0.61977350  1
  O  O44  1  0.62500850  0.03454900  0.58275750  1
  O  O45  1  0.89236500  0.75407600  0.50546700  1
  O  O46  1  0.39236500  0.24592400  0.99453300  1
  O  O47  1  0.12500850  0.96545100  0.91724250  1
  O  O48  1  0.53681850  0.10825700  0.88022650  1
  O  O49  1  0.28681850  0.35825700  0.86977350  1
  O  O50  1  0.37500850  0.71545100  0.83275750  1
  O  O51  1  0.64236500  0.99592400  0.75546700  1
  O  O52  1  0.64236500  0.00407600  0.24453300  1
  O  O53  1  0.87500850  0.78454900  0.16724250  1
  O  O54  1  0.78681850  0.14174300  0.13022650  1
  O  O55  1  0.53681850  0.89174300  0.11977350  1
  O  O56  1  0.12500850  0.03454900  0.08275750  1
  O  O57  1  0.39236500  0.75407600  0.00546700  1
  O  O58  1  0.89236500  0.24592400  0.49453300  1
  O  O59  1  0.62500850  0.96545100  0.41724250  1
  O  O60  1  0.03681850  0.10825700  0.38022650  1
  O  O61  1  0.78681850  0.35825700  0.36977350  1
  O  O62  1  0.87500850  0.71545100  0.33275750  1
  O  O63  1  0.14236500  0.99592400  0.25546700  1
  O  O64  1  0.64236500  0.50407600  0.74453300  1
  O  O65  1  0.87500850  0.28454900  0.66724250  1
  O  O66  1  0.78681850  0.64174300  0.63022650  1
  O  O67  1  0.53681850  0.39174300  0.61977350  1
  O  O68  1  0.12500850  0.53454900  0.58275750  1
  O  O69  1  0.39236500  0.25407600  0.50546700  1
  O  O70  1  0.89236500  0.74592400  0.99453300  1
  O  O71  1  0.62500850  0.46545100  0.91724250  1
  O  O72  1  0.03681850  0.60825700  0.88022650  1
  O  O73  1  0.78681850  0.85825700  0.86977350  1
  O  O74  1  0.87500850  0.21545100  0.83275750  1
  O  O75  1  0.14236500  0.49592400  0.75546700  1
  O  O76  1  0.14236500  0.50407600  0.24453300  1
  O  O77  1  0.37500850  0.28454900  0.16724250  1
  O  O78  1  0.28681850  0.64174300  0.13022650  1
  O  O79  1  0.03681850  0.39174300  0.11977350  1
  O  O80  1  0.62500850  0.53454900  0.08275750  1
  O  O81  1  0.89236500  0.25407600  0.00546700  1
  O  O82  1  0.39236500  0.74592400  0.49453300  1
  O  O83  1  0.12500850  0.46545100  0.41724250  1
  O  O84  1  0.53681850  0.60825700  0.38022650  1
  O  O85  1  0.28681850  0.85825700  0.36977350  1
  O  O86  1  0.37500850  0.21545100  0.33275750  1
  O  O87  1  0.64236500  0.49592400  0.25546700  1
