# generated using pymatgen
data_MgSiH12(OF)6
_symmetry_space_group_name_H-M   'P 1'
_cell_length_a   6.63070300
_cell_length_b   9.50141800
_cell_length_c   8.45837705
_cell_angle_alpha   90.00000000
_cell_angle_beta   100.59424650
_cell_angle_gamma   90.00000000
_symmetry_Int_Tables_number   1
_chemical_formula_structural   MgSiH12(OF)6
_chemical_formula_sum   'Mg2 Si2 H24 O12 F12'
_cell_volume   523.80320829
_cell_formula_units_Z   2
loop_
 _symmetry_equiv_pos_site_id
 _symmetry_equiv_pos_as_xyz
  1  'x, y, z'
loop_
 _atom_site_type_symbol
 _atom_site_label
 _atom_site_symmetry_multiplicity
 _atom_site_fract_x
 _atom_site_fract_y
 _atom_site_fract_z
 _atom_site_occupancy
  Mg  Mg0  1  0.00000000  0.50000000  0.50000000  1
  Mg  Mg1  1  0.00000000  0.00000000  0.00000000  1
  Si  Si2  1  0.50000000  0.00000000  0.50000000  1
  Si  Si3  1  0.50000000  0.50000000  0.00000000  1
  H  H4  1  0.04291300  0.56406600  0.81972100  1
  H  H5  1  0.04291300  0.93593400  0.31972100  1
  H  H6  1  0.19215500  0.02381800  0.73967000  1
  H  H7  1  0.24648200  0.32848600  0.70484100  1
  H  H8  1  0.19215500  0.47618200  0.23967000  1
  H  H9  1  0.25091900  0.26796000  0.53090200  1
  H  H10  1  0.26614000  0.72408100  0.52193100  1
  H  H11  1  0.24648200  0.17151400  0.20484100  1
  H  H12  1  0.36934200  0.60302800  0.63877700  1
  H  H13  1  0.25091900  0.23204000  0.03090200  1
  H  H14  1  0.26614000  0.77591900  0.02193100  1
  H  H15  1  0.36934200  0.89697200  0.13877700  1
  H  H16  1  0.63065800  0.10302800  0.86122300  1
  H  H17  1  0.73386000  0.22408100  0.97806900  1
  H  H18  1  0.74908100  0.76796000  0.96909800  1
  H  H19  1  0.63065800  0.39697200  0.36122300  1
  H  H20  1  0.75351800  0.82848600  0.79515900  1
  H  H21  1  0.73386000  0.27591900  0.47806900  1
  H  H22  1  0.74908100  0.73204000  0.46909800  1
  H  H23  1  0.80784500  0.52381800  0.76033000  1
  H  H24  1  0.75351800  0.67151400  0.29515900  1
  H  H25  1  0.80784500  0.97618200  0.26033000  1
  H  H26  1  0.95708700  0.06406600  0.68027900  1
  H  H27  1  0.95708700  0.43593400  0.18027900  1
  O  O28  1  0.06086700  0.03854900  0.77416100  1
  O  O29  1  0.06086700  0.46145100  0.27416100  1
  O  O30  1  0.17406800  0.32860600  0.59283600  1
  O  O31  1  0.25970800  0.62364600  0.54653100  1
  O  O32  1  0.17406800  0.17139400  0.09283600  1
  O  O33  1  0.25970800  0.87635400  0.04653100  1
  O  O34  1  0.74029200  0.12364600  0.95346900  1
  O  O35  1  0.82593200  0.82860600  0.90716400  1
  O  O36  1  0.74029200  0.37635400  0.45346900  1
  O  O37  1  0.82593200  0.67139400  0.40716400  1
  O  O38  1  0.93913300  0.53854900  0.72583900  1
  O  O39  1  0.93913300  0.96145100  0.22583900  1
  F  F40  1  0.27242700  0.59280700  0.96779100  1
  F  F41  1  0.27242700  0.90719300  0.46779100  1
  F  F42  1  0.37450500  0.35280000  0.91150000  1
  F  F43  1  0.37450500  0.14720000  0.41150000  1
  F  F44  1  0.45266400  0.05398600  0.68391400  1
  F  F45  1  0.54733600  0.55398600  0.81608600  1
  F  F46  1  0.45266400  0.44601400  0.18391400  1
  F  F47  1  0.54733600  0.94601400  0.31608600  1
  F  F48  1  0.62549500  0.85280000  0.58850000  1
  F  F49  1  0.62549500  0.64720000  0.08850000  1
  F  F50  1  0.72757300  0.09280700  0.53220900  1
  F  F51  1  0.72757300  0.40719300  0.03220900  1
