# generated using pymatgen
data_Ca5Ta4O15
_symmetry_space_group_name_H-M   'P 1'
_cell_length_a   5.53723013
_cell_length_b   5.53723013
_cell_length_c   23.45547800
_cell_angle_alpha   90.00000000
_cell_angle_beta   90.00000000
_cell_angle_gamma   120.00000000
_symmetry_Int_Tables_number   1
_chemical_formula_structural   Ca5Ta4O15
_chemical_formula_sum   'Ca10 Ta8 O30'
_cell_volume   622.81643856
_cell_formula_units_Z   2
loop_
 _symmetry_equiv_pos_site_id
 _symmetry_equiv_pos_as_xyz
  1  'x, y, z'
loop_
 _atom_site_type_symbol
 _atom_site_label
 _atom_site_symmetry_multiplicity
 _atom_site_fract_x
 _atom_site_fract_y
 _atom_site_fract_z
 _atom_site_occupancy
  Ca  Ca0  1  0.33333333  0.66666667  0.23100400  1
  Ca  Ca1  1  0.33333333  0.66666667  0.38126000  1
  Ca  Ca2  1  0.00000000  0.00000000  0.00000000  1
  Ca  Ca3  1  0.00000000  0.00000000  0.50000000  1
  Ca  Ca4  1  0.33333333  0.66666667  0.73100400  1
  Ca  Ca5  1  0.33333333  0.66666667  0.88126000  1
  Ca  Ca6  1  0.66666667  0.33333333  0.11874000  1
  Ca  Ca7  1  0.66666667  0.33333333  0.26899600  1
  Ca  Ca8  1  0.66666667  0.33333333  0.61874000  1
  Ca  Ca9  1  0.66666667  0.33333333  0.76899600  1
  Ta  Ta10  1  0.33333333  0.66666667  0.05223300  1
  Ta  Ta11  1  0.00000000  0.00000000  0.15651100  1
  Ta  Ta12  1  0.00000000  0.00000000  0.34348900  1
  Ta  Ta13  1  0.00000000  0.00000000  0.65651100  1
  Ta  Ta14  1  0.00000000  0.00000000  0.84348900  1
  Ta  Ta15  1  0.33333333  0.66666667  0.55223300  1
  Ta  Ta16  1  0.66666667  0.33333333  0.44776700  1
  Ta  Ta17  1  0.66666667  0.33333333  0.94776700  1
  O  O18  1  0.07799033  0.73998667  0.80657500  1
  O  O19  1  0.09993333  0.77653267  0.09595800  1
  O  O20  1  0.22346733  0.90006667  0.59595800  1
  O  O21  1  0.00000000  0.50000000  0.00000000  1
  O  O22  1  0.00000000  0.50000000  0.50000000  1
  O  O23  1  0.26001333  0.92200967  0.30657500  1
  O  O24  1  0.07799033  0.33800367  0.30657500  1
  O  O25  1  0.09993333  0.32340067  0.59595800  1
  O  O26  1  0.22346733  0.32340067  0.09595800  1
  O  O27  1  0.26001333  0.33800367  0.80657500  1
  O  O28  1  0.33800367  0.26001333  0.69342500  1
  O  O29  1  0.66199633  0.92200967  0.80657500  1
  O  O30  1  0.32340067  0.22346733  0.40404200  1
  O  O31  1  0.32340067  0.09993333  0.90404200  1
  O  O32  1  0.50000000  0.50000000  0.00000000  1
  O  O33  1  0.50000000  0.50000000  0.50000000  1
  O  O34  1  0.67659933  0.90006667  0.09595800  1
  O  O35  1  0.67659933  0.77653267  0.59595800  1
  O  O36  1  0.33800367  0.07799033  0.19342500  1
  O  O37  1  0.66199633  0.73998667  0.30657500  1
  O  O38  1  0.73998667  0.66199633  0.19342500  1
  O  O39  1  0.77653267  0.67659933  0.90404200  1
  O  O40  1  0.50000000  0.00000000  0.00000000  1
  O  O41  1  0.50000000  0.00000000  0.50000000  1
  O  O42  1  0.90006667  0.67659933  0.40404200  1
  O  O43  1  0.92200967  0.66199633  0.69342500  1
  O  O44  1  0.73998667  0.07799033  0.69342500  1
  O  O45  1  0.77653267  0.09993333  0.40404200  1
  O  O46  1  0.90006667  0.22346733  0.90404200  1
  O  O47  1  0.92200967  0.26001333  0.19342500  1
