# generated using pymatgen
data_KCaP3H4O11
_symmetry_space_group_name_H-M   'P 1'
_cell_length_a   7.91373000
_cell_length_b   12.82600400
_cell_length_c   20.56169229
_cell_angle_alpha   90.00000000
_cell_angle_beta   90.68682094
_cell_angle_gamma   90.00000000
_symmetry_Int_Tables_number   1
_chemical_formula_structural   KCaP3H4O11
_chemical_formula_sum   'K8 Ca8 P24 H32 O88'
_cell_volume   2086.89333380
_cell_formula_units_Z   8
loop_
 _symmetry_equiv_pos_site_id
 _symmetry_equiv_pos_as_xyz
  1  'x, y, z'
loop_
 _atom_site_type_symbol
 _atom_site_label
 _atom_site_symmetry_multiplicity
 _atom_site_fract_x
 _atom_site_fract_y
 _atom_site_fract_z
 _atom_site_occupancy
  K  K0  1  0.98688300  0.26936000  0.66333900  1
  K  K1  1  0.01311700  0.76936000  0.83666100  1
  K  K2  1  0.01311700  0.73064000  0.33666100  1
  K  K3  1  0.98688300  0.23064000  0.16333900  1
  K  K4  1  0.73696300  0.44950300  0.83434600  1
  K  K5  1  0.26303700  0.94950300  0.66565400  1
  K  K6  1  0.26303700  0.55049700  0.16565400  1
  K  K7  1  0.73696300  0.05049700  0.33434600  1
  Ca  Ca8  1  0.50860200  0.24552900  0.62445100  1
  Ca  Ca9  1  0.49139800  0.74552900  0.87554900  1
  Ca  Ca10  1  0.49139800  0.75447100  0.37554900  1
  Ca  Ca11  1  0.50860200  0.25447100  0.12445100  1
  Ca  Ca12  1  0.00028000  0.69630800  0.58691100  1
  Ca  Ca13  1  0.99972000  0.19630800  0.91308900  1
  Ca  Ca14  1  0.99972000  0.30369200  0.41308900  1
  Ca  Ca15  1  0.00028000  0.80369200  0.08691100  1
  P  P16  1  0.68549400  0.17155900  0.78315500  1
  P  P17  1  0.31450600  0.67155900  0.71684500  1
  P  P18  1  0.31450600  0.82844100  0.21684500  1
  P  P19  1  0.68549400  0.32844100  0.28315500  1
  P  P20  1  0.66869900  0.00775600  0.88288500  1
  P  P21  1  0.33130100  0.50775600  0.61711500  1
  P  P22  1  0.33130100  0.99224400  0.11711500  1
  P  P23  1  0.66869900  0.49224400  0.38288500  1
  P  P24  1  0.70082000  0.49575100  0.63858100  1
  P  P25  1  0.29918000  0.99575100  0.86141900  1
  P  P26  1  0.29918000  0.50424900  0.36141900  1
  P  P27  1  0.70082000  0.00424900  0.13858100  1
  P  P28  1  0.31605800  0.18566000  0.78175800  1
  P  P29  1  0.68394200  0.68566000  0.71824200  1
  P  P30  1  0.68394200  0.81434000  0.21824200  1
  P  P31  1  0.31605800  0.31434000  0.28175800  1
  P  P32  1  0.83194100  0.38620500  0.02087900  1
  P  P33  1  0.16805900  0.88620500  0.47912100  1
  P  P34  1  0.16805900  0.61379500  0.97912100  1
  P  P35  1  0.83194100  0.11379500  0.52087900  1
  P  P36  1  0.21106700  0.38886100  0.01688900  1
  P  P37  1  0.78893300  0.88886100  0.48311100  1
  P  P38  1  0.78893300  0.61113900  0.98311100  1
  P  P39  1  0.21106700  0.11113900  0.51688900  1
  H  H40  1  0.08753200  0.36810300  0.79804700  1
  H  H41  1  0.91246800  0.86810300  0.70195300  1
  H  H42  1  0.91246800  0.63189700  0.20195300  1
  H  H43  1  0.08753200  0.13189700  0.29804700  1
  H  H44  1  0.86886500  0.96434200  0.74381800  1
  H  H45  1  0.13113500  0.46434200  0.75618200  1
  H  H46  1  0.13113500  0.03565800  0.25618200  1
  H  H47  1  0.86886500  0.53565800  0.24381800  1
  H  H48  1  0.41350200  0.19855200  0.99435500  1
  H  H49  1  0.58649800  0.69855200  0.50564500  1
  H  H50  1  0.58649800  0.80144800  0.00564500  1
  H  H51  1  0.41350200  0.30144800  0.49435500  1
  H  H52  1  0.39859900  0.83755300  0.01532700  1
  H  H53  1  0.60140100  0.33755300  0.48467300  1
  H  H54  1  0.60140100  0.16244700  0.98467300  1
  H  H55  1  0.39859900  0.66244700  0.51532700  1
  H  H56  1  0.04973100  0.92613600  0.96367000  1
  H  H57  1  0.95026900  0.42613600  0.53633000  1
  H  H58  1  0.95026900  0.07386400  0.03633000  1
  H  H59  1  0.04973100  0.57386400  0.46367000  1
  H  H60  1  0.12247300  0.36911000  0.55008400  1
  H  H61  1  0.87752700  0.86911000  0.94991600  1
  H  H62  1  0.87752700  0.63089000  0.44991600  1
  H  H63  1  0.12247300  0.13089000  0.05008400  1
  H  H64  1  0.35375800  0.39090500  0.86327400  1
  H  H65  1  0.64624200  0.89090500  0.63672600  1
  H  H66  1  0.64624200  0.60909500  0.13672600  1
  H  H67  1  0.35375800  0.10909500  0.36327400  1
  H  H68  1  0.62781800  0.01092300  0.63780700  1
  H  H69  1  0.37218200  0.51092300  0.86219300  1
  H  H70  1  0.37218200  0.98907700  0.36219300  1
  H  H71  1  0.62781800  0.48907700  0.13780700  1
  O  O72  1  0.81876000  0.23281900  0.81893300  1
  O  O73  1  0.18124000  0.73281900  0.68106700  1
  O  O74  1  0.18124000  0.76718100  0.18106700  1
  O  O75  1  0.81876000  0.26718100  0.31893300  1
  O  O76  1  0.68539500  0.16722900  0.71053100  1
  O  O77  1  0.31460500  0.66722900  0.78946900  1
  O  O78  1  0.31460500  0.83277100  0.28946900  1
  O  O79  1  0.68539500  0.33277100  0.21053100  1
  O  O80  1  0.68789600  0.05041400  0.80831600  1
  O  O81  1  0.31210400  0.55041400  0.69168400  1
  O  O82  1  0.31210400  0.94958600  0.19168400  1
  O  O83  1  0.68789600  0.44958600  0.30831600  1
  O  O84  1  0.23115400  0.57549500  0.57116800  1
  O  O85  1  0.76884600  0.07549500  0.92883200  1
  O  O86  1  0.76884600  0.42450500  0.42883200  1
  O  O87  1  0.23115400  0.92450500  0.07116800  1
  O  O88  1  0.29726800  0.39255200  0.61963300  1
  O  O89  1  0.70273200  0.89255200  0.88036700  1
  O  O90  1  0.70273200  0.60744800  0.38036700  1
  O  O91  1  0.29726800  0.10744800  0.11963300  1
  O  O92  1  0.52836400  0.53259700  0.60177400  1
  O  O93  1  0.47163600  0.03259700  0.89822600  1
  O  O94  1  0.47163600  0.46740300  0.39822600  1
  O  O95  1  0.52836400  0.96740300  0.10177400  1
  O  O96  1  0.84631900  0.53504800  0.59925700  1
  O  O97  1  0.15368100  0.03504800  0.90074300  1
  O  O98  1  0.15368100  0.46495200  0.40074300  1
  O  O99  1  0.84631900  0.96495200  0.09925700  1
  O  O100  1  0.69062300  0.38302200  0.65644900  1
  O  O101  1  0.30937700  0.88302200  0.84355100  1
  O  O102  1  0.30937700  0.61697800  0.34355100  1
  O  O103  1  0.69062300  0.11697800  0.15644900  1
  O  O104  1  0.30758500  0.05972200  0.79266000  1
  O  O105  1  0.69241500  0.55972200  0.70734000  1
  O  O106  1  0.69241500  0.94027800  0.20734000  1
  O  O107  1  0.30758500  0.44027800  0.29266000  1
  O  O108  1  0.19321700  0.23940200  0.82568500  1
  O  O109  1  0.80678300  0.73940200  0.67431500  1
  O  O110  1  0.80678300  0.76059800  0.17431500  1
  O  O111  1  0.19321700  0.26059800  0.32568500  1
  O  O112  1  0.69545300  0.70155100  0.79031500  1
  O  O113  1  0.30454700  0.20155100  0.70968500  1
  O  O114  1  0.30454700  0.29844900  0.20968500  1
  O  O115  1  0.69545300  0.79844900  0.29031500  1
  O  O116  1  0.49585900  0.71492400  0.69091500  1
  O  O117  1  0.50414100  0.21492400  0.80908500  1
  O  O118  1  0.50414100  0.28507600  0.30908500  1
  O  O119  1  0.49585900  0.78507600  0.19091500  1
  O  O120  1  0.83757400  0.34373400  0.95269600  1
  O  O121  1  0.16242600  0.84373400  0.54730400  1
  O  O122  1  0.16242600  0.65626600  0.04730400  1
  O  O123  1  0.83757400  0.15626600  0.45269600  1
  O  O124  1  0.25454000  0.66873900  0.92518600  1
  O  O125  1  0.74546000  0.16873900  0.57481400  1
  O  O126  1  0.74546000  0.33126100  0.07481400  1
  O  O127  1  0.25454000  0.83126100  0.42518600  1
  O  O128  1  0.24596200  0.49684300  0.97863600  1
  O  O129  1  0.75403800  0.99684300  0.52136400  1
  O  O130  1  0.75403800  0.50315700  0.02136400  1
  O  O131  1  0.24596200  0.00315700  0.47863600  1
  O  O132  1  0.21102400  0.30289400  0.96717800  1
  O  O133  1  0.78897600  0.80289400  0.53282200  1
  O  O134  1  0.78897600  0.69710600  0.03282200  1
  O  O135  1  0.21102400  0.19710600  0.46717800  1
  O  O136  1  0.67175200  0.61890900  0.92549700  1
  O  O137  1  0.32824800  0.11890900  0.57450300  1
  O  O138  1  0.32824800  0.38109100  0.07450300  1
  O  O139  1  0.67175200  0.88109100  0.42549700  1
  O  O140  1  0.97503700  0.59245400  0.95233700  1
  O  O141  1  0.02496300  0.09245400  0.54766300  1
  O  O142  1  0.02496300  0.40754600  0.04766300  1
  O  O143  1  0.97503700  0.90754600  0.45233700  1
  O  O144  1  0.96445500  0.92118600  0.73023800  1
  O  O145  1  0.03554500  0.42118600  0.76976200  1
  O  O146  1  0.03554500  0.07881400  0.26976200  1
  O  O147  1  0.96445500  0.57881400  0.23023800  1
  O  O148  1  0.48114100  0.81792500  0.98260900  1
  O  O149  1  0.51885900  0.31792500  0.51739100  1
  O  O150  1  0.51885900  0.18207500  0.01739100  1
  O  O151  1  0.48114100  0.68207500  0.48260900  1
  O  O152  1  0.01139500  0.36059900  0.52861400  1
  O  O153  1  0.98860500  0.86059900  0.97138600  1
  O  O154  1  0.98860500  0.63940100  0.47138600  1
  O  O155  1  0.01139500  0.13940100  0.02861400  1
  O  O156  1  0.59887300  0.94806600  0.66188500  1
  O  O157  1  0.40112700  0.44806600  0.83811500  1
  O  O158  1  0.40112700  0.05193400  0.33811500  1
  O  O159  1  0.59887300  0.55193400  0.16188500  1
