# generated using pymatgen
data_Dy2TiO5
_symmetry_space_group_name_H-M   'P 1'
_cell_length_a   4.08417200
_cell_length_b   11.09983600
_cell_length_c   10.52765100
_cell_angle_alpha   90.00000000
_cell_angle_beta   90.00000000
_cell_angle_gamma   90.00000000
_symmetry_Int_Tables_number   1
_chemical_formula_structural   Dy2TiO5
_chemical_formula_sum   'Dy8 Ti4 O20'
_cell_volume   477.25673412
_cell_formula_units_Z   4
loop_
 _symmetry_equiv_pos_site_id
 _symmetry_equiv_pos_as_xyz
  1  'x, y, z'
loop_
 _atom_site_type_symbol
 _atom_site_label
 _atom_site_symmetry_multiplicity
 _atom_site_fract_x
 _atom_site_fract_y
 _atom_site_fract_z
 _atom_site_occupancy
  Dy  Dy0  1  0.50000000  0.35667300  0.42969600  1
  Dy  Dy1  1  0.50000000  0.35667300  0.07030400  1
  Dy  Dy2  1  0.00000000  0.14332700  0.57030400  1
  Dy  Dy3  1  0.00000000  0.14332700  0.92969600  1
  Dy  Dy4  1  0.00000000  0.85667300  0.42969600  1
  Dy  Dy5  1  0.00000000  0.85667300  0.07030400  1
  Dy  Dy6  1  0.50000000  0.64332700  0.57030400  1
  Dy  Dy7  1  0.50000000  0.64332700  0.92969600  1
  Ti  Ti8  1  0.50000000  0.33025900  0.75000000  1
  Ti  Ti9  1  0.00000000  0.16974100  0.25000000  1
  Ti  Ti10  1  0.00000000  0.83025900  0.75000000  1
  Ti  Ti11  1  0.50000000  0.66974100  0.25000000  1
  O  O12  1  0.50000000  0.44923000  0.87643300  1
  O  O13  1  0.50000000  0.44923000  0.62356700  1
  O  O14  1  0.00000000  0.28864500  0.40782800  1
  O  O15  1  0.00000000  0.28864500  0.09217200  1
  O  O16  1  0.50000000  0.22317600  0.25000000  1
  O  O17  1  0.00000000  0.27682400  0.75000000  1
  O  O18  1  0.50000000  0.21135500  0.59217200  1
  O  O19  1  0.50000000  0.21135500  0.90782800  1
  O  O20  1  0.00000000  0.05077000  0.12356700  1
  O  O21  1  0.00000000  0.05077000  0.37643300  1
  O  O22  1  0.00000000  0.94923000  0.87643300  1
  O  O23  1  0.00000000  0.94923000  0.62356700  1
  O  O24  1  0.50000000  0.78864500  0.40782800  1
  O  O25  1  0.50000000  0.78864500  0.09217200  1
  O  O26  1  0.00000000  0.72317600  0.25000000  1
  O  O27  1  0.50000000  0.77682400  0.75000000  1
  O  O28  1  0.00000000  0.71135500  0.59217200  1
  O  O29  1  0.00000000  0.71135500  0.90782800  1
  O  O30  1  0.50000000  0.55077000  0.12356700  1
  O  O31  1  0.50000000  0.55077000  0.37643300  1
