# generated using pymatgen
data_Rb10NaAl11Si13O48
_symmetry_space_group_name_H-M   'P 1'
_cell_length_a   12.06775200
_cell_length_b   12.24154962
_cell_length_c   12.65427480
_cell_angle_alpha   90.56706033
_cell_angle_beta   90.15788844
_cell_angle_gamma   90.16477495
_symmetry_Int_Tables_number   1
_chemical_formula_structural   Rb10NaAl11Si13O48
_chemical_formula_sum   'Rb10 Na1 Al11 Si13 O48'
_cell_volume   1869.28398652
_cell_formula_units_Z   1
loop_
 _symmetry_equiv_pos_site_id
 _symmetry_equiv_pos_as_xyz
  1  'x, y, z'
loop_
 _atom_site_type_symbol
 _atom_site_label
 _atom_site_symmetry_multiplicity
 _atom_site_fract_x
 _atom_site_fract_y
 _atom_site_fract_z
 _atom_site_occupancy
  Rb  Rb0  1  0.53350800  0.50543000  0.98002400  1
  Rb  Rb1  1  0.25420500  0.73787700  0.73783500  1
  Rb  Rb2  1  0.74390300  0.74128500  0.75564800  1
  Rb  Rb3  1  0.49378300  0.01272800  0.43298000  1
  Rb  Rb4  1  0.00186200  0.49861700  0.44583600  1
  Rb  Rb5  1  0.26682600  0.26700700  0.27881600  1
  Rb  Rb6  1  0.74913100  0.24333600  0.26386100  1
  Rb  Rb7  1  0.23704100  0.75979200  0.26482100  1
  Rb  Rb8  1  0.73737800  0.69996500  0.32223200  1
  Rb  Rb9  1  0.07620200  0.11502700  0.04402000  1
  Na  Na10  1  0.86262800  0.85396300  0.16869300  1
  Al  Al11  1  0.62530800  0.81068000  0.00417600  1
  Al  Al12  1  0.99400800  0.80538100  0.62392300  1
  Al  Al13  1  0.19156100  0.00943100  0.39313300  1
  Al  Al14  1  0.00531400  0.19387400  0.39338000  1
  Al  Al15  1  0.80343000  0.00147100  0.38327600  1
  Al  Al16  1  0.99136400  0.81112200  0.38384500  1
  Al  Al17  1  0.35234800  0.99682900  0.17295400  1
  Al  Al18  1  0.63181200  0.99055100  0.17755300  1
  Al  Al19  1  0.00032600  0.36302800  0.18223000  1
  Al  Al20  1  0.99348700  0.63496500  0.17301300  1
  Al  Al21  1  0.80824700  0.62095800  0.00098800  1
  Si  Si22  1  0.36834700  0.00151100  0.81899500  1
  Si  Si23  1  0.61879900  0.99890100  0.81722800  1
  Si  Si24  1  0.99955800  0.36247500  0.82072700  1
  Si  Si25  1  0.99833300  0.60971500  0.81195400  1
  Si  Si26  1  0.18552700  0.99637600  0.62812100  1
  Si  Si27  1  0.99430900  0.18139500  0.63314700  1
  Si  Si28  1  0.80610900  0.99945100  0.63100500  1
  Si  Si29  1  0.36992800  0.18421400  0.00253600  1
  Si  Si30  1  0.62760100  0.17673400  0.99972600  1
  Si  Si31  1  0.18861400  0.37218600  0.00135900  1
  Si  Si32  1  0.81895600  0.35770700  0.00371200  1
  Si  Si33  1  0.18297100  0.62361900  0.99206400  1
  Si  Si34  1  0.35773900  0.82061800  0.99864300  1
  O  O35  1  0.30168400  0.29934400  0.98550400  1
  O  O36  1  0.23447000  0.49884400  0.00878300  1
  O  O37  1  0.70231000  0.28827400  0.99007100  1
  O  O38  1  0.29090300  0.70317700  0.97278100  1
  O  O39  1  0.77635900  0.48106400  0.02325800  1
  O  O40  1  0.48206400  0.78414600  0.02441600  1
  O  O41  1  0.68159800  0.68261500  0.96836100  1
  O  O42  1  0.35442700  0.10799200  0.89689200  1
  O  O43  1  0.10998600  0.35371200  0.89727400  1
  O  O44  1  0.63193400  0.11138400  0.88716500  1
  O  O45  1  0.11674600  0.62173700  0.87878300  1
  O  O46  1  0.88900900  0.34718000  0.89233500  1
  O  O47  1  0.35079100  0.88721300  0.88481200  1
  O  O48  1  0.89255000  0.62811500  0.88600500  1
  O  O49  1  0.63700500  0.89157100  0.88736500  1
  O  O50  1  0.49155200  0.99931000  0.76526300  1
  O  O51  1  0.99837100  0.48240500  0.76302800  1
  O  O52  1  0.27330300  0.00351900  0.72956400  1
  O  O53  1  0.00713800  0.26580300  0.73524300  1
  O  O54  1  0.70364400  0.99925000  0.71816600  1
  O  O55  1  0.00383200  0.69631000  0.71731900  1
  O  O56  1  0.10295800  0.10155100  0.63951100  1
  O  O57  1  0.88211000  0.10913500  0.65416700  1
  O  O58  1  0.11773000  0.88223700  0.64346200  1
  O  O59  1  0.87770800  0.88897100  0.65332200  1
  O  O60  1  0.25946900  0.99824500  0.52129000  1
  O  O61  1  0.98904100  0.25098400  0.52555600  1
  O  O62  1  0.74855900  0.00190200  0.51541900  1
  O  O63  1  0.98045200  0.73830500  0.50356200  1
  O  O64  1  0.13773800  0.14005900  0.38464700  1
  O  O65  1  0.89336500  0.11035400  0.36219200  1
  O  O66  1  0.10285900  0.90004000  0.37604400  1
  O  O67  1  0.86175600  0.87279100  0.35060800  1
  O  O68  1  0.29794000  0.00024200  0.29891200  1
  O  O69  1  0.68541900  0.02068700  0.30315400  1
  O  O70  1  0.00552100  0.30514900  0.30592800  1
  O  O71  1  0.01394400  0.70783500  0.28871600  1
  O  O72  1  0.49072200  0.97703000  0.18723500  1
  O  O73  1  0.98416300  0.49926100  0.20398900  1
  O  O74  1  0.31858200  0.12310500  0.10454100  1
  O  O75  1  0.66636400  0.10877400  0.10003400  1
  O  O76  1  0.12585300  0.33124800  0.10703200  1
  O  O77  1  0.89349100  0.30548200  0.09822000  1
  O  O78  1  0.11220100  0.66252100  0.09128500  1
  O  O79  1  0.87140800  0.68022600  0.11136100  1
  O  O80  1  0.29317800  0.89126800  0.08853600  1
  O  O81  1  0.68767600  0.87352600  0.11443500  1
  O  O82  1  0.49895000  0.22398800  0.01589600  1
