# generated using pymatgen
data_P2H16N4O7
_symmetry_space_group_name_H-M   'P 1'
_cell_length_a   11.86322600
_cell_length_b   6.51739200
_cell_length_c   13.78735854
_cell_angle_alpha   90.00000000
_cell_angle_beta   104.92724817
_cell_angle_gamma   90.00000000
_symmetry_Int_Tables_number   1
_chemical_formula_structural   P2H16N4O7
_chemical_formula_sum   'P8 H64 N16 O28'
_cell_volume   1030.02764297
_cell_formula_units_Z   4
loop_
 _symmetry_equiv_pos_site_id
 _symmetry_equiv_pos_as_xyz
  1  'x, y, z'
loop_
 _atom_site_type_symbol
 _atom_site_label
 _atom_site_symmetry_multiplicity
 _atom_site_fract_x
 _atom_site_fract_y
 _atom_site_fract_z
 _atom_site_occupancy
  P  P0  1  0.59348400  0.85429200  0.84758700  1
  P  P1  1  0.90651600  0.35429200  0.65241300  1
  P  P2  1  0.90651600  0.64570800  0.15241300  1
  P  P3  1  0.59348400  0.14570800  0.34758700  1
  P  P4  1  0.09348400  0.35429200  0.84758700  1
  P  P5  1  0.40651600  0.85429200  0.65241300  1
  P  P6  1  0.40651600  0.14570800  0.15241300  1
  P  P7  1  0.09348400  0.64570800  0.34758700  1
  H  H8  1  0.71436750  0.24208950  0.88707100  1
  H  H9  1  0.78563250  0.74208950  0.61292900  1
  H  H10  1  0.78563250  0.25791050  0.11292900  1
  H  H11  1  0.71436750  0.75791050  0.38707100  1
  H  H12  1  0.82065950  0.32468950  0.83509100  1
  H  H13  1  0.67934050  0.82468950  0.66490900  1
  H  H14  1  0.67934050  0.17531050  0.16490900  1
  H  H15  1  0.82065950  0.67531050  0.33509100  1
  H  H16  1  0.72324400  0.49857600  0.85169700  1
  H  H17  1  0.77675600  0.99857600  0.64830300  1
  H  H18  1  0.77675600  0.00142400  0.14830300  1
  H  H19  1  0.72324400  0.50142400  0.35169700  1
  H  H20  1  0.81832100  0.40386500  0.95509400  1
  H  H21  1  0.68167900  0.90386500  0.54490600  1
  H  H22  1  0.68167900  0.09613500  0.04490600  1
  H  H23  1  0.81832100  0.59613500  0.45509400  1
  H  H24  1  0.84312600  0.79804300  0.85072600  1
  H  H25  1  0.65687400  0.29804300  0.64927400  1
  H  H26  1  0.65687400  0.70195700  0.14927400  1
  H  H27  1  0.84312600  0.20195700  0.35072600  1
  H  H28  1  0.96052700  0.96826300  0.88120200  1
  H  H29  1  0.53947300  0.46826300  0.61879800  1
  H  H30  1  0.53947300  0.53173700  0.11879800  1
  H  H31  1  0.96052700  0.03173700  0.38120200  1
  H  H32  1  0.92842950  0.81650550  0.97065100  1
  H  H33  1  0.57157050  0.31650550  0.52934900  1
  H  H34  1  0.57157050  0.68349450  0.02934900  1
  H  H35  1  0.92842950  0.18349450  0.47065100  1
  H  H36  1  0.98827100  0.71253200  0.88593300  1
  H  H37  1  0.51172900  0.21253200  0.61406700  1
  H  H38  1  0.51172900  0.78746800  0.11406700  1
  H  H39  1  0.98827100  0.28746800  0.38593300  1
  H  H40  1  0.21436750  0.74208950  0.88707100  1
  H  H41  1  0.28563250  0.24208950  0.61292900  1
  H  H42  1  0.28563250  0.75791050  0.11292900  1
  H  H43  1  0.21436750  0.25791050  0.38707100  1
  H  H44  1  0.32065950  0.82468950  0.83509100  1
  H  H45  1  0.17934050  0.32468950  0.66490900  1
  H  H46  1  0.17934050  0.67531050  0.16490900  1
  H  H47  1  0.32065950  0.17531050  0.33509100  1
  H  H48  1  0.22324400  0.99857600  0.85169700  1
  H  H49  1  0.27675600  0.49857600  0.64830300  1
  H  H50  1  0.27675600  0.50142400  0.14830300  1
  H  H51  1  0.22324400  0.00142400  0.35169700  1
  H  H52  1  0.31832100  0.90386500  0.95509400  1
  H  H53  1  0.18167900  0.40386500  0.54490600  1
  H  H54  1  0.18167900  0.59613500  0.04490600  1
  H  H55  1  0.31832100  0.09613500  0.45509400  1
  H  H56  1  0.34312600  0.29804300  0.85072600  1
  H  H57  1  0.15687400  0.79804300  0.64927400  1
  H  H58  1  0.15687400  0.20195700  0.14927400  1
  H  H59  1  0.34312600  0.70195700  0.35072600  1
  H  H60  1  0.46052700  0.46826300  0.88120200  1
  H  H61  1  0.03947300  0.96826300  0.61879800  1
  H  H62  1  0.03947300  0.03173700  0.11879800  1
  H  H63  1  0.46052700  0.53173700  0.38120200  1
  H  H64  1  0.42842950  0.31650550  0.97065100  1
  H  H65  1  0.07157050  0.81650550  0.52934900  1
  H  H66  1  0.07157050  0.18349450  0.02934900  1
  H  H67  1  0.42842950  0.68349450  0.47065100  1
  H  H68  1  0.48827100  0.21253200  0.88593300  1
  H  H69  1  0.01172900  0.71253200  0.61406700  1
  H  H70  1  0.01172900  0.28746800  0.11406700  1
  H  H71  1  0.48827100  0.78746800  0.38593300  1
  N  N72  1  0.76965750  0.36692850  0.88238800  1
  N  N73  1  0.73034250  0.86692850  0.61761200  1
  N  N74  1  0.73034250  0.13307150  0.11761200  1
  N  N75  1  0.76965750  0.63307150  0.38238800  1
  N  N76  1  0.92841050  0.82307950  0.89450300  1
  N  N77  1  0.57158950  0.32307950  0.60549700  1
  N  N78  1  0.57158950  0.67692050  0.10549700  1
  N  N79  1  0.92841050  0.17692050  0.39450300  1
  N  N80  1  0.26965750  0.86692850  0.88238800  1
  N  N81  1  0.23034250  0.36692850  0.61761200  1
  N  N82  1  0.23034250  0.63307150  0.11761200  1
  N  N83  1  0.26965750  0.13307150  0.38238800  1
  N  N84  1  0.42841050  0.32307950  0.89450300  1
  N  N85  1  0.07158950  0.82307950  0.60549700  1
  N  N86  1  0.07158950  0.17692050  0.10549700  1
  N  N87  1  0.42841050  0.67692050  0.39450300  1
  O  O88  1  0.00000000  0.45485300  0.75000000  1
  O  O89  1  0.00000000  0.54514700  0.25000000  1
  O  O90  1  0.52906200  0.69915400  0.89705000  1
  O  O91  1  0.97093800  0.19915400  0.60295000  1
  O  O92  1  0.97093800  0.80084600  0.10295000  1
  O  O93  1  0.52906200  0.30084600  0.39705000  1
  O  O94  1  0.63081000  0.04682100  0.91270100  1
  O  O95  1  0.86919000  0.54682100  0.58729900  1
  O  O96  1  0.86919000  0.45317900  0.08729900  1
  O  O97  1  0.63081000  0.95317900  0.41270100  1
  O  O98  1  0.69053250  0.75656350  0.80749000  1
  O  O99  1  0.80946750  0.25656350  0.69251000  1
  O  O100  1  0.80946750  0.74343650  0.19251000  1
  O  O101  1  0.69053250  0.24343650  0.30749000  1
  O  O102  1  0.50000000  0.95485300  0.75000000  1
  O  O103  1  0.50000000  0.04514700  0.25000000  1
  O  O104  1  0.02906200  0.19915400  0.89705000  1
  O  O105  1  0.47093800  0.69915400  0.60295000  1
  O  O106  1  0.47093800  0.30084600  0.10295000  1
  O  O107  1  0.02906200  0.80084600  0.39705000  1
  O  O108  1  0.13081000  0.54682100  0.91270100  1
  O  O109  1  0.36919000  0.04682100  0.58729900  1
  O  O110  1  0.36919000  0.95317900  0.08729900  1
  O  O111  1  0.13081000  0.45317900  0.41270100  1
  O  O112  1  0.19053250  0.25656350  0.80749000  1
  O  O113  1  0.30946750  0.75656350  0.69251000  1
  O  O114  1  0.30946750  0.24343650  0.19251000  1
  O  O115  1  0.19053250  0.74343650  0.30749000  1
