# generated using pymatgen
data_Ho2(WO4)3
_symmetry_space_group_name_H-M   'P 1'
_cell_length_a   10.13067400
_cell_length_b   10.24516400
_cell_length_c   17.32454450
_cell_angle_alpha   90.00000000
_cell_angle_beta   125.44742552
_cell_angle_gamma   90.00000000
_symmetry_Int_Tables_number   1
_chemical_formula_structural   Ho2(WO4)3
_chemical_formula_sum   'Ho8 W12 O48'
_cell_volume   1464.83628783
_cell_formula_units_Z   4
loop_
 _symmetry_equiv_pos_site_id
 _symmetry_equiv_pos_as_xyz
  1  'x, y, z'
loop_
 _atom_site_type_symbol
 _atom_site_label
 _atom_site_symmetry_multiplicity
 _atom_site_fract_x
 _atom_site_fract_y
 _atom_site_fract_z
 _atom_site_occupancy
  Ho  Ho0  1  0.36589500  0.02927600  0.11812900  1
  Ho  Ho1  1  0.86228600  0.96641600  0.61801600  1
  Ho  Ho2  1  0.13771400  0.46641600  0.88198400  1
  Ho  Ho3  1  0.63410500  0.52927600  0.38187100  1
  Ho  Ho4  1  0.36589500  0.47072400  0.61812900  1
  Ho  Ho5  1  0.86228600  0.53358400  0.11801600  1
  Ho  Ho6  1  0.13771400  0.03358400  0.38198400  1
  Ho  Ho7  1  0.63410500  0.97072400  0.88187100  1
  W  W8  1  0.52585000  0.25121100  0.49989500  1
  W  W9  1  0.24711400  0.38066600  0.14339700  1
  W  W10  1  0.96463900  0.11995300  0.85714800  1
  W  W11  1  0.03536100  0.61995300  0.64285200  1
  W  W12  1  0.75288600  0.88066600  0.35660300  1
  W  W13  1  0.47415000  0.75121100  0.00010500  1
  W  W14  1  0.52585000  0.24878900  0.99989500  1
  W  W15  1  0.24711400  0.11933400  0.64339700  1
  W  W16  1  0.96463900  0.38004700  0.35714800  1
  W  W17  1  0.03536100  0.88004700  0.14285200  1
  W  W18  1  0.75288600  0.61933400  0.85660300  1
  W  W19  1  0.47415000  0.74878900  0.50010500  1
  O  O20  1  0.20200300  0.90134900  0.13204700  1
  O  O21  1  0.49685800  0.65595200  0.41910200  1
  O  O22  1  0.66607400  0.82501100  0.58930800  1
  O  O23  1  0.93599800  0.58940800  0.86301000  1
  O  O24  1  0.67898900  0.12632100  0.56550500  1
  O  O25  1  0.29860700  0.20817300  0.16557400  1
  O  O26  1  0.97620400  0.29047400  0.83328300  1
  O  O27  1  0.58679000  0.35857600  0.44269400  1
  O  O28  1  0.93233100  0.01809200  0.76187700  1
  O  O29  1  0.41344600  0.47923100  0.23700000  1
  O  O30  1  0.21170000  0.42277500  0.03115900  1
  O  O31  1  0.15212200  0.07255500  0.96726700  1
  O  O32  1  0.84787800  0.57255500  0.53273300  1
  O  O33  1  0.78830000  0.92277500  0.46884100  1
  O  O34  1  0.58655400  0.97923100  0.26300000  1
  O  O35  1  0.06766900  0.51809200  0.73812300  1
  O  O36  1  0.41321000  0.85857600  0.05730600  1
  O  O37  1  0.02379600  0.79047400  0.66671700  1
  O  O38  1  0.70139300  0.70817300  0.33442600  1
  O  O39  1  0.32101100  0.62632100  0.93449500  1
  O  O40  1  0.50314200  0.15595200  0.08089800  1
  O  O41  1  0.06400200  0.08940800  0.63699000  1
  O  O42  1  0.33392600  0.32501100  0.91069200  1
  O  O43  1  0.79799700  0.40134900  0.36795300  1
  O  O44  1  0.20200300  0.59865100  0.63204700  1
  O  O45  1  0.66607400  0.67498900  0.08930800  1
  O  O46  1  0.93599800  0.91059200  0.36301000  1
  O  O47  1  0.49685800  0.84404800  0.91910200  1
  O  O48  1  0.67898900  0.37367900  0.06550500  1
  O  O49  1  0.29860700  0.29182700  0.66557400  1
  O  O50  1  0.97620400  0.20952600  0.33328300  1
  O  O51  1  0.58679000  0.14142400  0.94269400  1
  O  O52  1  0.93233100  0.48190800  0.26187700  1
  O  O53  1  0.41344600  0.02076900  0.73700000  1
  O  O54  1  0.21170000  0.07722500  0.53115900  1
  O  O55  1  0.15212200  0.42744500  0.46726700  1
  O  O56  1  0.84787800  0.92744500  0.03273300  1
  O  O57  1  0.78830000  0.57722500  0.96884100  1
  O  O58  1  0.58655400  0.52076900  0.76300000  1
  O  O59  1  0.06766900  0.98190800  0.23812300  1
  O  O60  1  0.41321000  0.64142400  0.55730600  1
  O  O61  1  0.02379600  0.70952600  0.16671700  1
  O  O62  1  0.70139300  0.79182700  0.83442600  1
  O  O63  1  0.32101100  0.87367900  0.43449500  1
  O  O64  1  0.06400200  0.41059200  0.13699000  1
  O  O65  1  0.33392600  0.17498900  0.41069200  1
  O  O66  1  0.50314200  0.34404800  0.58089800  1
  O  O67  1  0.79799700  0.09865100  0.86795300  1
