# generated using pymatgen
data_ZrPbF6
_symmetry_space_group_name_H-M   'P 1'
_cell_length_a   7.68309400
_cell_length_b   11.26389800
_cell_length_c   5.46866800
_cell_angle_alpha   90.00000000
_cell_angle_beta   90.00000000
_cell_angle_gamma   90.00000000
_symmetry_Int_Tables_number   1
_chemical_formula_structural   ZrPbF6
_chemical_formula_sum   'Zr4 Pb4 F24'
_cell_volume   473.26720826
_cell_formula_units_Z   4
loop_
 _symmetry_equiv_pos_site_id
 _symmetry_equiv_pos_as_xyz
  1  'x, y, z'
loop_
 _atom_site_type_symbol
 _atom_site_label
 _atom_site_symmetry_multiplicity
 _atom_site_fract_x
 _atom_site_fract_y
 _atom_site_fract_z
 _atom_site_occupancy
  Zr  Zr0  1  0.75000000  0.00000000  0.00000000  1
  Zr  Zr1  1  0.25000000  0.00000000  0.00000000  1
  Zr  Zr2  1  0.25000000  0.50000000  0.00000000  1
  Zr  Zr3  1  0.75000000  0.50000000  0.00000000  1
  Pb  Pb4  1  0.50000000  0.25000000  0.52637800  1
  Pb  Pb5  1  0.50000000  0.75000000  0.47362200  1
  Pb  Pb6  1  0.00000000  0.75000000  0.52637800  1
  Pb  Pb7  1  0.00000000  0.25000000  0.47362200  1
  F  F8  1  0.31215750  0.12718150  0.25744600  1
  F  F9  1  0.18784250  0.87281850  0.25744600  1
  F  F10  1  0.31215750  0.87281850  0.74255400  1
  F  F11  1  0.18784250  0.12718150  0.74255400  1
  F  F12  1  0.50000000  0.92652800  0.15511700  1
  F  F13  1  0.50000000  0.57347200  0.15511700  1
  F  F14  1  0.50000000  0.07347200  0.84488300  1
  F  F15  1  0.50000000  0.42652800  0.84488300  1
  F  F16  1  0.81215750  0.87281850  0.25744600  1
  F  F17  1  0.68784250  0.12718150  0.25744600  1
  F  F18  1  0.81215750  0.12718150  0.74255400  1
  F  F19  1  0.68784250  0.87281850  0.74255400  1
  F  F20  1  0.81215750  0.62718150  0.25744600  1
  F  F21  1  0.68784250  0.37281850  0.25744600  1
  F  F22  1  0.81215750  0.37281850  0.74255400  1
  F  F23  1  0.68784250  0.62718150  0.74255400  1
  F  F24  1  0.00000000  0.42652800  0.15511700  1
  F  F25  1  0.00000000  0.07347200  0.15511700  1
  F  F26  1  0.00000000  0.57347200  0.84488300  1
  F  F27  1  0.00000000  0.92652800  0.84488300  1
  F  F28  1  0.31215750  0.37281850  0.25744600  1
  F  F29  1  0.18784250  0.62718150  0.25744600  1
  F  F30  1  0.31215750  0.62718150  0.74255400  1
  F  F31  1  0.18784250  0.37281850  0.74255400  1
