# generated using pymatgen
data_Ba3Zr2O7
_symmetry_space_group_name_H-M   'P 1'
_cell_length_a   4.25684400
_cell_length_b   4.25684400
_cell_length_c   22.09314400
_cell_angle_alpha   90.00000000
_cell_angle_beta   90.00000000
_cell_angle_gamma   90.00000000
_symmetry_Int_Tables_number   1
_chemical_formula_structural   Ba3Zr2O7
_chemical_formula_sum   'Ba6 Zr4 O14'
_cell_volume   400.34369491
_cell_formula_units_Z   2
loop_
 _symmetry_equiv_pos_site_id
 _symmetry_equiv_pos_as_xyz
  1  'x, y, z'
loop_
 _atom_site_type_symbol
 _atom_site_label
 _atom_site_symmetry_multiplicity
 _atom_site_fract_x
 _atom_site_fract_y
 _atom_site_fract_z
 _atom_site_occupancy
  Ba  Ba0  1  0.00000000  0.00000000  0.00000000  1
  Ba  Ba1  1  0.50000000  0.50000000  0.31447700  1
  Ba  Ba2  1  0.00000000  0.00000000  0.18552300  1
  Ba  Ba3  1  0.50000000  0.50000000  0.50000000  1
  Ba  Ba4  1  0.00000000  0.00000000  0.81447700  1
  Ba  Ba5  1  0.50000000  0.50000000  0.68552300  1
  Zr  Zr6  1  0.50000000  0.50000000  0.09736600  1
  Zr  Zr7  1  0.00000000  0.00000000  0.40263400  1
  Zr  Zr8  1  0.00000000  0.00000000  0.59736600  1
  Zr  Zr9  1  0.50000000  0.50000000  0.90263400  1
  O  O10  1  0.50000000  0.00000000  0.09619300  1
  O  O11  1  0.50000000  0.50000000  0.00000000  1
  O  O12  1  0.50000000  0.50000000  0.19318900  1
  O  O13  1  0.50000000  0.00000000  0.40380700  1
  O  O14  1  0.00000000  0.50000000  0.09619300  1
  O  O15  1  0.00000000  0.00000000  0.30681100  1
  O  O16  1  0.00000000  0.50000000  0.40380700  1
  O  O17  1  0.00000000  0.50000000  0.59619300  1
  O  O18  1  0.00000000  0.00000000  0.50000000  1
  O  O19  1  0.00000000  0.00000000  0.69318900  1
  O  O20  1  0.00000000  0.50000000  0.90380700  1
  O  O21  1  0.50000000  0.00000000  0.59619300  1
  O  O22  1  0.50000000  0.50000000  0.80681100  1
  O  O23  1  0.50000000  0.00000000  0.90380700  1
