# generated using pymatgen
data_CoB12H28(NO15)2
_symmetry_space_group_name_H-M   'P 1'
_cell_length_a   7.56478200
_cell_length_b   7.91858939
_cell_length_c   11.14140850
_cell_angle_alpha   107.92410840
_cell_angle_beta   94.89258388
_cell_angle_gamma   90.38458973
_symmetry_Int_Tables_number   1
_chemical_formula_structural   CoB12H28(NO15)2
_chemical_formula_sum   'Co1 B12 H28 N2 O30'
_cell_volume   632.30874666
_cell_formula_units_Z   1
loop_
 _symmetry_equiv_pos_site_id
 _symmetry_equiv_pos_as_xyz
  1  'x, y, z'
loop_
 _atom_site_type_symbol
 _atom_site_label
 _atom_site_symmetry_multiplicity
 _atom_site_fract_x
 _atom_site_fract_y
 _atom_site_fract_z
 _atom_site_occupancy
  Co  Co0  1  0.00000000  0.00000000  0.00000000  1
  B  B1  1  0.17080400  0.70158600  0.11594100  1
  B  B2  1  0.82919600  0.29841400  0.88405900  1
  B  B3  1  0.33048100  0.01273500  0.20433700  1
  B  B4  1  0.66951900  0.98726500  0.79566300  1
  B  B5  1  0.12795400  0.89151700  0.34822700  1
  B  B6  1  0.87204600  0.10848300  0.65177300  1
  B  B7  1  0.10835900  0.56461900  0.28467700  1
  B  B8  1  0.89164100  0.43538100  0.71532300  1
  B  B9  1  0.46103600  0.76219800  0.04499100  1
  B  B10  1  0.53896400  0.23780200  0.95500900  1
  B  B11  1  0.35028800  0.14365800  0.43938700  1
  B  B12  1  0.64971200  0.85634200  0.56061300  1
  H  H13  1  0.97639600  0.65072000  0.96807800  1
  H  H14  1  0.02360400  0.34928000  0.03192200  1
  H  H15  1  0.28022000  0.18367100  0.10303800  1
  H  H16  1  0.71978000  0.81632900  0.89696200  1
  H  H17  1  0.88006700  0.96172900  0.39667300  1
  H  H18  1  0.11993300  0.03827100  0.60332700  1
  H  H19  1  0.11301700  0.30280800  0.25540400  1
  H  H20  1  0.88698300  0.69719200  0.74459600  1
  H  H21  1  0.61315700  0.57714200  0.94061200  1
  H  H22  1  0.38684300  0.42285800  0.05938800  1
  H  H23  1  0.38833100  0.29423900  0.62492200  1
  H  H24  1  0.61166900  0.70576100  0.37507800  1
  H  H25  1  0.31668400  0.51761700  0.56175400  1
  H  H26  1  0.68331600  0.48238300  0.43824600  1
  H  H27  1  0.21413500  0.68398000  0.52037100  1
  H  H28  1  0.78586500  0.31602000  0.47962900  1
  H  H29  1  0.17623000  0.64541000  0.65703400  1
  H  H30  1  0.82377000  0.35459000  0.34296600  1
  H  H31  1  0.38035500  0.73007500  0.63977300  1
  H  H32  1  0.61964500  0.26992500  0.36022700  1
  H  H33  1  0.30502300  0.96711900  0.87744000  1
  H  H34  1  0.69497700  0.03288100  0.12256000  1
  H  H35  1  0.13171400  0.97102700  0.78887100  1
  H  H36  1  0.86828600  0.02897300  0.21112900  1
  H  H37  1  0.29330700  0.46286800  0.85385100  1
  H  H38  1  0.70669300  0.53713200  0.14614900  1
  H  H39  1  0.20462200  0.27933600  0.76962300  1
  H  H40  1  0.79537800  0.72066400  0.23037700  1
  N  N41  1  0.27179800  0.64519300  0.59619700  1
  N  N42  1  0.72820200  0.35480700  0.40380300  1
  O  O43  1  0.02804100  0.75361900  0.03767500  1
  O  O44  1  0.97195900  0.24638100  0.96232500  1
  O  O45  1  0.20681400  0.11585400  0.14449500  1
  O  O46  1  0.79318600  0.88414600  0.85550500  1
  O  O47  1  0.94469000  0.94081300  0.32029500  1
  O  O48  1  0.05531000  0.05918700  0.67970500  1
  O  O49  1  0.08431600  0.41424600  0.32016500  1
  O  O50  1  0.91568400  0.58575400  0.67983500  1
  O  O51  1  0.59646000  0.70650600  0.96685100  1
  O  O52  1  0.40354000  0.29349400  0.03314900  1
  O  O53  1  0.42302100  0.28426100  0.53949700  1
  O  O54  1  0.57697900  0.71573900  0.46050300  1
  O  O55  1  0.11586600  0.55398200  0.15908800  1
  O  O56  1  0.88413400  0.44601800  0.84091200  1
  O  O57  1  0.32778500  0.64253800  0.04429400  1
  O  O58  1  0.67221500  0.35746200  0.95570600  1
  O  O59  1  0.46591700  0.93585400  0.11840700  1
  O  O60  1  0.53408300  0.06414600  0.88159300  1
  O  O61  1  0.41469500  0.12681300  0.32432400  1
  O  O62  1  0.58530500  0.87318700  0.67567600  1
  O  O63  1  0.12646200  0.72438100  0.37902700  1
  O  O64  1  0.87353800  0.27561900  0.62097300  1
  O  O65  1  0.22363500  0.02810300  0.45361700  1
  O  O66  1  0.77636500  0.97189700  0.54638300  1
  O  O67  1  0.22296600  0.86448300  0.22767700  1
  O  O68  1  0.77703400  0.13551700  0.77232300  1
  O  O69  1  0.17992300  0.92274000  0.85840000  1
  O  O70  1  0.82007700  0.07726000  0.14160000  1
  O  O71  1  0.29054300  0.37426700  0.77038900  1
  O  O72  1  0.70945700  0.62573300  0.22961100  1
