# generated using pymatgen
data_Li4VCr3O8
_symmetry_space_group_name_H-M   'P 1'
_cell_length_a   5.15659611
_cell_length_b   5.96221586
_cell_length_c   10.71702929
_cell_angle_alpha   105.90492459
_cell_angle_beta   94.61416177
_cell_angle_gamma   107.03157945
_symmetry_Int_Tables_number   1
_chemical_formula_structural   Li4VCr3O8
_chemical_formula_sum   'Li8 V2 Cr6 O16'
_cell_volume   298.31805061
_cell_formula_units_Z   2
loop_
 _symmetry_equiv_pos_site_id
 _symmetry_equiv_pos_as_xyz
  1  'x, y, z'
loop_
 _atom_site_type_symbol
 _atom_site_label
 _atom_site_symmetry_multiplicity
 _atom_site_fract_x
 _atom_site_fract_y
 _atom_site_fract_z
 _atom_site_occupancy
  Li  Li0  1  0.00000000  0.50000000  0.00000000  1
  Li  Li1  1  0.25123707  0.87574904  0.74862005  1
  Li  Li2  1  0.74876293  0.12425096  0.25137995  1
  Li  Li3  1  0.49995842  0.74937058  0.50052516  1
  Li  Li4  1  0.00000000  0.00000000  0.00000000  1
  Li  Li5  1  0.24803262  0.37340195  0.74926648  1
  Li  Li6  1  0.75196738  0.62659805  0.25073352  1
  Li  Li7  1  0.50004158  0.25062942  0.49947484  1
  V  V8  1  0.62377775  0.68462751  0.87597999  1
  V  V9  1  0.37622225  0.31537249  0.12402000  1
  Cr  Cr10  1  0.12519245  0.93865361  0.37514735  1
  Cr  Cr11  1  0.62490553  0.18482725  0.87447369  1
  Cr  Cr12  1  0.87497161  0.56117158  0.62502161  1
  Cr  Cr13  1  0.37509447  0.81517275  0.12552630  1
  Cr  Cr14  1  0.12502839  0.43882843  0.37497839  1
  Cr  Cr15  1  0.87480755  0.06134639  0.62485265  1
  O  O16  1  0.83654403  0.09903029  0.43941994  1
  O  O17  1  0.41436485  0.27828797  0.31078596  1
  O  O18  1  0.33217434  0.34454985  0.93815995  1
  O  O19  1  0.91636904  0.52200558  0.80991410  1
  O  O20  1  0.16345597  0.90096972  0.56058006  1
  O  O21  1  0.58563515  0.72171202  0.68921404  1
  O  O22  1  0.08615432  0.97513767  0.18987877  1
  O  O23  1  0.66834422  0.15169080  0.05878620  1
  O  O24  1  0.83647166  0.59939535  0.43967416  1
  O  O25  1  0.41377481  0.77837818  0.31104622  1
  O  O26  1  0.33165578  0.84830920  0.94121380  1
  O  O27  1  0.91384568  0.02486234  0.81012122  1
  O  O28  1  0.58622519  0.22162182  0.68895378  1
  O  O29  1  0.08363095  0.47799443  0.19008590  1
  O  O30  1  0.16352834  0.40060466  0.56032584  1
  O  O31  1  0.66782566  0.65545015  0.06184004  1
