# generated using pymatgen
data_Li2V2SiGeO10
_symmetry_space_group_name_H-M   'P 1'
_cell_length_a   9.02847800
_cell_length_b   9.10858200
_cell_length_c   4.66678600
_cell_angle_alpha   90.00000000
_cell_angle_beta   90.00000000
_cell_angle_gamma   90.00000000
_symmetry_Int_Tables_number   1
_chemical_formula_structural   Li2V2SiGeO10
_chemical_formula_sum   'Li4 V4 Si2 Ge2 O20'
_cell_volume   383.78076383
_cell_formula_units_Z   2
loop_
 _symmetry_equiv_pos_site_id
 _symmetry_equiv_pos_as_xyz
  1  'x, y, z'
loop_
 _atom_site_type_symbol
 _atom_site_label
 _atom_site_symmetry_multiplicity
 _atom_site_fract_x
 _atom_site_fract_y
 _atom_site_fract_z
 _atom_site_occupancy
  Li  Li0  1  0.50000000  0.26006000  0.00000000  1
  Li  Li1  1  0.50000000  0.73994000  0.00000000  1
  Li  Li2  1  0.00000000  0.76006000  0.00000000  1
  Li  Li3  1  0.00000000  0.23994000  0.00000000  1
  V  V4  1  0.25000000  0.75000000  0.60885800  1
  V  V5  1  0.25000000  0.25000000  0.39114200  1
  V  V6  1  0.75000000  0.25000000  0.60885800  1
  V  V7  1  0.75000000  0.75000000  0.39114200  1
  Si  Si8  1  0.00000000  0.00000000  0.50000000  1
  Si  Si9  1  0.50000000  0.50000000  0.50000000  1
  Ge  Ge10  1  0.50000000  0.00000000  0.50000000  1
  Ge  Ge11  1  0.00000000  0.50000000  0.50000000  1
  O  O12  1  0.39802950  0.39305750  0.29431500  1
  O  O13  1  0.60197050  0.39305750  0.70568500  1
  O  O14  1  0.25000000  0.75000000  0.25903500  1
  O  O15  1  0.39802950  0.60694250  0.70568500  1
  O  O16  1  0.60197050  0.60694250  0.29431500  1
  O  O17  1  0.39404200  0.88687800  0.72949900  1
  O  O18  1  0.60595800  0.88687800  0.27050100  1
  O  O19  1  0.39404200  0.11312200  0.27050100  1
  O  O20  1  0.25000000  0.25000000  0.74096500  1
  O  O21  1  0.60595800  0.11312200  0.72949900  1
  O  O22  1  0.89802950  0.89305750  0.29431500  1
  O  O23  1  0.10197050  0.89305750  0.70568500  1
  O  O24  1  0.75000000  0.25000000  0.25903500  1
  O  O25  1  0.89802950  0.10694250  0.70568500  1
  O  O26  1  0.10197050  0.10694250  0.29431500  1
  O  O27  1  0.89404200  0.38687800  0.72949900  1
  O  O28  1  0.10595800  0.38687800  0.27050100  1
  O  O29  1  0.89404200  0.61312200  0.27050100  1
  O  O30  1  0.75000000  0.75000000  0.74096500  1
  O  O31  1  0.10595800  0.61312200  0.72949900  1
