# generated using pymatgen
data_LiMnF3
_symmetry_space_group_name_H-M   'P 1'
_cell_length_a   5.97504607
_cell_length_b   5.97504607
_cell_length_c   34.92985839
_cell_angle_alpha   90.00000000
_cell_angle_beta   90.00000000
_cell_angle_gamma   120.00000000
_symmetry_Int_Tables_number   1
_chemical_formula_structural   LiMnF3
_chemical_formula_sum   'Li18 Mn18 F54'
_cell_volume   1079.96572499
_cell_formula_units_Z   18
loop_
 _symmetry_equiv_pos_site_id
 _symmetry_equiv_pos_as_xyz
  1  'x, y, z'
loop_
 _atom_site_type_symbol
 _atom_site_label
 _atom_site_symmetry_multiplicity
 _atom_site_fract_x
 _atom_site_fract_y
 _atom_site_fract_z
 _atom_site_occupancy
  Li  Li0  1  0.66666667  0.64731433  0.08333333  1
  Li  Li1  1  0.98064767  0.33333333  0.08333333  1
  Li  Li2  1  0.31398100  0.31398100  0.25000000  1
  Li  Li3  1  0.35268567  0.01935233  0.08333333  1
  Li  Li4  1  0.68601900  0.00000000  0.25000000  1
  Li  Li5  1  0.00000000  0.68601900  0.25000000  1
  Li  Li6  1  0.33333333  0.98064767  0.41666667  1
  Li  Li7  1  0.64731433  0.66666667  0.41666667  1
  Li  Li8  1  0.98064767  0.64731433  0.58333333  1
  Li  Li9  1  0.01935233  0.35268567  0.41666667  1
  Li  Li10  1  0.35268567  0.33333333  0.58333333  1
  Li  Li11  1  0.66666667  0.01935233  0.58333333  1
  Li  Li12  1  0.00000000  0.31398100  0.75000000  1
  Li  Li13  1  0.31398100  0.00000000  0.75000000  1
  Li  Li14  1  0.64731433  0.98064767  0.91666667  1
  Li  Li15  1  0.68601900  0.68601900  0.75000000  1
  Li  Li16  1  0.01935233  0.66666667  0.91666667  1
  Li  Li17  1  0.33333333  0.35268567  0.91666667  1
  Mn  Mn18  1  0.33333333  0.66666667  0.16666667  1
  Mn  Mn19  1  0.66666667  0.33333333  0.17757033  1
  Mn  Mn20  1  0.33333333  0.66666667  0.32242967  1
  Mn  Mn21  1  0.33333333  0.66666667  0.01090367  1
  Mn  Mn22  1  0.00000000  0.00000000  0.15576300  1
  Mn  Mn23  1  0.00000000  0.00000000  0.00000000  1
  Mn  Mn24  1  1.00000000  0.00000000  0.50000000  1
  Mn  Mn25  1  0.33333333  0.66666667  0.51090367  1
  Mn  Mn26  1  0.00000000  0.00000000  0.65576300  1
  Mn  Mn27  1  0.00000000  0.00000000  0.34423700  1
  Mn  Mn28  1  0.66666667  0.33333333  0.48909633  1
  Mn  Mn29  1  0.66666667  0.33333333  0.33333333  1
  Mn  Mn30  1  0.66666667  0.33333333  0.83333333  1
  Mn  Mn31  1  0.00000000  0.00000000  0.84423700  1
  Mn  Mn32  1  0.66666667  0.33333333  0.98909633  1
  Mn  Mn33  1  0.66666667  0.33333333  0.67757033  1
  Mn  Mn34  1  0.33333333  0.66666667  0.82242967  1
  Mn  Mn35  1  0.33333333  0.66666667  0.66666667  1
  F  F36  1  0.64950633  0.64184767  0.14160667  1
  F  F37  1  0.68382700  0.65900800  0.02506000  1
  F  F38  1  0.33333333  0.66666667  0.07507367  1
  F  F39  1  0.32567467  0.30851433  0.30827333  1
  F  F40  1  0.30851433  0.32567467  0.19172667  1
  F  F41  1  0.99234133  0.35049367  0.14160667  1
  F  F42  1  0.66666667  0.33333333  0.08333333  1
  F  F43  1  0.97518100  0.31617300  0.02506000  1
  F  F44  1  0.66666667  0.33333333  0.24174033  1
  F  F45  1  0.00000000  0.00000000  0.09159300  1
  F  F46  1  0.69148567  0.01716033  0.30827333  1
  F  F47  1  0.00000000  0.00000000  0.25000000  1
  F  F48  1  0.67432533  0.98283967  0.19172667  1
  F  F49  1  0.35815233  0.00765867  0.14160667  1
  F  F50  1  0.34099200  0.02481900  0.02506000  1
  F  F51  1  0.33333333  0.66666667  0.25825967  1
  F  F52  1  0.98283967  0.67432533  0.30827333  1
  F  F53  1  0.01716033  0.69148567  0.19172667  1
  F  F54  1  0.31617300  0.97518100  0.47494000  1
  F  F55  1  0.35049367  0.99234133  0.35839333  1
  F  F56  1  0.00000000  0.00000000  0.40840700  1
  F  F57  1  0.99234133  0.64184767  0.64160667  1
  F  F58  1  0.97518100  0.65900800  0.52506000  1
  F  F59  1  0.65900800  0.68382700  0.47494000  1
  F  F60  1  0.33333333  0.66666667  0.41666667  1
  F  F61  1  0.64184767  0.64950633  0.35839333  1
  F  F62  1  0.33333333  0.66666667  0.57507367  1
  F  F63  1  0.66666667  0.33333333  0.42492633  1
  F  F64  1  0.35815233  0.35049367  0.64160667  1
  F  F65  1  0.66666667  0.33333333  0.58333333  1
  F  F66  1  0.34099200  0.31617300  0.52506000  1
  F  F67  1  0.02481900  0.34099200  0.47494000  1
  F  F68  1  0.00765867  0.35815233  0.35839333  1
  F  F69  1  0.00000000  0.00000000  0.59159300  1
  F  F70  1  0.64950633  0.00765867  0.64160667  1
  F  F71  1  0.68382700  0.02481900  0.52506000  1
  F  F72  1  0.98283967  0.30851433  0.80827333  1
  F  F73  1  0.01716033  0.32567467  0.69172667  1
  F  F74  1  0.66666667  0.33333333  0.74174033  1
  F  F75  1  0.65900800  0.97518100  0.97494000  1
  F  F76  1  0.64184767  0.99234133  0.85839333  1
  F  F77  1  0.32567467  0.01716033  0.80827333  1
  F  F78  1  0.00000000  0.00000000  0.75000000  1
  F  F79  1  0.30851433  0.98283967  0.69172667  1
  F  F80  1  0.00000000  0.00000000  0.90840700  1
  F  F81  1  0.33333333  0.66666667  0.75825967  1
  F  F82  1  0.02481900  0.68382700  0.97494000  1
  F  F83  1  0.33333333  0.66666667  0.91666667  1
  F  F84  1  0.00765867  0.64950633  0.85839333  1
  F  F85  1  0.69148567  0.67432533  0.80827333  1
  F  F86  1  0.67432533  0.69148567  0.69172667  1
  F  F87  1  0.66666667  0.33333333  0.92492633  1
  F  F88  1  0.31617300  0.34099200  0.97494000  1
  F  F89  1  0.35049367  0.35815233  0.85839333  1
