# generated using pymatgen
data_CoSbO4
_symmetry_space_group_name_H-M   'P 1'
_cell_length_a   3.91124800
_cell_length_b   3.91124800
_cell_length_c   9.29489600
_cell_angle_alpha   90.00000000
_cell_angle_beta   90.00000000
_cell_angle_gamma   90.00000000
_symmetry_Int_Tables_number   1
_chemical_formula_structural   CoSbO4
_chemical_formula_sum   'Co2 Sb2 O8'
_cell_volume   142.19202625
_cell_formula_units_Z   2
loop_
 _symmetry_equiv_pos_site_id
 _symmetry_equiv_pos_as_xyz
  1  'x, y, z'
loop_
 _atom_site_type_symbol
 _atom_site_label
 _atom_site_symmetry_multiplicity
 _atom_site_fract_x
 _atom_site_fract_y
 _atom_site_fract_z
 _atom_site_occupancy
  Co  Co0  1  0.00000000  0.00000000  0.00000000  1
  Co  Co1  1  0.50000000  0.50000000  0.50000000  1
  Sb  Sb2  1  0.00000000  0.50000000  0.25000000  1
  Sb  Sb3  1  0.50000000  0.00000000  0.75000000  1
  O  O4  1  0.00000000  0.50000000  0.03719300  1
  O  O5  1  0.00000000  0.00000000  0.20325800  1
  O  O6  1  0.00000000  0.50000000  0.46280700  1
  O  O7  1  0.50000000  0.50000000  0.29674200  1
  O  O8  1  0.50000000  0.00000000  0.53719300  1
  O  O9  1  0.50000000  0.50000000  0.70325800  1
  O  O10  1  0.50000000  0.00000000  0.96280700  1
  O  O11  1  0.00000000  0.00000000  0.79674200  1
