# generated using pymatgen
data_Li5CuF6
_symmetry_space_group_name_H-M   'P 1'
_cell_length_a   5.16613400
_cell_length_b   8.88134400
_cell_length_c   5.14646913
_cell_angle_alpha   90.00000000
_cell_angle_beta   110.42527510
_cell_angle_gamma   90.00000000
_symmetry_Int_Tables_number   1
_chemical_formula_structural   Li5CuF6
_chemical_formula_sum   'Li10 Cu2 F12'
_cell_volume   221.28537194
_cell_formula_units_Z   2
loop_
 _symmetry_equiv_pos_site_id
 _symmetry_equiv_pos_as_xyz
  1  'x, y, z'
loop_
 _atom_site_type_symbol
 _atom_site_label
 _atom_site_symmetry_multiplicity
 _atom_site_fract_x
 _atom_site_fract_y
 _atom_site_fract_z
 _atom_site_occupancy
  Li  Li0  1  0.50000000  0.66570700  0.50000000  1
  Li  Li1  1  0.50000000  0.83284200  0.00000000  1
  Li  Li2  1  0.50000000  0.00000000  0.50000000  1
  Li  Li3  1  0.50000000  0.16715800  0.00000000  1
  Li  Li4  1  0.50000000  0.33429300  0.50000000  1
  Li  Li5  1  0.00000000  0.16570700  0.50000000  1
  Li  Li6  1  0.00000000  0.33284200  0.00000000  1
  Li  Li7  1  0.00000000  0.50000000  0.50000000  1
  Li  Li8  1  0.00000000  0.66715800  0.00000000  1
  Li  Li9  1  0.00000000  0.83429300  0.50000000  1
  Cu  Cu10  1  0.00000000  0.00000000  0.00000000  1
  Cu  Cu11  1  0.50000000  0.50000000  0.00000000  1
  F  F12  1  0.26267250  0.82284750  0.25448200  1
  F  F13  1  0.73732750  0.82284750  0.74551800  1
  F  F14  1  0.26619400  0.00000000  0.72952400  1
  F  F15  1  0.73380600  0.00000000  0.27047600  1
  F  F16  1  0.26267250  0.17715250  0.25448200  1
  F  F17  1  0.73732750  0.17715250  0.74551800  1
  F  F18  1  0.76267250  0.32284750  0.25448200  1
  F  F19  1  0.23732750  0.32284750  0.74551800  1
  F  F20  1  0.76619400  0.50000000  0.72952400  1
  F  F21  1  0.23380600  0.50000000  0.27047600  1
  F  F22  1  0.76267250  0.67715250  0.25448200  1
  F  F23  1  0.23732750  0.67715250  0.74551800  1
