# generated using pymatgen
data_Dy(ClO4)3
_symmetry_space_group_name_H-M   'P 1'
_cell_length_a   8.27852950
_cell_length_b   8.27852950
_cell_length_c   24.59652996
_cell_angle_alpha   90.00000000
_cell_angle_beta   90.00000000
_cell_angle_gamma   120.00000000
_symmetry_Int_Tables_number   1
_chemical_formula_structural   Dy(ClO4)3
_chemical_formula_sum   'Dy6 Cl18 O72'
_cell_volume   1459.85887573
_cell_formula_units_Z   6
loop_
 _symmetry_equiv_pos_site_id
 _symmetry_equiv_pos_as_xyz
  1  'x, y, z'
loop_
 _atom_site_type_symbol
 _atom_site_label
 _atom_site_symmetry_multiplicity
 _atom_site_fract_x
 _atom_site_fract_y
 _atom_site_fract_z
 _atom_site_occupancy
  Dy  Dy0  1  0.66666667  0.33333333  0.27505933  1
  Dy  Dy1  1  0.33333333  0.66666667  0.10839267  1
  Dy  Dy2  1  0.33333333  0.66666667  0.60839267  1
  Dy  Dy3  1  0.00000000  0.00000000  0.44172600  1
  Dy  Dy4  1  0.00000000  0.00000000  0.94172600  1
  Dy  Dy5  1  0.66666667  0.33333333  0.77505933  1
  Cl  Cl6  1  0.97716300  0.29913400  0.33308600  1
  Cl  Cl7  1  0.64382967  0.01136233  0.16641933  1
  Cl  Cl8  1  0.98863767  0.63246733  0.16641933  1
  Cl  Cl9  1  0.32197100  0.02283700  0.33308600  1
  Cl  Cl10  1  0.70086600  0.67802900  0.33308600  1
  Cl  Cl11  1  0.36753267  0.35617033  0.16641933  1
  Cl  Cl12  1  0.64382967  0.63246733  0.66641933  1
  Cl  Cl13  1  0.31049633  0.34469567  0.49975267  1
  Cl  Cl14  1  0.65530433  0.96580067  0.49975267  1
  Cl  Cl15  1  0.98863767  0.35617033  0.66641933  1
  Cl  Cl16  1  0.36753267  0.01136233  0.66641933  1
  Cl  Cl17  1  0.03419933  0.68950367  0.49975267  1
  Cl  Cl18  1  0.31049633  0.96580067  0.99975267  1
  Cl  Cl19  1  0.97716300  0.67802900  0.83308600  1
  Cl  Cl20  1  0.32197100  0.29913400  0.83308600  1
  Cl  Cl21  1  0.65530433  0.68950367  0.99975267  1
  Cl  Cl22  1  0.03419933  0.34469567  0.99975267  1
  Cl  Cl23  1  0.70086600  0.02283700  0.83308600  1
  O  O24  1  0.85516933  0.76595967  0.01320367  1
  O  O25  1  0.58770367  0.09534933  0.20995433  1
  O  O26  1  0.89296867  0.73335633  0.15939733  1
  O  O27  1  0.87685167  0.20135633  0.28294733  1
  O  O28  1  0.54351833  0.00882867  0.11628067  1
  O  O29  1  0.22630200  0.82627900  0.32606400  1
  O  O30  1  0.25437033  0.82568767  0.04328767  1
  O  O31  1  0.84038767  0.10703133  0.15939733  1
  O  O32  1  0.18850267  0.75587633  0.17987033  1
  O  O33  1  0.90465067  0.49235433  0.20995433  1
  O  O34  1  0.99117133  0.53468967  0.11628067  1
  O  O35  1  0.56737367  0.81149733  0.17987033  1
  O  O36  1  0.59997700  0.77369800  0.32606400  1
  O  O37  1  0.23404033  0.08920967  0.01320367  1
  O  O38  1  0.32450467  0.12314833  0.28294733  1
  O  O39  1  0.57131733  0.74562967  0.04328767  1
  O  O40  1  0.17431233  0.42868267  0.04328767  1
  O  O41  1  0.17372100  0.40002300  0.32606400  1
  O  O42  1  0.24412367  0.43262633  0.17987033  1
  O  O43  1  0.79864367  0.67549533  0.28294733  1
  O  O44  1  0.46531033  0.45648167  0.11628067  1
  O  O45  1  0.91079033  0.14483067  0.01320367  1
  O  O46  1  0.50764567  0.41229633  0.20995433  1
  O  O47  1  0.26664367  0.15961233  0.15939733  1
  O  O48  1  0.52183600  0.09929300  0.34653700  1
  O  O49  1  0.25437033  0.42868267  0.54328767  1
  O  O50  1  0.55963533  0.06668967  0.49273067  1
  O  O51  1  0.54351833  0.53468967  0.61628067  1
  O  O52  1  0.21018500  0.34216200  0.44961400  1
  O  O53  1  0.89296867  0.15961233  0.65939733  1
  O  O54  1  0.92103700  0.15902100  0.37662100  1
  O  O55  1  0.50705433  0.44036467  0.49273067  1
  O  O56  1  0.85516933  0.08920967  0.51320367  1
  O  O57  1  0.57131733  0.82568767  0.54328767  1
  O  O58  1  0.65783800  0.86802300  0.44961400  1
  O  O59  1  0.23404033  0.14483067  0.51320367  1
  O  O60  1  0.26664367  0.10703133  0.65939733  1
  O  O61  1  0.90070700  0.42254300  0.34653700  1
  O  O62  1  0.99117133  0.45648167  0.61628067  1
  O  O63  1  0.23798400  0.07896300  0.37662100  1
  O  O64  1  0.84097900  0.76201600  0.37662100  1
  O  O65  1  0.84038767  0.73335633  0.65939733  1
  O  O66  1  0.91079033  0.76595967  0.51320367  1
  O  O67  1  0.46531033  0.00882867  0.61628067  1
  O  O68  1  0.13197700  0.78981500  0.44961400  1
  O  O69  1  0.57745700  0.47816400  0.34653700  1
  O  O70  1  0.17431233  0.74562967  0.54328767  1
  O  O71  1  0.93331033  0.49294567  0.49273067  1
  O  O72  1  0.18850267  0.43262633  0.67987033  1
  O  O73  1  0.92103700  0.76201600  0.87662100  1
  O  O74  1  0.22630200  0.40002300  0.82606400  1
  O  O75  1  0.21018500  0.86802300  0.94961400  1
  O  O76  1  0.87685167  0.67549533  0.78294733  1
  O  O77  1  0.55963533  0.49294567  0.99273067  1
  O  O78  1  0.58770367  0.49235433  0.70995433  1
  O  O79  1  0.17372100  0.77369800  0.82606400  1
  O  O80  1  0.52183600  0.42254300  0.84653700  1
  O  O81  1  0.23798400  0.15902100  0.87662100  1
  O  O82  1  0.32450467  0.20135633  0.78294733  1
  O  O83  1  0.90070700  0.47816400  0.84653700  1
  O  O84  1  0.93331033  0.44036467  0.99273067  1
  O  O85  1  0.56737367  0.75587633  0.67987033  1
  O  O86  1  0.65783800  0.78981500  0.94961400  1
  O  O87  1  0.90465067  0.41229633  0.70995433  1
  O  O88  1  0.50764567  0.09534933  0.70995433  1
  O  O89  1  0.50705433  0.06668967  0.99273067  1
  O  O90  1  0.57745700  0.09929300  0.84653700  1
  O  O91  1  0.13197700  0.34216200  0.94961400  1
  O  O92  1  0.79864367  0.12314833  0.78294733  1
  O  O93  1  0.24412367  0.81149733  0.67987033  1
  O  O94  1  0.84097900  0.07896300  0.87662100  1
  O  O95  1  0.59997700  0.82627900  0.82606400  1
