# generated using pymatgen
data_NaZn(H3O2)3
_symmetry_space_group_name_H-M   'P 1'
_cell_length_a   3.46694400
_cell_length_b   8.20129319
_cell_length_c   11.18130961
_cell_angle_alpha   94.39770936
_cell_angle_beta   98.25184625
_cell_angle_gamma   92.22319971
_symmetry_Int_Tables_number   1
_chemical_formula_structural   NaZn(H3O2)3
_chemical_formula_sum   'Na2 Zn2 H18 O12'
_cell_volume   313.30530596
_cell_formula_units_Z   2
loop_
 _symmetry_equiv_pos_site_id
 _symmetry_equiv_pos_as_xyz
  1  'x, y, z'
loop_
 _atom_site_type_symbol
 _atom_site_label
 _atom_site_symmetry_multiplicity
 _atom_site_fract_x
 _atom_site_fract_y
 _atom_site_fract_z
 _atom_site_occupancy
  Na  Na0  1  0.29456500  0.77729200  0.71583300  1
  Na  Na1  1  0.70543500  0.22270800  0.28416700  1
  Zn  Zn2  1  0.73128700  0.40959600  0.82241200  1
  Zn  Zn3  1  0.26871300  0.59040400  0.17758800  1
  H  H4  1  0.28125400  0.60586100  0.92185000  1
  H  H5  1  0.71874600  0.39413900  0.07815000  1
  H  H6  1  0.48625800  0.19852300  0.94023700  1
  H  H7  1  0.51374200  0.80147700  0.05976300  1
  H  H8  1  0.91235900  0.30604300  0.62460500  1
  H  H9  1  0.08764100  0.69395700  0.37539500  1
  H  H10  1  0.70229800  0.54395200  0.60485400  1
  H  H11  1  0.29770200  0.45604800  0.39514600  1
  H  H12  1  0.60543800  0.67410100  0.50959800  1
  H  H13  1  0.39456200  0.32589900  0.49040200  1
  H  H14  1  0.82520800  0.01743000  0.87473500  1
  H  H15  1  0.17479200  0.98257000  0.12526500  1
  H  H16  1  0.98266200  0.85457300  0.92769700  1
  H  H17  1  0.01733800  0.14542700  0.07230300  1
  H  H18  1  0.54878800  0.87052700  0.38516500  1
  H  H19  1  0.45121200  0.12947300  0.61483500  1
  H  H20  1  0.88002700  0.93904300  0.32255800  1
  H  H21  1  0.11997300  0.06095700  0.67744200  1
  O  O22  1  0.25336800  0.53412000  0.84589200  1
  O  O23  1  0.74663200  0.46588000  0.15410800  1
  O  O24  1  0.75751800  0.23094500  0.93529100  1
  O  O25  1  0.24248200  0.76905500  0.06470900  1
  O  O26  1  0.66028400  0.34000700  0.64435700  1
  O  O27  1  0.33971600  0.65999300  0.35564300  1
  O  O28  1  0.72900400  0.66304600  0.59382100  1
  O  O29  1  0.27099600  0.33695400  0.40617900  1
  O  O30  1  0.86030300  0.89974700  0.85227600  1
  O  O31  1  0.13969700  0.10025300  0.14772400  1
  O  O32  1  0.68765800  0.97435900  0.37405800  1
  O  O33  1  0.31234200  0.02564100  0.62594200  1
