# generated using pymatgen
data_NaP3H10(NO5)2
_symmetry_space_group_name_H-M   'P 1'
_cell_length_a   6.89512000
_cell_length_b   11.79001600
_cell_length_c   13.81727137
_cell_angle_alpha   90.00000000
_cell_angle_beta   107.33588523
_cell_angle_gamma   90.00000000
_symmetry_Int_Tables_number   1
_chemical_formula_structural   NaP3H10(NO5)2
_chemical_formula_sum   'Na4 P12 H40 N8 O40'
_cell_volume   1072.23079524
_cell_formula_units_Z   4
loop_
 _symmetry_equiv_pos_site_id
 _symmetry_equiv_pos_as_xyz
  1  'x, y, z'
loop_
 _atom_site_type_symbol
 _atom_site_label
 _atom_site_symmetry_multiplicity
 _atom_site_fract_x
 _atom_site_fract_y
 _atom_site_fract_z
 _atom_site_occupancy
  Na  Na0  1  0.86018300  0.70156600  0.28237800  1
  Na  Na1  1  0.86018300  0.79843400  0.78237800  1
  Na  Na2  1  0.13981700  0.29843400  0.71762200  1
  Na  Na3  1  0.13981700  0.20156600  0.21762200  1
  P  P4  1  0.83110000  0.96050500  0.15123000  1
  P  P5  1  0.83110000  0.53949500  0.65123000  1
  P  P6  1  0.16890000  0.03949500  0.84877000  1
  P  P7  1  0.16890000  0.46050500  0.34877000  1
  P  P8  1  0.40692500  0.83172000  0.85696000  1
  P  P9  1  0.40692500  0.66828000  0.35696000  1
  P  P10  1  0.59307500  0.16828000  0.14304000  1
  P  P11  1  0.59307500  0.33172000  0.64304000  1
  P  P12  1  0.77270300  0.75506600  0.01943700  1
  P  P13  1  0.77270300  0.74493400  0.51943700  1
  P  P14  1  0.22729700  0.24493400  0.98056300  1
  P  P15  1  0.22729700  0.25506600  0.48056300  1
  H  H16  1  0.47310000  0.86733800  0.16187100  1
  H  H17  1  0.47310000  0.63266200  0.66187100  1
  H  H18  1  0.52690000  0.13266200  0.83812900  1
  H  H19  1  0.52690000  0.36733800  0.33812900  1
  H  H20  1  0.25545500  0.84096500  0.06568500  1
  H  H21  1  0.25545500  0.65903500  0.56568500  1
  H  H22  1  0.74454500  0.15903500  0.93431500  1
  H  H23  1  0.74454500  0.34096500  0.43431500  1
  H  H24  1  0.27252700  0.80148800  0.18694700  1
  H  H25  1  0.27252700  0.69851200  0.68694700  1
  H  H26  1  0.72747300  0.19851200  0.81305300  1
  H  H27  1  0.72747300  0.30148800  0.31305300  1
  H  H28  1  0.74954500  0.43775100  0.34563800  1
  H  H29  1  0.74954500  0.06224900  0.84563800  1
  H  H30  1  0.25045500  0.56224900  0.65436200  1
  H  H31  1  0.25045500  0.93775100  0.15436200  1
  H  H32  1  0.04765100  0.89312400  0.43404900  1
  H  H33  1  0.04765100  0.60687600  0.93404900  1
  H  H34  1  0.95234900  0.10687600  0.56595100  1
  H  H35  1  0.95234900  0.39312400  0.06595100  1
  H  H36  1  0.72539700  0.45769100  0.00931900  1
  H  H37  1  0.72539700  0.04230900  0.50931900  1
  H  H38  1  0.27460300  0.54230900  0.99068100  1
  H  H39  1  0.27460300  0.95769100  0.49068100  1
  H  H40  1  0.12233900  0.01442600  0.38380600  1
  H  H41  1  0.12233900  0.48557400  0.88380600  1
  H  H42  1  0.87766100  0.98557400  0.61619400  1
  H  H43  1  0.87766100  0.51442600  0.11619400  1
  H  H44  1  0.77198000  0.38750300  0.12317000  1
  H  H45  1  0.77198000  0.11249700  0.62317000  1
  H  H46  1  0.22802000  0.61249700  0.87683000  1
  H  H47  1  0.22802000  0.88750300  0.37683000  1
  H  H48  1  0.53391400  0.05633300  0.32230800  1
  H  H49  1  0.53391400  0.44366700  0.82230800  1
  H  H50  1  0.46608600  0.94366700  0.67769200  1
  H  H51  1  0.46608600  0.55633300  0.17769200  1
  H  H52  1  0.66105500  0.94699100  0.34371400  1
  H  H53  1  0.66105500  0.55300900  0.84371400  1
  H  H54  1  0.33894500  0.05300900  0.65628600  1
  H  H55  1  0.33894500  0.44699100  0.15628600  1
  N  N56  1  0.31373600  0.86128800  0.14080400  1
  N  N57  1  0.31373600  0.63871200  0.64080400  1
  N  N58  1  0.68626400  0.13871200  0.85919600  1
  N  N59  1  0.68626400  0.36128800  0.35919600  1
  N  N60  1  0.83266000  0.43879100  0.07858800  1
  N  N61  1  0.83266000  0.06120900  0.57858800  1
  N  N62  1  0.16734000  0.56120900  0.92141200  1
  N  N63  1  0.16734000  0.93879100  0.42141200  1
  O  O64  1  0.96181100  0.50982900  0.30391900  1
  O  O65  1  0.96181100  0.99017100  0.80391900  1
  O  O66  1  0.03818900  0.49017100  0.69608100  1
  O  O67  1  0.03818900  0.00982900  0.19608100  1
  O  O68  1  0.26604800  0.39369800  0.28214700  1
  O  O69  1  0.26604800  0.10630200  0.78214700  1
  O  O70  1  0.73395200  0.60630200  0.71785300  1
  O  O71  1  0.73395200  0.89369800  0.21785300  1
  O  O72  1  0.67386900  0.05955900  0.09238400  1
  O  O73  1  0.67386900  0.44044100  0.59238400  1
  O  O74  1  0.32613100  0.94044100  0.90761600  1
  O  O75  1  0.32613100  0.55955900  0.40761600  1
  O  O76  1  0.16399900  0.38646200  0.44688600  1
  O  O77  1  0.16399900  0.11353800  0.94688600  1
  O  O78  1  0.83600100  0.61353800  0.55311400  1
  O  O79  1  0.83600100  0.88646200  0.05311400  1
  O  O80  1  0.77071800  0.24333000  0.19505700  1
  O  O81  1  0.77071800  0.25667000  0.69505700  1
  O  O82  1  0.22928200  0.75667000  0.80494300  1
  O  O83  1  0.22928200  0.74333000  0.30494300  1
  O  O84  1  0.45273000  0.13004300  0.20110200  1
  O  O85  1  0.45273000  0.36995700  0.70110200  1
  O  O86  1  0.54727000  0.86995700  0.79889800  1
  O  O87  1  0.54727000  0.63004300  0.29889800  1
  O  O88  1  0.52920800  0.73156500  0.46164800  1
  O  O89  1  0.52920800  0.76843500  0.96164800  1
  O  O90  1  0.47079200  0.26843500  0.53835200  1
  O  O91  1  0.47079200  0.23156500  0.03835200  1
  O  O92  1  0.11298600  0.27457200  0.05418800  1
  O  O93  1  0.11298600  0.22542800  0.55418800  1
  O  O94  1  0.88701400  0.72542800  0.94581200  1
  O  O95  1  0.88701400  0.77457200  0.44581200  1
  O  O96  1  0.79076000  0.68096000  0.10900700  1
  O  O97  1  0.79076000  0.81904000  0.60900700  1
  O  O98  1  0.20924000  0.31904000  0.89099300  1
  O  O99  1  0.20924000  0.18096000  0.39099300  1
  O  O100  1  0.41214100  0.49904900  0.12401800  1
  O  O101  1  0.41214100  0.00095100  0.62401800  1
  O  O102  1  0.58785900  0.50095100  0.87598200  1
  O  O103  1  0.58785900  0.99904900  0.37598200  1
