# generated using pymatgen
data_Er3TaO7
_symmetry_space_group_name_H-M   'P 1'
_cell_length_a   7.42858300
_cell_length_b   7.50776400
_cell_length_c   10.52580500
_cell_angle_alpha   90.00000000
_cell_angle_beta   90.00000000
_cell_angle_gamma   90.00000000
_symmetry_Int_Tables_number   1
_chemical_formula_structural   Er3TaO7
_chemical_formula_sum   'Er12 Ta4 O28'
_cell_volume   587.04570189
_cell_formula_units_Z   4
loop_
 _symmetry_equiv_pos_site_id
 _symmetry_equiv_pos_as_xyz
  1  'x, y, z'
loop_
 _atom_site_type_symbol
 _atom_site_label
 _atom_site_symmetry_multiplicity
 _atom_site_fract_x
 _atom_site_fract_y
 _atom_site_fract_z
 _atom_site_occupancy
  Er  Er0  1  0.01245400  0.79529400  0.75000000  1
  Er  Er1  1  0.25185200  0.96784100  0.48030500  1
  Er  Er2  1  0.25185200  0.96784100  0.01969500  1
  Er  Er3  1  0.24814800  0.46784100  0.98030500  1
  Er  Er4  1  0.24814800  0.46784100  0.51969500  1
  Er  Er5  1  0.48754600  0.29529400  0.25000000  1
  Er  Er6  1  0.51245400  0.70470600  0.75000000  1
  Er  Er7  1  0.75185200  0.53215900  0.48030500  1
  Er  Er8  1  0.75185200  0.53215900  0.01969500  1
  Er  Er9  1  0.74814800  0.03215900  0.98030500  1
  Er  Er10  1  0.74814800  0.03215900  0.51969500  1
  Er  Er11  1  0.98754600  0.20470600  0.25000000  1
  Ta  Ta12  1  0.99939300  0.74763400  0.25000000  1
  Ta  Ta13  1  0.50060700  0.24763400  0.75000000  1
  Ta  Ta14  1  0.49939300  0.75236600  0.25000000  1
  Ta  Ta15  1  0.00060700  0.25236600  0.75000000  1
  O  O16  1  0.03617400  0.04570000  0.87597000  1
  O  O17  1  0.03617400  0.04570000  0.62403000  1
  O  O18  1  0.04011000  0.58220000  0.38828900  1
  O  O19  1  0.04011000  0.58220000  0.11171100  1
  O  O20  1  0.24849500  0.33606300  0.75000000  1
  O  O21  1  0.25496400  0.73117600  0.88399500  1
  O  O22  1  0.25496400  0.73117600  0.61600500  1
  O  O23  1  0.24503600  0.23117600  0.38399500  1
  O  O24  1  0.24503600  0.23117600  0.11600500  1
  O  O25  1  0.25150500  0.83606300  0.25000000  1
  O  O26  1  0.45989000  0.08220000  0.88828900  1
  O  O27  1  0.45989000  0.08220000  0.61171100  1
  O  O28  1  0.46382600  0.54570000  0.37597000  1
  O  O29  1  0.46382600  0.54570000  0.12403000  1
  O  O30  1  0.53617400  0.45430000  0.87597000  1
  O  O31  1  0.53617400  0.45430000  0.62403000  1
  O  O32  1  0.54011000  0.91780000  0.38828900  1
  O  O33  1  0.54011000  0.91780000  0.11171100  1
  O  O34  1  0.74849500  0.16393700  0.75000000  1
  O  O35  1  0.75496400  0.76882400  0.88399500  1
  O  O36  1  0.75496400  0.76882400  0.61600500  1
  O  O37  1  0.74503600  0.26882400  0.38399500  1
  O  O38  1  0.74503600  0.26882400  0.11600500  1
  O  O39  1  0.75150500  0.66393700  0.25000000  1
  O  O40  1  0.95989000  0.41780000  0.88828900  1
  O  O41  1  0.95989000  0.41780000  0.61171100  1
  O  O42  1  0.96382600  0.95430000  0.37597000  1
  O  O43  1  0.96382600  0.95430000  0.12403000  1
