# generated using pymatgen
data_CrH18(O3F)3
_symmetry_space_group_name_H-M   'P 1'
_cell_length_a   10.87820924
_cell_length_b   10.87820924
_cell_length_c   8.20870228
_cell_angle_alpha   90.00000000
_cell_angle_beta   90.00000000
_cell_angle_gamma   120.00000000
_symmetry_Int_Tables_number   1
_chemical_formula_structural   CrH18(O3F)3
_chemical_formula_sum   'Cr3 H54 O27 F9'
_cell_volume   841.24007320
_cell_formula_units_Z   3
loop_
 _symmetry_equiv_pos_site_id
 _symmetry_equiv_pos_as_xyz
  1  'x, y, z'
loop_
 _atom_site_type_symbol
 _atom_site_label
 _atom_site_symmetry_multiplicity
 _atom_site_fract_x
 _atom_site_fract_y
 _atom_site_fract_z
 _atom_site_occupancy
  Cr  Cr0  1  0.00000000  0.00000000  0.00253775  1
  Cr  Cr1  1  0.66666667  0.33333333  0.33587108  1
  Cr  Cr2  1  0.33333333  0.66666667  0.66920442  1
  H  H3  1  0.15597467  0.20776583  0.51742458  1
  H  H4  1  0.05179117  0.84402533  0.51742458  1
  H  H5  1  0.79223417  0.94820883  0.51742458  1
  H  H6  1  0.00007008  0.18723567  0.50486742  1
  H  H7  1  0.18716558  0.99992992  0.50486742  1
  H  H8  1  0.81276433  0.81283442  0.50486742  1
  H  H9  1  0.18557683  0.14785642  0.24747667  1
  H  H10  1  0.96227958  0.81442317  0.24747667  1
  H  H11  1  0.85214358  0.03772042  0.24747667  1
  H  H12  1  0.84549517  0.59359308  0.44958933  1
  H  H13  1  0.74809792  0.15450483  0.44958933  1
  H  H14  1  0.40640692  0.25190208  0.44958933  1
  H  H15  1  0.59248000  0.74740050  0.54838525  1
  H  H16  1  0.15492050  0.40752000  0.54838525  1
  H  H17  1  0.25259950  0.84507950  0.54838525  1
  H  H18  1  0.14277583  0.96253442  0.75337667  1
  H  H19  1  0.81975858  0.85722417  0.75337667  1
  H  H20  1  0.03746558  0.18024142  0.75337667  1
  H  H21  1  0.82264133  0.54109917  0.85075792  1
  H  H22  1  0.71845783  0.17735867  0.85075792  1
  H  H23  1  0.45890083  0.28154217  0.85075792  1
  H  H24  1  0.66673675  0.52056900  0.83820075  1
  H  H25  1  0.85383225  0.33326325  0.83820075  1
  H  H26  1  0.47943100  0.14616775  0.83820075  1
  H  H27  1  0.85224350  0.48118975  0.58081000  1
  H  H28  1  0.62894625  0.14775650  0.58081000  1
  H  H29  1  0.51881025  0.37105375  0.58081000  1
  H  H30  1  0.51216183  0.92692642  0.78292267  1
  H  H31  1  0.41476458  0.48783817  0.78292267  1
  H  H32  1  0.07307358  0.58523542  0.78292267  1
  H  H33  1  0.25914667  0.08073383  0.88171858  1
  H  H34  1  0.82158717  0.74085333  0.88171858  1
  H  H35  1  0.91926617  0.17841283  0.88171858  1
  H  H36  1  0.80944250  0.29586775  0.08671000  1
  H  H37  1  0.48642525  0.19055750  0.08671000  1
  H  H38  1  0.70413225  0.51357475  0.08671000  1
  H  H39  1  0.48930800  0.87443250  0.18409125  1
  H  H40  1  0.38512450  0.51069200  0.18409125  1
  H  H41  1  0.12556750  0.61487550  0.18409125  1
  H  H42  1  0.33340342  0.85390233  0.17153408  1
  H  H43  1  0.52049892  0.66659658  0.17153408  1
  H  H44  1  0.14609767  0.47950108  0.17153408  1
  H  H45  1  0.51891017  0.81452308  0.91414333  1
  H  H46  1  0.29561292  0.48108983  0.91414333  1
  H  H47  1  0.18547692  0.70438708  0.91414333  1
  H  H48  1  0.17882850  0.26025975  0.11625600  1
  H  H49  1  0.08143125  0.82117150  0.11625600  1
  H  H50  1  0.73974025  0.91856875  0.11625600  1
  H  H51  1  0.92581333  0.41406717  0.21505192  1
  H  H52  1  0.48825383  0.07418667  0.21505192  1
  H  H53  1  0.58593283  0.51174617  0.21505192  1
  H  H54  1  0.47610917  0.62920108  0.42004333  1
  H  H55  1  0.15309192  0.52389083  0.42004333  1
  H  H56  1  0.37079892  0.84690808  0.42004333  1
  O  O57  1  0.48871067  0.67584208  0.52984433  1
  O  O58  1  0.18713142  0.51128933  0.52984433  1
  O  O59  1  0.32415792  0.81286858  0.52984433  1
  O  O60  1  0.81332858  0.49073742  0.47329367  1
  O  O61  1  0.67740883  0.18667142  0.47329367  1
  O  O62  1  0.50926258  0.32259117  0.47329367  1
  O  O63  1  0.09150483  0.23839767  0.56798742  1
  O  O64  1  0.14689283  0.90849517  0.56798742  1
  O  O65  1  0.76160233  0.85310717  0.56798742  1
  O  O66  1  0.15537733  0.00917542  0.86317767  1
  O  O67  1  0.85379808  0.84462267  0.86317767  1
  O  O68  1  0.99082458  0.14620192  0.86317767  1
  O  O69  1  0.47999525  0.82407075  0.80662700  1
  O  O70  1  0.34407550  0.52000475  0.80662700  1
  O  O71  1  0.17592925  0.65592450  0.80662700  1
  O  O72  1  0.75817150  0.57173100  0.90132075  1
  O  O73  1  0.81355950  0.24182850  0.90132075  1
  O  O74  1  0.42826900  0.18644050  0.90132075  1
  O  O75  1  0.82204400  0.34250875  0.19651100  1
  O  O76  1  0.52046475  0.17795600  0.19651100  1
  O  O77  1  0.65749125  0.47953525  0.19651100  1
  O  O78  1  0.14666192  0.15740408  0.13996033  1
  O  O79  1  0.01074217  0.85333808  0.13996033  1
  O  O80  1  0.84259592  0.98925783  0.13996033  1
  O  O81  1  0.42483817  0.90506433  0.23465408  1
  O  O82  1  0.48022617  0.57516183  0.23465408  1
  O  O83  1  0.09493567  0.51977383  0.23465408  1
  F  F84  1  0.24595208  0.15011092  0.42178617  1
  F  F85  1  0.90415883  0.75404792  0.42178617  1
  F  F86  1  0.84988908  0.09584117  0.42178617  1
  F  F87  1  0.91261875  0.48344425  0.75511950  1
  F  F88  1  0.57082550  0.08738125  0.75511950  1
  F  F89  1  0.51655575  0.42917450  0.75511950  1
  F  F90  1  0.57928542  0.81677758  0.08845283  1
  F  F91  1  0.23749217  0.42071458  0.08845283  1
  F  F92  1  0.18322242  0.76250783  0.08845283  1
