# generated using pymatgen
data_TaAsO4
_symmetry_space_group_name_H-M   'P 1'
_cell_length_a   5.12719900
_cell_length_b   5.57809000
_cell_length_c   5.71334507
_cell_angle_alpha   90.00000000
_cell_angle_beta   100.90100578
_cell_angle_gamma   90.00000000
_symmetry_Int_Tables_number   1
_chemical_formula_structural   TaAsO4
_chemical_formula_sum   'Ta2 As2 O8'
_cell_volume   160.45302360
_cell_formula_units_Z   2
loop_
 _symmetry_equiv_pos_site_id
 _symmetry_equiv_pos_as_xyz
  1  'x, y, z'
loop_
 _atom_site_type_symbol
 _atom_site_label
 _atom_site_symmetry_multiplicity
 _atom_site_fract_x
 _atom_site_fract_y
 _atom_site_fract_z
 _atom_site_occupancy
  Ta  Ta0  1  0.50363100  0.65895000  0.51290200  1
  Ta  Ta1  1  0.50363100  0.34105000  0.01290200  1
  As  As2  1  0.05083100  0.82143100  0.92486700  1
  As  As3  1  0.05083100  0.17856900  0.42486700  1
  O  O4  1  0.78878900  0.13218100  0.15620800  1
  O  O5  1  0.66144400  0.59925200  0.23679200  1
  O  O6  1  0.26953700  0.38394600  0.29184700  1
  O  O7  1  0.25390900  0.91167900  0.39233400  1
  O  O8  1  0.78878900  0.86781900  0.65620800  1
  O  O9  1  0.66144400  0.40074800  0.73679200  1
  O  O10  1  0.26953700  0.61605400  0.79184700  1
  O  O11  1  0.25390900  0.08832100  0.89233400  1
