# generated using pymatgen
data_BaTa6O16
_symmetry_space_group_name_H-M   'P 1'
_cell_length_a   10.40309200
_cell_length_b   15.25652400
_cell_length_c   3.91802900
_cell_angle_alpha   90.00000000
_cell_angle_beta   90.00000000
_cell_angle_gamma   90.00000000
_symmetry_Int_Tables_number   1
_chemical_formula_structural   BaTa6O16
_chemical_formula_sum   'Ba2 Ta12 O32'
_cell_volume   621.85006196
_cell_formula_units_Z   2
loop_
 _symmetry_equiv_pos_site_id
 _symmetry_equiv_pos_as_xyz
  1  'x, y, z'
loop_
 _atom_site_type_symbol
 _atom_site_label
 _atom_site_symmetry_multiplicity
 _atom_site_fract_x
 _atom_site_fract_y
 _atom_site_fract_z
 _atom_site_occupancy
  Ba  Ba0  1  0.50000000  0.09978100  0.50000000  1
  Ba  Ba1  1  0.00000000  0.59978100  0.50000000  1
  Ta  Ta2  1  0.50000000  0.50788900  0.00000000  1
  Ta  Ta3  1  0.68431600  0.68507900  0.00000000  1
  Ta  Ta4  1  0.50000000  0.29474000  0.00000000  1
  Ta  Ta5  1  0.31397250  0.93380350  0.00000000  1
  Ta  Ta6  1  0.31568400  0.68507900  0.00000000  1
  Ta  Ta7  1  0.68602750  0.93380350  0.00000000  1
  Ta  Ta8  1  0.00000000  0.00788900  0.00000000  1
  Ta  Ta9  1  0.18431600  0.18507900  0.00000000  1
  Ta  Ta10  1  0.00000000  0.79474000  0.00000000  1
  Ta  Ta11  1  0.81397250  0.43380350  0.00000000  1
  Ta  Ta12  1  0.81568400  0.18507900  0.00000000  1
  Ta  Ta13  1  0.18602750  0.43380350  0.00000000  1
  O  O14  1  0.37202450  0.19613050  0.00000000  1
  O  O15  1  0.19775550  0.04879650  0.00000000  1
  O  O16  1  0.12254050  0.89499750  0.00000000  1
  O  O17  1  0.62797550  0.19613050  0.00000000  1
  O  O18  1  0.50000000  0.97724800  0.00000000  1
  O  O19  1  0.35056400  0.81229900  0.00000000  1
  O  O20  1  0.80224450  0.04879650  0.00000000  1
  O  O21  1  0.64943600  0.81229900  0.00000000  1
  O  O22  1  0.50000000  0.64317300  0.00000000  1
  O  O23  1  0.87745950  0.89499750  0.00000000  1
  O  O24  1  0.32198200  0.95290700  0.50000000  1
  O  O25  1  0.18738750  0.18446650  0.50000000  1
  O  O26  1  0.50000000  0.50352200  0.50000000  1
  O  O27  1  0.50000000  0.28668800  0.50000000  1
  O  O28  1  0.81261250  0.18446650  0.50000000  1
  O  O29  1  0.67801800  0.95290700  0.50000000  1
  O  O30  1  0.87202450  0.69613050  0.00000000  1
  O  O31  1  0.69775550  0.54879650  0.00000000  1
  O  O32  1  0.62254050  0.39499750  0.00000000  1
  O  O33  1  0.12797550  0.69613050  0.00000000  1
  O  O34  1  0.00000000  0.47724800  0.00000000  1
  O  O35  1  0.85056400  0.31229900  0.00000000  1
  O  O36  1  0.30224450  0.54879650  0.00000000  1
  O  O37  1  0.14943600  0.31229900  0.00000000  1
  O  O38  1  0.00000000  0.14317300  0.00000000  1
  O  O39  1  0.37745950  0.39499750  0.00000000  1
  O  O40  1  0.82198200  0.45290700  0.50000000  1
  O  O41  1  0.68738750  0.68446650  0.50000000  1
  O  O42  1  0.00000000  0.00352200  0.50000000  1
  O  O43  1  0.00000000  0.78668800  0.50000000  1
  O  O44  1  0.31261250  0.68446650  0.50000000  1
  O  O45  1  0.17801800  0.45290700  0.50000000  1
