# generated using pymatgen
data_Ba3(ClO)2
_symmetry_space_group_name_H-M   'P 1'
_cell_length_a   6.42754900
_cell_length_b   10.72777100
_cell_length_c   13.20991700
_cell_angle_alpha   90.00000000
_cell_angle_beta   90.00000000
_cell_angle_gamma   90.00000000
_symmetry_Int_Tables_number   1
_chemical_formula_structural   Ba3(ClO)2
_chemical_formula_sum   'Ba12 Cl8 O8'
_cell_volume   910.86702329
_cell_formula_units_Z   4
loop_
 _symmetry_equiv_pos_site_id
 _symmetry_equiv_pos_as_xyz
  1  'x, y, z'
loop_
 _atom_site_type_symbol
 _atom_site_label
 _atom_site_symmetry_multiplicity
 _atom_site_fract_x
 _atom_site_fract_y
 _atom_site_fract_z
 _atom_site_occupancy
  Ba  Ba0  1  0.75000000  0.07574000  0.06745000  1
  Ba  Ba1  1  0.75000000  0.11624900  0.78286000  1
  Ba  Ba2  1  0.25000000  0.21282800  0.45365500  1
  Ba  Ba3  1  0.25000000  0.28717200  0.95365500  1
  Ba  Ba4  1  0.75000000  0.38375100  0.28286000  1
  Ba  Ba5  1  0.75000000  0.42426000  0.56745000  1
  Ba  Ba6  1  0.25000000  0.57574000  0.43255000  1
  Ba  Ba7  1  0.25000000  0.61624900  0.71714000  1
  Ba  Ba8  1  0.75000000  0.71282800  0.04634500  1
  Ba  Ba9  1  0.75000000  0.78717200  0.54634500  1
  Ba  Ba10  1  0.25000000  0.88375100  0.21714000  1
  Ba  Ba11  1  0.25000000  0.92426000  0.93255000  1
  Cl  Cl12  1  0.75000000  0.10416700  0.53516900  1
  Cl  Cl13  1  0.25000000  0.18376100  0.20233800  1
  Cl  Cl14  1  0.25000000  0.31623900  0.70233800  1
  Cl  Cl15  1  0.75000000  0.39583300  0.03516900  1
  Cl  Cl16  1  0.25000000  0.60416700  0.96483100  1
  Cl  Cl17  1  0.75000000  0.68376100  0.29766200  1
  Cl  Cl18  1  0.75000000  0.81623900  0.79766200  1
  Cl  Cl19  1  0.25000000  0.89583300  0.46483100  1
  O  O20  1  0.00218400  0.11575200  0.91787200  1
  O  O21  1  0.49781600  0.11575200  0.91787200  1
  O  O22  1  0.00218400  0.38424800  0.41787200  1
  O  O23  1  0.49781600  0.38424800  0.41787200  1
  O  O24  1  0.99781600  0.61575200  0.58212800  1
  O  O25  1  0.50218400  0.61575200  0.58212800  1
  O  O26  1  0.99781600  0.88424800  0.08212800  1
  O  O27  1  0.50218400  0.88424800  0.08212800  1
