# generated using pymatgen
data_Li3Cr10Fe5O24
_symmetry_space_group_name_H-M   'P 1'
_cell_length_a   10.37571800
_cell_length_b   5.99069000
_cell_length_c   14.66454841
_cell_angle_alpha   90.00000000
_cell_angle_beta   90.08571778
_cell_angle_gamma   90.00000000
_symmetry_Int_Tables_number   1
_chemical_formula_structural   Li3Cr10Fe5O24
_chemical_formula_sum   'Li6 Cr20 Fe10 O48'
_cell_volume   911.51372830
_cell_formula_units_Z   2
loop_
 _symmetry_equiv_pos_site_id
 _symmetry_equiv_pos_as_xyz
  1  'x, y, z'
loop_
 _atom_site_type_symbol
 _atom_site_label
 _atom_site_symmetry_multiplicity
 _atom_site_fract_x
 _atom_site_fract_y
 _atom_site_fract_z
 _atom_site_occupancy
  Li  Li0  1  0.66760000  0.00000000  0.91691400  1
  Li  Li1  1  0.33379600  0.00000000  0.58349100  1
  Li  Li2  1  0.99972800  0.00000000  0.24908700  1
  Li  Li3  1  0.16760000  0.50000000  0.91691400  1
  Li  Li4  1  0.83379600  0.50000000  0.58349100  1
  Li  Li5  1  0.49972800  0.50000000  0.24908700  1
  Cr  Cr6  1  0.17078600  0.00000000  0.79349300  1
  Cr  Cr7  1  0.41499800  0.75567300  0.79348300  1
  Cr  Cr8  1  0.58099500  0.74379300  0.45917700  1
  Cr  Cr9  1  0.58099500  0.25620700  0.45917700  1
  Cr  Cr10  1  0.41499800  0.24432700  0.79348300  1
  Cr  Cr11  1  0.83724100  0.00000000  0.45895700  1
  Cr  Cr12  1  0.66611700  0.00000000  0.28806600  1
  Cr  Cr13  1  0.00011600  0.00000000  0.62220800  1
  Cr  Cr14  1  0.74783700  0.75593100  0.12538200  1
  Cr  Cr15  1  0.74783700  0.24406900  0.12538200  1
  Cr  Cr16  1  0.67078600  0.50000000  0.79349300  1
  Cr  Cr17  1  0.91499800  0.25567300  0.79348300  1
  Cr  Cr18  1  0.08099500  0.24379300  0.45917700  1
  Cr  Cr19  1  0.08099500  0.75620700  0.45917700  1
  Cr  Cr20  1  0.91499800  0.74432700  0.79348300  1
  Cr  Cr21  1  0.33724100  0.50000000  0.45895700  1
  Cr  Cr22  1  0.16611700  0.50000000  0.28806600  1
  Cr  Cr23  1  0.50011600  0.50000000  0.62220800  1
  Cr  Cr24  1  0.24783700  0.25593100  0.12538200  1
  Cr  Cr25  1  0.24783700  0.74406900  0.12538200  1
  Fe  Fe26  1  0.33440900  0.00000000  0.95432300  1
  Fe  Fe27  1  0.66654100  0.00000000  0.66722200  1
  Fe  Fe28  1  0.00077700  0.00000000  0.00028800  1
  Fe  Fe29  1  0.50594800  0.00000000  0.12576300  1
  Fe  Fe30  1  0.33248600  0.00000000  0.33262500  1
  Fe  Fe31  1  0.83440900  0.50000000  0.95432300  1
  Fe  Fe32  1  0.16654100  0.50000000  0.66722200  1
  Fe  Fe33  1  0.50077700  0.50000000  0.00028800  1
  Fe  Fe34  1  0.00594800  0.50000000  0.12576300  1
  Fe  Fe35  1  0.83248600  0.50000000  0.33262500  1
  O  O36  1  0.57855550  0.26470250  0.71158000  1
  O  O37  1  0.57855550  0.73529750  0.71158000  1
  O  O38  1  0.25806650  0.77294450  0.87113600  1
  O  O39  1  0.25806650  0.22705550  0.87113600  1
  O  O40  1  0.14942100  0.00000000  0.53749400  1
  O  O41  1  0.33346800  0.00000000  0.72253300  1
  O  O42  1  0.48578100  0.00000000  0.87093800  1
  O  O43  1  0.66646400  0.00000000  0.53459900  1
  O  O44  1  0.50909100  0.00000000  0.37706200  1
  O  O45  1  0.00039800  0.00000000  0.86809200  1
  O  O46  1  0.84304700  0.00000000  0.71153800  1
  O  O47  1  0.74465700  0.76496600  0.37673200  1
  O  O48  1  0.74465700  0.23503400  0.37673200  1
  O  O49  1  0.59174900  0.77252100  0.20393500  1
  O  O50  1  0.42526900  0.72380400  0.53736100  1
  O  O51  1  0.59174900  0.22747900  0.20393500  1
  O  O52  1  0.42526900  0.27619600  0.53736100  1
  O  O53  1  0.81490000  0.00000000  0.20344800  1
  O  O54  1  0.66756500  0.00000000  0.05248000  1
  O  O55  1  0.99962700  0.00000000  0.38764300  1
  O  O56  1  0.17639900  0.00000000  0.04459200  1
  O  O57  1  0.33177700  0.00000000  0.20064700  1
  O  O58  1  0.41113000  0.76235000  0.04446300  1
  O  O59  1  0.41113000  0.23765000  0.04446300  1
  O  O60  1  0.07855550  0.76470250  0.71158000  1
  O  O61  1  0.07855550  0.23529750  0.71158000  1
  O  O62  1  0.75806650  0.27294450  0.87113600  1
  O  O63  1  0.75806650  0.72705550  0.87113600  1
  O  O64  1  0.64942100  0.50000000  0.53749400  1
  O  O65  1  0.83346800  0.50000000  0.72253300  1
  O  O66  1  0.98578100  0.50000000  0.87093800  1
  O  O67  1  0.16646400  0.50000000  0.53459900  1
  O  O68  1  0.00909100  0.50000000  0.37706200  1
  O  O69  1  0.50039800  0.50000000  0.86809200  1
  O  O70  1  0.34304700  0.50000000  0.71153800  1
  O  O71  1  0.24465700  0.26496600  0.37673200  1
  O  O72  1  0.24465700  0.73503400  0.37673200  1
  O  O73  1  0.09174900  0.27252100  0.20393500  1
  O  O74  1  0.92526900  0.22380400  0.53736100  1
  O  O75  1  0.09174900  0.72747900  0.20393500  1
  O  O76  1  0.92526900  0.77619600  0.53736100  1
  O  O77  1  0.31490000  0.50000000  0.20344800  1
  O  O78  1  0.16756500  0.50000000  0.05248000  1
  O  O79  1  0.49962700  0.50000000  0.38764300  1
  O  O80  1  0.67639900  0.50000000  0.04459200  1
  O  O81  1  0.83177700  0.50000000  0.20064700  1
  O  O82  1  0.91113000  0.26235000  0.04446300  1
  O  O83  1  0.91113000  0.73765000  0.04446300  1
