# generated using pymatgen
data_Sr2Fe2H2OF10
_symmetry_space_group_name_H-M   'P 1'
_cell_length_a   7.95454200
_cell_length_b   20.05473600
_cell_length_c   10.94571700
_cell_angle_alpha   90.00000000
_cell_angle_beta   90.00000000
_cell_angle_gamma   90.00000000
_symmetry_Int_Tables_number   1
_chemical_formula_structural   Sr2Fe2H2OF10
_chemical_formula_sum   'Sr16 Fe16 H16 O8 F80'
_cell_volume   1746.12907504
_cell_formula_units_Z   8
loop_
 _symmetry_equiv_pos_site_id
 _symmetry_equiv_pos_as_xyz
  1  'x, y, z'
loop_
 _atom_site_type_symbol
 _atom_site_label
 _atom_site_symmetry_multiplicity
 _atom_site_fract_x
 _atom_site_fract_y
 _atom_site_fract_z
 _atom_site_occupancy
  Sr  Sr0  1  0.75000000  0.71973300  0.25000000  1
  Sr  Sr1  1  0.25000000  0.78026700  0.75000000  1
  Sr  Sr2  1  0.75000000  0.78026700  0.75000000  1
  Sr  Sr3  1  0.25000000  0.71973300  0.25000000  1
  Sr  Sr4  1  0.00000000  0.88019200  0.45311400  1
  Sr  Sr5  1  0.50000000  0.61980800  0.54688600  1
  Sr  Sr6  1  0.00000000  0.61980800  0.95311400  1
  Sr  Sr7  1  0.50000000  0.88019200  0.04688600  1
  Sr  Sr8  1  0.25000000  0.21973300  0.25000000  1
  Sr  Sr9  1  0.75000000  0.28026700  0.75000000  1
  Sr  Sr10  1  0.25000000  0.28026700  0.75000000  1
  Sr  Sr11  1  0.75000000  0.21973300  0.25000000  1
  Sr  Sr12  1  0.50000000  0.38019200  0.45311400  1
  Sr  Sr13  1  0.00000000  0.11980800  0.54688600  1
  Sr  Sr14  1  0.50000000  0.11980800  0.95311400  1
  Sr  Sr15  1  0.00000000  0.38019200  0.04688600  1
  Fe  Fe16  1  0.75000000  0.53436300  0.25000000  1
  Fe  Fe17  1  0.25000000  0.96563700  0.75000000  1
  Fe  Fe18  1  0.75000000  0.96563700  0.75000000  1
  Fe  Fe19  1  0.25000000  0.53436300  0.25000000  1
  Fe  Fe20  1  0.00000000  0.81916800  0.06447200  1
  Fe  Fe21  1  0.50000000  0.68083200  0.93552800  1
  Fe  Fe22  1  0.00000000  0.68083200  0.56447200  1
  Fe  Fe23  1  0.50000000  0.81916800  0.43552800  1
  Fe  Fe24  1  0.25000000  0.03436300  0.25000000  1
  Fe  Fe25  1  0.75000000  0.46563700  0.75000000  1
  Fe  Fe26  1  0.25000000  0.46563700  0.75000000  1
  Fe  Fe27  1  0.75000000  0.03436300  0.25000000  1
  Fe  Fe28  1  0.50000000  0.31916800  0.06447200  1
  Fe  Fe29  1  0.00000000  0.18083200  0.93552800  1
  Fe  Fe30  1  0.50000000  0.18083200  0.56447200  1
  Fe  Fe31  1  0.00000000  0.31916800  0.43552800  1
  H  H32  1  0.89711450  0.94290850  0.07987200  1
  H  H33  1  0.39711450  0.55709150  0.92012800  1
  H  H34  1  0.89711450  0.55709150  0.57987200  1
  H  H35  1  0.39711450  0.94290850  0.42012800  1
  H  H36  1  0.60288550  0.55709150  0.92012800  1
  H  H37  1  0.10288550  0.94290850  0.07987200  1
  H  H38  1  0.60288550  0.94290850  0.42012800  1
  H  H39  1  0.10288550  0.55709150  0.57987200  1
  H  H40  1  0.39711450  0.44290850  0.07987200  1
  H  H41  1  0.89711450  0.05709150  0.92012800  1
  H  H42  1  0.39711450  0.05709150  0.57987200  1
  H  H43  1  0.89711450  0.44290850  0.42012800  1
  H  H44  1  0.10288550  0.05709150  0.92012800  1
  H  H45  1  0.60288550  0.44290850  0.07987200  1
  H  H46  1  0.10288550  0.44290850  0.42012800  1
  H  H47  1  0.60288550  0.05709150  0.57987200  1
  O  O48  1  0.00000000  0.91906700  0.05145900  1
  O  O49  1  0.50000000  0.58093300  0.94854100  1
  O  O50  1  0.00000000  0.58093300  0.55145900  1
  O  O51  1  0.50000000  0.91906700  0.44854100  1
  O  O52  1  0.50000000  0.41906700  0.05145900  1
  O  O53  1  0.00000000  0.08093300  0.94854100  1
  O  O54  1  0.50000000  0.08093300  0.55145900  1
  O  O55  1  0.00000000  0.41906700  0.44854100  1
  F  F56  1  0.80103050  0.60509850  0.13533500  1
  F  F57  1  0.30103050  0.89490150  0.86466500  1
  F  F58  1  0.80103050  0.89490150  0.63533500  1
  F  F59  1  0.30103050  0.60509850  0.36466500  1
  F  F60  1  0.69896950  0.89490150  0.86466500  1
  F  F61  1  0.19896950  0.60509850  0.13533500  1
  F  F62  1  0.69896950  0.60509850  0.36466500  1
  F  F63  1  0.19896950  0.89490150  0.63533500  1
  F  F64  1  0.75962400  0.81200400  0.07853600  1
  F  F65  1  0.25962400  0.68799600  0.92146400  1
  F  F66  1  0.75962400  0.68799600  0.57853600  1
  F  F67  1  0.25962400  0.81200400  0.42146400  1
  F  F68  1  0.74037600  0.68799600  0.92146400  1
  F  F69  1  0.24037600  0.81200400  0.07853600  1
  F  F70  1  0.74037600  0.81200400  0.42146400  1
  F  F71  1  0.24037600  0.68799600  0.57853600  1
  F  F72  1  0.70998800  0.96603600  0.12567000  1
  F  F73  1  0.20998800  0.53396400  0.87433000  1
  F  F74  1  0.70998800  0.53396400  0.62567000  1
  F  F75  1  0.20998800  0.96603600  0.37433000  1
  F  F76  1  0.79001200  0.53396400  0.87433000  1
  F  F77  1  0.29001200  0.96603600  0.12567000  1
  F  F78  1  0.79001200  0.96603600  0.37433000  1
  F  F79  1  0.29001200  0.53396400  0.62567000  1
  F  F80  1  0.00000000  0.69837300  0.38850900  1
  F  F81  1  0.50000000  0.80162700  0.61149100  1
  F  F82  1  0.00000000  0.80162700  0.88850900  1
  F  F83  1  0.50000000  0.69837300  0.11149100  1
  F  F84  1  0.00000000  0.82015300  0.24709900  1
  F  F85  1  0.50000000  0.67984700  0.75290100  1
  F  F86  1  0.00000000  0.67984700  0.74709900  1
  F  F87  1  0.50000000  0.82015300  0.25290100  1
  F  F88  1  0.00000000  0.52967600  0.28971100  1
  F  F89  1  0.50000000  0.97032400  0.71028900  1
  F  F90  1  0.00000000  0.97032400  0.78971100  1
  F  F91  1  0.50000000  0.52967600  0.21028900  1
  F  F92  1  0.00000000  0.71944800  0.10221200  1
  F  F93  1  0.50000000  0.78055200  0.89778800  1
  F  F94  1  0.00000000  0.78055200  0.60221200  1
  F  F95  1  0.50000000  0.71944800  0.39778800  1
  F  F96  1  0.30103050  0.10509850  0.13533500  1
  F  F97  1  0.80103050  0.39490150  0.86466500  1
  F  F98  1  0.30103050  0.39490150  0.63533500  1
  F  F99  1  0.80103050  0.10509850  0.36466500  1
  F  F100  1  0.19896950  0.39490150  0.86466500  1
  F  F101  1  0.69896950  0.10509850  0.13533500  1
  F  F102  1  0.19896950  0.10509850  0.36466500  1
  F  F103  1  0.69896950  0.39490150  0.63533500  1
  F  F104  1  0.25962400  0.31200400  0.07853600  1
  F  F105  1  0.75962400  0.18799600  0.92146400  1
  F  F106  1  0.25962400  0.18799600  0.57853600  1
  F  F107  1  0.75962400  0.31200400  0.42146400  1
  F  F108  1  0.24037600  0.18799600  0.92146400  1
  F  F109  1  0.74037600  0.31200400  0.07853600  1
  F  F110  1  0.24037600  0.31200400  0.42146400  1
  F  F111  1  0.74037600  0.18799600  0.57853600  1
  F  F112  1  0.20998800  0.46603600  0.12567000  1
  F  F113  1  0.70998800  0.03396400  0.87433000  1
  F  F114  1  0.20998800  0.03396400  0.62567000  1
  F  F115  1  0.70998800  0.46603600  0.37433000  1
  F  F116  1  0.29001200  0.03396400  0.87433000  1
  F  F117  1  0.79001200  0.46603600  0.12567000  1
  F  F118  1  0.29001200  0.46603600  0.37433000  1
  F  F119  1  0.79001200  0.03396400  0.62567000  1
  F  F120  1  0.50000000  0.19837300  0.38850900  1
  F  F121  1  0.00000000  0.30162700  0.61149100  1
  F  F122  1  0.50000000  0.30162700  0.88850900  1
  F  F123  1  0.00000000  0.19837300  0.11149100  1
  F  F124  1  0.50000000  0.32015300  0.24709900  1
  F  F125  1  0.00000000  0.17984700  0.75290100  1
  F  F126  1  0.50000000  0.17984700  0.74709900  1
  F  F127  1  0.00000000  0.32015300  0.25290100  1
  F  F128  1  0.50000000  0.02967600  0.28971100  1
  F  F129  1  0.00000000  0.47032400  0.71028900  1
  F  F130  1  0.50000000  0.47032400  0.78971100  1
  F  F131  1  0.00000000  0.02967600  0.21028900  1
  F  F132  1  0.50000000  0.21944800  0.10221200  1
  F  F133  1  0.00000000  0.28055200  0.89778800  1
  F  F134  1  0.50000000  0.28055200  0.60221200  1
  F  F135  1  0.00000000  0.21944800  0.39778800  1
