# generated using pymatgen
data_Li3Co3TeO8
_symmetry_space_group_name_H-M   'P 1'
_cell_length_a   10.45131000
_cell_length_b   6.09857600
_cell_length_c   6.04558165
_cell_angle_alpha   90.00000000
_cell_angle_beta   124.87973874
_cell_angle_gamma   90.00000000
_symmetry_Int_Tables_number   1
_chemical_formula_structural   Li3Co3TeO8
_chemical_formula_sum   'Li6 Co6 Te2 O16'
_cell_volume   316.11029557
_cell_formula_units_Z   2
loop_
 _symmetry_equiv_pos_site_id
 _symmetry_equiv_pos_as_xyz
  1  'x, y, z'
loop_
 _atom_site_type_symbol
 _atom_site_label
 _atom_site_symmetry_multiplicity
 _atom_site_fract_x
 _atom_site_fract_y
 _atom_site_fract_z
 _atom_site_occupancy
  Li  Li0  1  0.25000000  0.25000000  0.50000000  1
  Li  Li1  1  0.25000000  0.75000000  0.50000000  1
  Li  Li2  1  0.00000000  0.00000000  0.00000000  1
  Li  Li3  1  0.75000000  0.75000000  0.50000000  1
  Li  Li4  1  0.75000000  0.25000000  0.50000000  1
  Li  Li5  1  0.50000000  0.50000000  0.00000000  1
  Co  Co6  1  0.25000000  0.75000000  0.00000000  1
  Co  Co7  1  0.25000000  0.25000000  0.00000000  1
  Co  Co8  1  0.50000000  0.00000000  0.50000000  1
  Co  Co9  1  0.75000000  0.25000000  0.00000000  1
  Co  Co10  1  0.75000000  0.75000000  0.00000000  1
  Co  Co11  1  0.00000000  0.50000000  0.50000000  1
  Te  Te12  1  0.00000000  0.00000000  0.50000000  1
  Te  Te13  1  0.50000000  0.50000000  0.50000000  1
  O  O14  1  0.72356400  0.00000000  0.73887000  1
  O  O15  1  0.50167600  0.27137900  0.27412400  1
  O  O16  1  0.50167600  0.72862100  0.27412400  1
  O  O17  1  0.27643600  0.00000000  0.26113000  1
  O  O18  1  0.22690700  0.00000000  0.73122900  1
  O  O19  1  0.49832400  0.72862100  0.72587600  1
  O  O20  1  0.49832400  0.27137900  0.72587600  1
  O  O21  1  0.77309300  0.00000000  0.26877100  1
  O  O22  1  0.22356400  0.50000000  0.73887000  1
  O  O23  1  0.00167600  0.77137900  0.27412400  1
  O  O24  1  0.00167600  0.22862100  0.27412400  1
  O  O25  1  0.77643600  0.50000000  0.26113000  1
  O  O26  1  0.72690700  0.50000000  0.73122900  1
  O  O27  1  0.99832400  0.22862100  0.72587600  1
  O  O28  1  0.99832400  0.77137900  0.72587600  1
  O  O29  1  0.27309300  0.50000000  0.26877100  1
