# generated using pymatgen
data_Fe4O3F5
_symmetry_space_group_name_H-M   'P 1'
_cell_length_a   13.92480200
_cell_length_b   7.04557200
_cell_length_c   6.54478796
_cell_angle_alpha   90.00000000
_cell_angle_beta   117.55962080
_cell_angle_gamma   90.00000000
_symmetry_Int_Tables_number   1
_chemical_formula_structural   Fe4O3F5
_chemical_formula_sum   'Fe16 O12 F20'
_cell_volume   569.23846406
_cell_formula_units_Z   4
loop_
 _symmetry_equiv_pos_site_id
 _symmetry_equiv_pos_as_xyz
  1  'x, y, z'
loop_
 _atom_site_type_symbol
 _atom_site_label
 _atom_site_symmetry_multiplicity
 _atom_site_fract_x
 _atom_site_fract_y
 _atom_site_fract_z
 _atom_site_occupancy
  Fe  Fe0  1  0.37279700  0.50000000  0.87841200  1
  Fe  Fe1  1  0.37751500  0.00000000  0.40449500  1
  Fe  Fe2  1  0.12248500  0.50000000  0.59550500  1
  Fe  Fe3  1  0.00000000  0.00000000  0.50000000  1
  Fe  Fe4  1  0.00000000  0.50000000  0.00000000  1
  Fe  Fe5  1  0.24252800  0.00000000  0.73164500  1
  Fe  Fe6  1  0.25747200  0.50000000  0.26835500  1
  Fe  Fe7  1  0.12720300  0.00000000  0.12158800  1
  Fe  Fe8  1  0.87279700  0.00000000  0.87841200  1
  Fe  Fe9  1  0.87751500  0.50000000  0.40449500  1
  Fe  Fe10  1  0.62248500  0.00000000  0.59550500  1
  Fe  Fe11  1  0.50000000  0.50000000  0.50000000  1
  Fe  Fe12  1  0.50000000  0.00000000  0.00000000  1
  Fe  Fe13  1  0.74252800  0.50000000  0.73164500  1
  Fe  Fe14  1  0.75747200  0.00000000  0.26835500  1
  Fe  Fe15  1  0.62720300  0.50000000  0.12158800  1
  O  O16  1  0.37548900  0.50000000  0.58145500  1
  O  O17  1  0.37577800  0.00000000  0.70719500  1
  O  O18  1  0.37427900  0.50000000  0.17576700  1
  O  O19  1  0.12572100  0.00000000  0.82423300  1
  O  O20  1  0.12422200  0.50000000  0.29280500  1
  O  O21  1  0.12451100  0.00000000  0.41854500  1
  O  O22  1  0.87548900  0.00000000  0.58145500  1
  O  O23  1  0.87577800  0.50000000  0.70719500  1
  O  O24  1  0.87427900  0.00000000  0.17576700  1
  O  O25  1  0.62572100  0.50000000  0.82423300  1
  O  O26  1  0.62422200  0.00000000  0.29280500  1
  O  O27  1  0.62451100  0.50000000  0.41854500  1
  F  F28  1  0.00000000  0.70521400  0.50000000  1
  F  F29  1  0.00000000  0.29478600  0.50000000  1
  F  F30  1  0.25325950  0.30176450  0.75778400  1
  F  F31  1  0.00000000  0.80746000  0.00000000  1
  F  F32  1  0.37653700  0.00000000  0.08613000  1
  F  F33  1  0.12346300  0.50000000  0.91387000  1
  F  F34  1  0.25325950  0.69823550  0.75778400  1
  F  F35  1  0.00000000  0.19254000  0.00000000  1
  F  F36  1  0.24674050  0.19823550  0.24221600  1
  F  F37  1  0.24674050  0.80176450  0.24221600  1
  F  F38  1  0.50000000  0.20521400  0.50000000  1
  F  F39  1  0.50000000  0.79478600  0.50000000  1
  F  F40  1  0.75325950  0.80176450  0.75778400  1
  F  F41  1  0.50000000  0.30746000  0.00000000  1
  F  F42  1  0.87653700  0.50000000  0.08613000  1
  F  F43  1  0.62346300  0.00000000  0.91387000  1
  F  F44  1  0.75325950  0.19823550  0.75778400  1
  F  F45  1  0.50000000  0.69254000  0.00000000  1
  F  F46  1  0.74674050  0.69823550  0.24221600  1
  F  F47  1  0.74674050  0.30176450  0.24221600  1
