# generated using pymatgen
data_Li7CoOF7
_symmetry_space_group_name_H-M   'P 1'
_cell_length_a   2.94043214
_cell_length_b   5.87549866
_cell_length_c   8.30125640
_cell_angle_alpha   90.00000000
_cell_angle_beta   90.00000000
_cell_angle_gamma   90.00000000
_symmetry_Int_Tables_number   1
_chemical_formula_structural   Li7CoOF7
_chemical_formula_sum   'Li7 Co1 O1 F7'
_cell_volume   143.41669835
_cell_formula_units_Z   1
loop_
 _symmetry_equiv_pos_site_id
 _symmetry_equiv_pos_as_xyz
  1  'x, y, z'
loop_
 _atom_site_type_symbol
 _atom_site_label
 _atom_site_symmetry_multiplicity
 _atom_site_fract_x
 _atom_site_fract_y
 _atom_site_fract_z
 _atom_site_occupancy
  Li  Li0  1  0.50000000  0.23125850  0.00000000  1
  Li  Li1  1  0.50000000  0.24671125  0.50000000  1
  Li  Li2  1  0.50000000  0.75173000  0.50000000  1
  Li  Li3  1  0.00000000  0.49185125  0.74143100  1
  Li  Li4  1  0.00000000  0.49185125  0.25856900  1
  Li  Li5  1  0.00000000  0.01236550  0.75404550  1
  Li  Li6  1  0.00000000  0.01236550  0.24595450  1
  Co  Co7  1  0.50000000  0.77827500  0.00000000  1
  O  O8  1  0.00000000  0.99757775  0.00000000  1
  F  F9  1  0.00000000  0.49986100  0.00000000  1
  F  F10  1  0.00000000  0.99952550  0.50000000  1
  F  F11  1  0.00000000  0.49766600  0.50000000  1
  F  F12  1  0.50000000  0.74011600  0.74264125  1
  F  F13  1  0.50000000  0.74011600  0.25735875  1
  F  F14  1  0.50000000  0.25351350  0.74485050  1
  F  F15  1  0.50000000  0.25351350  0.25514950  1
