# generated using pymatgen
data_LiV4O5F7
_symmetry_space_group_name_H-M   'P 1'
_cell_length_a   5.23879919
_cell_length_b   5.37102754
_cell_length_c   17.24309023
_cell_angle_alpha   87.12495305
_cell_angle_beta   98.71924676
_cell_angle_gamma   118.94440659
_symmetry_Int_Tables_number   1
_chemical_formula_structural   LiV4O5F7
_chemical_formula_sum   'Li2 V8 O10 F14'
_cell_volume   419.51942783
_cell_formula_units_Z   2
loop_
 _symmetry_equiv_pos_site_id
 _symmetry_equiv_pos_as_xyz
  1  'x, y, z'
loop_
 _atom_site_type_symbol
 _atom_site_label
 _atom_site_symmetry_multiplicity
 _atom_site_fract_x
 _atom_site_fract_y
 _atom_site_fract_z
 _atom_site_occupancy
  Li  Li0  1  0.41610900  0.78604800  0.07426900  1
  Li  Li1  1  0.08639000  0.45937300  0.67810900  1
  V  V2  1  0.49011200  0.70984300  0.25419500  1
  V  V3  1  0.71567600  0.87045800  0.62998000  1
  V  V4  1  0.99315200  0.47095200  0.50292300  1
  V  V5  1  0.28083400  0.65599400  0.87168700  1
  V  V6  1  0.68750500  0.35964900  0.12846600  1
  V  V7  1  0.51187900  0.25471800  0.74779900  1
  V  V8  1  0.02365500  0.04548100  0.99569000  1
  V  V9  1  0.22582100  0.08939100  0.38003500  1
  O  O10  1  0.50818500  0.54434700  0.68459600  1
  O  O11  1  0.46473600  0.94986500  0.81683400  1
  O  O12  1  0.95586300  0.19215500  0.56079900  1
  O  O13  1  0.05137000  0.31631000  0.93627500  1
  O  O14  1  0.04718200  0.81366400  0.43839300  1
  O  O15  1  0.55545400  0.07496300  0.18707600  1
  O  O16  1  0.43066500  0.20734100  0.04291900  1
  O  O17  1  0.57266600  0.58938700  0.15922600  1
  O  O18  1  0.59063000  0.08183000  0.66332100  1
  O  O19  1  0.44423900  0.43211800  0.31108600  1
  F  F20  1  0.92139200  0.94709400  0.28795000  1
  F  F21  1  0.43435500  0.92416800  0.33624200  1
  F  F22  1  0.42335700  0.69939400  0.53547000  1
  F  F23  1  0.91733700  0.15598300  0.08600900  1
  F  F24  1  0.57592200  0.79476600  0.97068700  1
  F  F25  1  0.07923300  0.55408900  0.20595600  1
  F  F26  1  0.05778000  0.32454400  0.41026200  1
  F  F27  1  0.99025500  0.68754700  0.06130400  1
  F  F28  1  0.94411900  0.66406500  0.59384600  1
  F  F29  1  0.95971500  0.47212600  0.77928200  1
  F  F30  1  0.06739600  0.82764200  0.91458400  1
  F  F31  1  0.57072900  0.30330700  0.46129800  1
  F  F32  1  0.45494900  0.43549400  0.83878000  1
  F  F33  1  0.06564500  0.04132200  0.71318300  1
