# generated using pymatgen
data_Sn2P2O7
_symmetry_space_group_name_H-M   'P 1'
_cell_length_a   7.14499700
_cell_length_b   7.30133696
_cell_length_c   7.30575228
_cell_angle_alpha   81.65448278
_cell_angle_beta   80.76935059
_cell_angle_gamma   62.64931617
_symmetry_Int_Tables_number   1
_chemical_formula_structural   Sn2P2O7
_chemical_formula_sum   'Sn4 P4 O14'
_cell_volume   333.02601805
_cell_formula_units_Z   2
loop_
 _symmetry_equiv_pos_site_id
 _symmetry_equiv_pos_as_xyz
  1  'x, y, z'
loop_
 _atom_site_type_symbol
 _atom_site_label
 _atom_site_symmetry_multiplicity
 _atom_site_fract_x
 _atom_site_fract_y
 _atom_site_fract_z
 _atom_site_occupancy
  Sn  Sn0  1  0.09280000  0.23999000  0.17172500  1
  Sn  Sn1  1  0.29745500  0.62019100  0.32761300  1
  Sn  Sn2  1  0.70254500  0.37980900  0.67238700  1
  Sn  Sn3  1  0.90720000  0.76001000  0.82827500  1
  P  P4  1  0.21741000  0.25176400  0.66416600  1
  P  P5  1  0.64453400  0.17439200  0.14507300  1
  P  P6  1  0.35546600  0.82560800  0.85492700  1
  P  P7  1  0.78259000  0.74823600  0.33583400  1
  O  O8  1  0.08857400  0.22870100  0.52702700  1
  O  O9  1  0.06140200  0.36353000  0.83251200  1
  O  O10  1  0.38434200  0.02430500  0.74437400  1
  O  O11  1  0.41458000  0.34647100  0.14153100  1
  O  O12  1  0.35917500  0.35447400  0.57698900  1
  O  O13  1  0.24908700  0.88866600  0.05100500  1
  O  O14  1  0.22652900  0.76930200  0.74427900  1
  O  O15  1  0.77347100  0.23069800  0.25572100  1
  O  O16  1  0.75091300  0.11133400  0.94899500  1
  O  O17  1  0.64082500  0.64552600  0.42301100  1
  O  O18  1  0.58542000  0.65352900  0.85846900  1
  O  O19  1  0.61565800  0.97569500  0.25562600  1
  O  O20  1  0.93859800  0.63647000  0.16748800  1
  O  O21  1  0.91142600  0.77129900  0.47297300  1
