# generated using pymatgen
data_Cr2P4H3O16
_symmetry_space_group_name_H-M   'P 1'
_cell_length_a   4.92660300
_cell_length_b   7.38825893
_cell_length_c   7.98963484
_cell_angle_alpha   90.39957449
_cell_angle_beta   90.46222883
_cell_angle_gamma   102.02774700
_symmetry_Int_Tables_number   1
_chemical_formula_structural   Cr2P4H3O16
_chemical_formula_sum   'Cr2 P4 H3 O16'
_cell_volume   284.41015705
_cell_formula_units_Z   1
loop_
 _symmetry_equiv_pos_site_id
 _symmetry_equiv_pos_as_xyz
  1  'x, y, z'
loop_
 _atom_site_type_symbol
 _atom_site_label
 _atom_site_symmetry_multiplicity
 _atom_site_fract_x
 _atom_site_fract_y
 _atom_site_fract_z
 _atom_site_occupancy
  Cr  Cr0  1  0.00618600  0.50140600  0.99894100  1
  Cr  Cr1  1  0.50137500  0.99815600  0.50064600  1
  P  P2  1  0.10498500  0.24233600  0.66749700  1
  P  P3  1  0.38958500  0.24697100  0.15757000  1
  P  P4  1  0.60890000  0.75011500  0.83897900  1
  P  P5  1  0.89662200  0.75716000  0.33262800  1
  H  H6  1  0.92784500  0.96609700  0.97971600  1
  H  H7  1  0.35237100  0.39221600  0.47443200  1
  H  H8  1  0.66257100  0.62158800  0.53318700  1
  O  O9  1  0.16285800  0.84238500  0.43060800  1
  O  O10  1  0.03807100  0.30106500  0.84278400  1
  O  O11  1  0.20136800  0.39407600  0.16710600  1
  O  O12  1  0.25406900  0.42286200  0.57472800  1
  O  O13  1  0.33548200  0.66092800  0.92231500  1
  O  O14  1  0.55871700  0.79844000  0.65471200  1
  O  O15  1  0.24786800  0.07475300  0.05871300  1
  O  O16  1  0.30153400  0.10368600  0.67230100  1
  O  O17  1  0.70095600  0.89743100  0.32753200  1
  O  O18  1  0.73338600  0.93200800  0.93586700  1
  O  O19  1  0.43645200  0.19347300  0.34106100  1
  O  O20  1  0.66517100  0.34053400  0.07788800  1
  O  O21  1  0.74304600  0.57995800  0.42903900  1
  O  O22  1  0.80171500  0.60920700  0.83312500  1
  O  O23  1  0.96056100  0.69835300  0.15773100  1
  O  O24  1  0.83718600  0.15669400  0.57099600  1
