# generated using pymatgen
data_MnV3(PO4)4
_symmetry_space_group_name_H-M   'P 1'
_cell_length_a   4.92036100
_cell_length_b   5.91865600
_cell_length_c   10.10035610
_cell_angle_alpha   90.00000000
_cell_angle_beta   90.68985622
_cell_angle_gamma   90.00000000
_symmetry_Int_Tables_number   1
_chemical_formula_structural   MnV3(PO4)4
_chemical_formula_sum   'Mn1 V3 P4 O16'
_cell_volume   294.12048412
_cell_formula_units_Z   1
loop_
 _symmetry_equiv_pos_site_id
 _symmetry_equiv_pos_as_xyz
  1  'x, y, z'
loop_
 _atom_site_type_symbol
 _atom_site_label
 _atom_site_symmetry_multiplicity
 _atom_site_fract_x
 _atom_site_fract_y
 _atom_site_fract_z
 _atom_site_occupancy
  Mn  Mn0  1  0.03531200  0.00000000  0.72335000  1
  V  V1  1  0.47979900  0.00000000  0.22847400  1
  V  V2  1  0.54224900  0.50000000  0.77930800  1
  V  V3  1  0.97954600  0.50000000  0.26795800  1
  P  P4  1  0.10469900  0.50000000  0.59971700  1
  P  P5  1  0.41054400  0.50000000  0.09515300  1
  P  P6  1  0.56093600  0.00000000  0.90798100  1
  P  P7  1  0.91557500  0.00000000  0.39868700  1
  O  O8  1  0.14097300  0.50000000  0.45007500  1
  O  O9  1  0.26442300  0.69718300  0.67159800  1
  O  O10  1  0.26442300  0.30281700  0.67159800  1
  O  O11  1  0.22004500  0.00000000  0.37231900  1
  O  O12  1  0.25687700  0.00000000  0.89444000  1
  O  O13  1  0.26650900  0.70182300  0.16931300  1
  O  O14  1  0.26650900  0.29817700  0.16931300  1
  O  O15  1  0.33555500  0.50000000  0.94642400  1
  O  O16  1  0.65324600  0.00000000  0.05228800  1
  O  O17  1  0.69905200  0.20886600  0.83241400  1
  O  O18  1  0.69905200  0.79113400  0.83241400  1
  O  O19  1  0.71694400  0.50000000  0.11729500  1
  O  O20  1  0.79912300  0.50000000  0.63135400  1
  O  O21  1  0.76865000  0.20324800  0.32262300  1
  O  O22  1  0.76865000  0.79675200  0.32262300  1
  O  O23  1  0.85131100  0.00000000  0.54328400  1
