# generated using pymatgen
data_B2TeO5
_symmetry_space_group_name_H-M   'P 1'
_cell_length_a   10.27685800
_cell_length_b   10.16080200
_cell_length_c   9.71870794
_cell_angle_alpha   90.00000000
_cell_angle_beta   111.82875635
_cell_angle_gamma   90.00000000
_symmetry_Int_Tables_number   1
_chemical_formula_structural   B2TeO5
_chemical_formula_sum   'B16 Te8 O40'
_cell_volume   942.07376376
_cell_formula_units_Z   8
loop_
 _symmetry_equiv_pos_site_id
 _symmetry_equiv_pos_as_xyz
  1  'x, y, z'
loop_
 _atom_site_type_symbol
 _atom_site_label
 _atom_site_symmetry_multiplicity
 _atom_site_fract_x
 _atom_site_fract_y
 _atom_site_fract_z
 _atom_site_occupancy
  B  B0  1  0.88417100  0.74444100  0.86904700  1
  B  B1  1  0.32155850  0.42403250  0.00436600  1
  B  B2  1  0.88417100  0.25555900  0.36904700  1
  B  B3  1  0.32155850  0.57596750  0.50436600  1
  B  B4  1  0.67844150  0.42403250  0.49563400  1
  B  B5  1  0.11582900  0.74444100  0.63095300  1
  B  B6  1  0.67844150  0.57596750  0.99563400  1
  B  B7  1  0.11582900  0.25555900  0.13095300  1
  B  B8  1  0.38417100  0.24444100  0.86904700  1
  B  B9  1  0.82155850  0.92403250  0.00436600  1
  B  B10  1  0.38417100  0.75555900  0.36904700  1
  B  B11  1  0.82155850  0.07596750  0.50436600  1
  B  B12  1  0.17844150  0.92403250  0.49563400  1
  B  B13  1  0.61582900  0.24444100  0.63095300  1
  B  B14  1  0.17844150  0.07596750  0.99563400  1
  B  B15  1  0.61582900  0.75555900  0.13095300  1
  Te  Te16  1  0.17432050  0.44467050  0.67350000  1
  Te  Te17  1  0.17432050  0.55532950  0.17350000  1
  Te  Te18  1  0.82567950  0.44467050  0.82650000  1
  Te  Te19  1  0.82567950  0.55532950  0.32650000  1
  Te  Te20  1  0.67432050  0.94467050  0.67350000  1
  Te  Te21  1  0.67432050  0.05532950  0.17350000  1
  Te  Te22  1  0.32567950  0.94467050  0.82650000  1
  Te  Te23  1  0.32567950  0.05532950  0.32650000  1
  O  O24  1  0.93741000  0.61834800  0.88974900  1
  O  O25  1  0.81170800  0.79297600  0.73146800  1
  O  O26  1  0.93741000  0.38165200  0.38974900  1
  O  O27  1  0.23190100  0.49559700  0.88363900  1
  O  O28  1  0.67375050  0.54099750  0.85616700  1
  O  O29  1  0.81170800  0.20702400  0.23146800  1
  O  O30  1  0.90224150  0.18155050  0.49766700  1
  O  O31  1  0.09775850  0.18155050  0.00233300  1
  O  O32  1  0.23190100  0.50440300  0.38363900  1
  O  O33  1  0.67375050  0.45900250  0.35616700  1
  O  O34  1  0.32624950  0.54099750  0.64383300  1
  O  O35  1  0.76809900  0.49559700  0.61636100  1
  O  O36  1  0.90224150  0.81844950  0.99766700  1
  O  O37  1  0.09775850  0.81844950  0.50233300  1
  O  O38  1  0.18829200  0.79297600  0.76853200  1
  O  O39  1  0.32624950  0.45900250  0.14383300  1
  O  O40  1  0.76809900  0.50440300  0.11636100  1
  O  O41  1  0.06259000  0.61834800  0.61025100  1
  O  O42  1  0.18829200  0.20702400  0.26853200  1
  O  O43  1  0.06259000  0.38165200  0.11025100  1
  O  O44  1  0.43741000  0.11834800  0.88974900  1
  O  O45  1  0.31170800  0.29297600  0.73146800  1
  O  O46  1  0.43741000  0.88165200  0.38974900  1
  O  O47  1  0.73190100  0.99559700  0.88363900  1
  O  O48  1  0.17375050  0.04099750  0.85616700  1
  O  O49  1  0.31170800  0.70702400  0.23146800  1
  O  O50  1  0.40224150  0.68155050  0.49766700  1
  O  O51  1  0.59775850  0.68155050  0.00233300  1
  O  O52  1  0.73190100  0.00440300  0.38363900  1
  O  O53  1  0.17375050  0.95900250  0.35616700  1
  O  O54  1  0.82624950  0.04099750  0.64383300  1
  O  O55  1  0.26809900  0.99559700  0.61636100  1
  O  O56  1  0.40224150  0.31844950  0.99766700  1
  O  O57  1  0.59775850  0.31844950  0.50233300  1
  O  O58  1  0.68829200  0.29297600  0.76853200  1
  O  O59  1  0.82624950  0.95900250  0.14383300  1
  O  O60  1  0.26809900  0.00440300  0.11636100  1
  O  O61  1  0.56259000  0.11834800  0.61025100  1
  O  O62  1  0.68829200  0.70702400  0.26853200  1
  O  O63  1  0.56259000  0.88165200  0.11025100  1
