# generated using pymatgen
data_La2P4O13
_symmetry_space_group_name_H-M   'P 1'
_cell_length_a   12.26068600
_cell_length_b   7.05819400
_cell_length_c   13.46141699
_cell_angle_alpha   90.00000000
_cell_angle_beta   105.76238697
_cell_angle_gamma   90.00000000
_symmetry_Int_Tables_number   1
_chemical_formula_structural   La2P4O13
_chemical_formula_sum   'La8 P16 O52'
_cell_volume   1121.12280614
_cell_formula_units_Z   4
loop_
 _symmetry_equiv_pos_site_id
 _symmetry_equiv_pos_as_xyz
  1  'x, y, z'
loop_
 _atom_site_type_symbol
 _atom_site_label
 _atom_site_symmetry_multiplicity
 _atom_site_fract_x
 _atom_site_fract_y
 _atom_site_fract_z
 _atom_site_occupancy
  La  La0  1  0.68722300  0.00209200  0.55105700  1
  La  La1  1  0.81277700  0.50209200  0.94894300  1
  La  La2  1  0.68722300  0.99790800  0.05105700  1
  La  La3  1  0.81277700  0.49790800  0.44894300  1
  La  La4  1  0.18722300  0.50209200  0.55105700  1
  La  La5  1  0.31277700  0.00209200  0.94894300  1
  La  La6  1  0.18722300  0.49790800  0.05105700  1
  La  La7  1  0.31277700  0.99790800  0.44894300  1
  P  P8  1  0.99118850  0.14177350  0.63752100  1
  P  P9  1  0.99118850  0.85822650  0.13752100  1
  P  P10  1  0.73210900  0.50711500  0.65877200  1
  P  P11  1  0.76789100  0.00711500  0.84122800  1
  P  P12  1  0.73210900  0.49288500  0.15877200  1
  P  P13  1  0.76789100  0.99288500  0.34122800  1
  P  P14  1  0.50881150  0.64177350  0.86247900  1
  P  P15  1  0.50881150  0.35822650  0.36247900  1
  P  P16  1  0.49118850  0.64177350  0.63752100  1
  P  P17  1  0.49118850  0.35822650  0.13752100  1
  P  P18  1  0.23210900  0.00711500  0.65877200  1
  P  P19  1  0.26789100  0.50711500  0.84122800  1
  P  P20  1  0.23210900  0.99288500  0.15877200  1
  P  P21  1  0.26789100  0.49288500  0.34122800  1
  P  P22  1  0.00881150  0.14177350  0.86247900  1
  P  P23  1  0.00881150  0.85822650  0.36247900  1
  O  O24  1  0.99848400  0.31003000  0.56800700  1
  O  O25  1  0.89106300  0.01184500  0.60571500  1
  O  O26  1  0.99848400  0.68997000  0.06800700  1
  O  O27  1  0.90133800  0.00645600  0.84523800  1
  O  O28  1  0.75406100  0.67718000  0.59548000  1
  O  O29  1  0.74822300  0.33022300  0.59758300  1
  O  O30  1  0.79859500  0.50665500  0.77074600  1
  O  O31  1  0.89106300  0.98815500  0.10571500  1
  O  O32  1  0.90133800  0.99354400  0.34523800  1
  O  O33  1  0.70140500  0.00665500  0.72925400  1
  O  O34  1  0.75177700  0.83022300  0.90241700  1
  O  O35  1  0.74593900  0.17718000  0.90452000  1
  O  O36  1  0.75406100  0.32282000  0.09548000  1
  O  O37  1  0.74822300  0.66977700  0.09758300  1
  O  O38  1  0.79859500  0.49334500  0.27074600  1
  O  O39  1  0.59866200  0.50645600  0.65476200  1
  O  O40  1  0.60893700  0.51184500  0.89428500  1
  O  O41  1  0.70140500  0.99334500  0.22925400  1
  O  O42  1  0.75177700  0.16977700  0.40241700  1
  O  O43  1  0.74593900  0.82282000  0.40452000  1
  O  O44  1  0.00000000  0.23057600  0.75000000  1
  O  O45  1  0.59866200  0.49354400  0.15476200  1
  O  O46  1  0.50151600  0.81003000  0.93199300  1
  O  O47  1  0.60893700  0.48815500  0.39428500  1
  O  O48  1  0.00000000  0.76942400  0.25000000  1
  O  O49  1  0.50151600  0.18997000  0.43199300  1
  O  O50  1  0.49848400  0.81003000  0.56800700  1
  O  O51  1  0.39106300  0.51184500  0.60571500  1
  O  O52  1  0.49848400  0.18997000  0.06800700  1
  O  O53  1  0.40133800  0.50645600  0.84523800  1
  O  O54  1  0.25406100  0.17718000  0.59548000  1
  O  O55  1  0.24822300  0.83022300  0.59758300  1
  O  O56  1  0.29859500  0.00665500  0.77074600  1
  O  O57  1  0.39106300  0.48815500  0.10571500  1
  O  O58  1  0.40133800  0.49354400  0.34523800  1
  O  O59  1  0.20140500  0.50665500  0.72925400  1
  O  O60  1  0.25177700  0.33022300  0.90241700  1
  O  O61  1  0.24593900  0.67718000  0.90452000  1
  O  O62  1  0.25406100  0.82282000  0.09548000  1
  O  O63  1  0.24822300  0.16977700  0.09758300  1
  O  O64  1  0.29859500  0.99334500  0.27074600  1
  O  O65  1  0.09866200  0.00645600  0.65476200  1
  O  O66  1  0.10893700  0.01184500  0.89428500  1
  O  O67  1  0.20140500  0.49334500  0.22925400  1
  O  O68  1  0.25177700  0.66977700  0.40241700  1
  O  O69  1  0.24593900  0.32282000  0.40452000  1
  O  O70  1  0.50000000  0.73057600  0.75000000  1
  O  O71  1  0.09866200  0.99354400  0.15476200  1
  O  O72  1  0.00151600  0.31003000  0.93199300  1
  O  O73  1  0.10893700  0.98815500  0.39428500  1
  O  O74  1  0.50000000  0.26942400  0.25000000  1
  O  O75  1  0.00151600  0.68997000  0.43199300  1
