# generated using pymatgen
data_Na4Al4H10O13
_symmetry_space_group_name_H-M   'P 1'
_cell_length_a   10.58886700
_cell_length_b   10.58886700
_cell_length_c   5.37252800
_cell_angle_alpha   90.00000000
_cell_angle_beta   90.00000000
_cell_angle_gamma   90.00000000
_symmetry_Int_Tables_number   1
_chemical_formula_structural   Na4Al4H10O13
_chemical_formula_sum   'Na8 Al8 H20 O26'
_cell_volume   602.38989006
_cell_formula_units_Z   2
loop_
 _symmetry_equiv_pos_site_id
 _symmetry_equiv_pos_as_xyz
  1  'x, y, z'
loop_
 _atom_site_type_symbol
 _atom_site_label
 _atom_site_symmetry_multiplicity
 _atom_site_fract_x
 _atom_site_fract_y
 _atom_site_fract_z
 _atom_site_occupancy
  Na  Na0  1  0.10033700  0.60033700  0.90680100  1
  Na  Na1  1  0.19763200  0.30236800  0.17392900  1
  Na  Na2  1  0.30236800  0.80236800  0.82607100  1
  Na  Na3  1  0.39966300  0.10033700  0.09319900  1
  Na  Na4  1  0.60033700  0.89966300  0.09319900  1
  Na  Na5  1  0.69763200  0.19763200  0.82607100  1
  Na  Na6  1  0.80236800  0.69763200  0.17392900  1
  Na  Na7  1  0.89966300  0.39966300  0.90680100  1
  Al  Al8  1  0.09493800  0.81074600  0.39775900  1
  Al  Al9  1  0.18925400  0.09493800  0.60224100  1
  Al  Al10  1  0.31074600  0.59493800  0.39775900  1
  Al  Al11  1  0.40506200  0.31074600  0.60224100  1
  Al  Al12  1  0.59493800  0.68925400  0.60224100  1
  Al  Al13  1  0.68925400  0.40506200  0.39775900  1
  Al  Al14  1  0.81074600  0.90506200  0.60224100  1
  Al  Al15  1  0.90506200  0.18925400  0.39775900  1
  H  H16  1  0.01604500  0.83854100  0.98570700  1
  H  H17  1  0.05398400  0.55398400  0.38705200  1
  H  H18  1  0.08548800  0.31089900  0.68019400  1
  H  H19  1  0.16145900  0.01604500  0.01429300  1
  H  H20  1  0.18910100  0.41451200  0.68019400  1
  H  H21  1  0.31089900  0.91451200  0.31980600  1
  H  H22  1  0.33854100  0.51604500  0.98570700  1
  H  H23  1  0.41451200  0.81089900  0.31980600  1
  H  H24  1  0.44601600  0.05398400  0.61294800  1
  H  H25  1  0.48395500  0.33854100  0.01429300  1
  H  H26  1  0.51604500  0.66145900  0.01429300  1
  H  H27  1  0.55398400  0.94601600  0.61294800  1
  H  H28  1  0.58548800  0.18910100  0.31980600  1
  H  H29  1  0.66145900  0.48395500  0.98570700  1
  H  H30  1  0.68910100  0.08548800  0.31980600  1
  H  H31  1  0.81089900  0.58548800  0.68019400  1
  H  H32  1  0.83854100  0.98395500  0.01429300  1
  H  H33  1  0.91451200  0.68910100  0.68019400  1
  H  H34  1  0.94601600  0.44601600  0.38705200  1
  H  H35  1  0.98395500  0.16145900  0.98570700  1
  O  O36  1  0.00000000  0.50000000  0.27737600  1
  O  O37  1  0.06284200  0.18979800  0.49902000  1
  O  O38  1  0.09562200  0.81020700  0.06069900  1
  O  O39  1  0.11529200  0.38470800  0.78640200  1
  O  O40  1  0.16848800  0.66848800  0.49831200  1
  O  O41  1  0.18979800  0.93715800  0.50098000  1
  O  O42  1  0.18979300  0.09562200  0.93930100  1
  O  O43  1  0.31020700  0.59562200  0.06069900  1
  O  O44  1  0.31020200  0.43715800  0.49902000  1
  O  O45  1  0.33151200  0.16848800  0.50168800  1
  O  O46  1  0.38470800  0.88470800  0.21359800  1
  O  O47  1  0.40437800  0.31020700  0.93930100  1
  O  O48  1  0.43715800  0.68979800  0.50098000  1
  O  O49  1  0.50000000  0.00000000  0.72262400  1
  O  O50  1  0.56284200  0.31020200  0.50098000  1
  O  O51  1  0.59562200  0.68979300  0.93930100  1
  O  O52  1  0.61529200  0.11529200  0.21359800  1
  O  O53  1  0.66848800  0.83151200  0.50168800  1
  O  O54  1  0.68979800  0.56284200  0.49902000  1
  O  O55  1  0.68979300  0.40437800  0.06069900  1
  O  O56  1  0.81020700  0.90437800  0.93930100  1
  O  O57  1  0.81020200  0.06284200  0.50098000  1
  O  O58  1  0.83151200  0.33151200  0.49831200  1
  O  O59  1  0.88470800  0.61529200  0.78640200  1
  O  O60  1  0.90437800  0.18979300  0.06069900  1
  O  O61  1  0.93715800  0.81020200  0.49902000  1
