# generated using pymatgen
data_Li2VFeO4
_symmetry_space_group_name_H-M   'P 1'
_cell_length_a   10.27741320
_cell_length_b   5.89441631
_cell_length_c   5.86138882
_cell_angle_alpha   90.00000000
_cell_angle_beta   124.67024741
_cell_angle_gamma   90.00000000
_symmetry_Int_Tables_number   1
_chemical_formula_structural   Li2VFeO4
_chemical_formula_sum   'Li8 V4 Fe4 O16'
_cell_volume   292.03112387
_cell_formula_units_Z   4
loop_
 _symmetry_equiv_pos_site_id
 _symmetry_equiv_pos_as_xyz
  1  'x, y, z'
loop_
 _atom_site_type_symbol
 _atom_site_label
 _atom_site_symmetry_multiplicity
 _atom_site_fract_x
 _atom_site_fract_y
 _atom_site_fract_z
 _atom_site_occupancy
  Li  Li0  1  0.00000000  0.50000000  0.00000000  1
  Li  Li1  1  0.75000000  0.75000000  0.50000000  1
  Li  Li2  1  0.00000000  0.50000000  0.50000000  1
  Li  Li3  1  0.75000000  0.25000000  0.50000000  1
  Li  Li4  1  0.50000000  0.00000000  0.00000000  1
  Li  Li5  1  0.25000000  0.25000000  0.50000000  1
  Li  Li6  1  0.50000000  0.00000000  0.50000000  1
  Li  Li7  1  0.25000000  0.75000000  0.50000000  1
  V  V8  1  0.75000000  0.75000000  0.00000000  1
  V  V9  1  0.75000000  0.25000000  0.00000000  1
  V  V10  1  0.25000000  0.25000000  0.00000000  1
  V  V11  1  0.25000000  0.75000000  0.00000000  1
  Fe  Fe12  1  0.00000000  0.00000000  0.00000000  1
  Fe  Fe13  1  0.00000000  0.00000000  0.50000000  1
  Fe  Fe14  1  0.50000000  0.50000000  0.00000000  1
  Fe  Fe15  1  0.50000000  0.50000000  0.50000000  1
  O  O16  1  0.73671400  0.50000000  0.22754250  1
  O  O17  1  0.50634500  0.73019100  0.75181550  1
  O  O18  1  0.75390350  0.50000000  0.76539750  1
  O  O19  1  0.99365500  0.23019100  0.24818450  1
  O  O20  1  0.50634500  0.26980900  0.75181550  1
  O  O21  1  0.74609650  0.00000000  0.23460250  1
  O  O22  1  0.99365500  0.76980900  0.24818450  1
  O  O23  1  0.76328600  0.00000000  0.77245750  1
  O  O24  1  0.23671400  0.00000000  0.22754250  1
  O  O25  1  0.00634500  0.23019100  0.75181550  1
  O  O26  1  0.25390350  0.00000000  0.76539750  1
  O  O27  1  0.49365500  0.73019100  0.24818450  1
  O  O28  1  0.00634500  0.76980900  0.75181550  1
  O  O29  1  0.24609650  0.50000000  0.23460250  1
  O  O30  1  0.49365500  0.26980900  0.24818450  1
  O  O31  1  0.26328600  0.50000000  0.77245750  1
