# generated using pymatgen
data_Li3V2P4(HO8)2
_symmetry_space_group_name_H-M   'P 1'
_cell_length_a   7.88389600
_cell_length_b   8.07843500
_cell_length_c   9.74999693
_cell_angle_alpha   90.00000000
_cell_angle_beta   112.05893578
_cell_angle_gamma   90.00000000
_symmetry_Int_Tables_number   1
_chemical_formula_structural   Li3V2P4(HO8)2
_chemical_formula_sum   'Li6 V4 P8 H4 O32'
_cell_volume   575.51640163
_cell_formula_units_Z   2
loop_
 _symmetry_equiv_pos_site_id
 _symmetry_equiv_pos_as_xyz
  1  'x, y, z'
loop_
 _atom_site_type_symbol
 _atom_site_label
 _atom_site_symmetry_multiplicity
 _atom_site_fract_x
 _atom_site_fract_y
 _atom_site_fract_z
 _atom_site_occupancy
  Li  Li0  1  0.09294400  0.13314800  0.22244300  1
  Li  Li1  1  0.60098500  0.36840000  0.22691600  1
  Li  Li2  1  0.40628200  0.86789900  0.26940400  1
  Li  Li3  1  0.90705600  0.63314800  0.77755700  1
  Li  Li4  1  0.59371800  0.36789900  0.73059600  1
  Li  Li5  1  0.39901500  0.86840000  0.77308400  1
  V  V6  1  0.23762100  0.50373600  0.24891700  1
  V  V7  1  0.75429400  0.99618300  0.25275800  1
  V  V8  1  0.24570600  0.49618300  0.74724200  1
  V  V9  1  0.76237900  0.00373600  0.75108300  1
  P  P10  1  0.02056000  0.84818500  0.06730900  1
  P  P11  1  0.50992800  0.65161100  0.06787600  1
  P  P12  1  0.98190000  0.35103000  0.43107100  1
  P  P13  1  0.01810000  0.85103000  0.56892900  1
  P  P14  1  0.48545600  0.15752200  0.43472500  1
  P  P15  1  0.51454400  0.65752200  0.56527500  1
  P  P16  1  0.97944000  0.34818500  0.93269100  1
  P  P17  1  0.49007200  0.15161100  0.93212400  1
  H  H18  1  0.73287000  0.51008000  0.01413500  1
  H  H19  1  0.74423600  0.51106000  0.50558600  1
  H  H20  1  0.25576400  0.01106000  0.49441400  1
  H  H21  1  0.26713000  0.01008000  0.98586500  1
  O  O22  1  0.19813000  0.94544500  0.09536200  1
  O  O23  1  0.10159700  0.32881600  0.10119600  1
  O  O24  1  0.06795100  0.67255300  0.13387200  1
  O  O25  1  0.91197400  0.94940400  0.14096700  1
  O  O26  1  0.68705500  0.54761100  0.09719300  1
  O  O27  1  0.60317400  0.17185300  0.09905800  1
  O  O28  1  0.55810600  0.81799900  0.14726900  1
  O  O29  1  0.40088400  0.54542200  0.14224500  1
  O  O30  1  0.10034800  0.45361200  0.35700100  1
  O  O31  1  0.94226300  0.18463000  0.34824500  1
  O  O32  1  0.89303200  0.83337600  0.40562700  1
  O  O33  1  0.80214500  0.43995700  0.40731200  1
  O  O34  1  0.58689600  0.04839100  0.36066200  1
  O  O35  1  0.43493400  0.32526800  0.35371900  1
  O  O36  1  0.19785500  0.93995700  0.59268800  1
  O  O37  1  0.10696800  0.33337600  0.59437300  1
  O  O38  1  0.39723800  0.67829400  0.39805600  1
  O  O39  1  0.30175500  0.06319700  0.40861200  1
  O  O40  1  0.05773700  0.68463000  0.65175500  1
  O  O41  1  0.89965200  0.95361200  0.64299900  1
  O  O42  1  0.69824500  0.56319700  0.59138800  1
  O  O43  1  0.60276200  0.17829400  0.60194400  1
  O  O44  1  0.56506600  0.82526800  0.64628100  1
  O  O45  1  0.41310400  0.54839100  0.63933800  1
  O  O46  1  0.08802600  0.44940400  0.85903300  1
  O  O47  1  0.93204900  0.17255300  0.86612800  1
  O  O48  1  0.89840300  0.82881600  0.89880400  1
  O  O49  1  0.80187000  0.44544500  0.90463800  1
  O  O50  1  0.59911600  0.04542200  0.85775500  1
  O  O51  1  0.44189400  0.31799900  0.85273100  1
  O  O52  1  0.39682600  0.67185300  0.90094200  1
  O  O53  1  0.31294500  0.04761100  0.90280700  1
