# generated using pymatgen
data_Cs3TmO3
_symmetry_space_group_name_H-M   'P 1'
_cell_length_a   7.96419000
_cell_length_b   12.89741000
_cell_length_c   7.63070205
_cell_angle_alpha   90.00000000
_cell_angle_beta   101.47200060
_cell_angle_gamma   90.00000000
_symmetry_Int_Tables_number   1
_chemical_formula_structural   Cs3TmO3
_chemical_formula_sum   'Cs12 Tm4 O12'
_cell_volume   768.14719045
_cell_formula_units_Z   4
loop_
 _symmetry_equiv_pos_site_id
 _symmetry_equiv_pos_as_xyz
  1  'x, y, z'
loop_
 _atom_site_type_symbol
 _atom_site_label
 _atom_site_symmetry_multiplicity
 _atom_site_fract_x
 _atom_site_fract_y
 _atom_site_fract_z
 _atom_site_occupancy
  Cs  Cs0  1  0.35924300  0.00000000  0.65080000  1
  Cs  Cs1  1  0.50000000  0.71046900  0.50000000  1
  Cs  Cs2  1  0.50000000  0.28953100  0.50000000  1
  Cs  Cs3  1  0.50000000  0.76224500  0.00000000  1
  Cs  Cs4  1  0.50000000  0.23775500  0.00000000  1
  Cs  Cs5  1  0.64075700  0.00000000  0.34920000  1
  Cs  Cs6  1  0.85924300  0.50000000  0.65080000  1
  Cs  Cs7  1  0.00000000  0.21046900  0.50000000  1
  Cs  Cs8  1  0.00000000  0.78953100  0.50000000  1
  Cs  Cs9  1  0.00000000  0.26224500  0.00000000  1
  Cs  Cs10  1  0.00000000  0.73775500  0.00000000  1
  Cs  Cs11  1  0.14075700  0.50000000  0.34920000  1
  Tm  Tm12  1  0.17022100  0.00000000  0.14898400  1
  Tm  Tm13  1  0.82977900  0.00000000  0.85101600  1
  Tm  Tm14  1  0.67022100  0.50000000  0.14898400  1
  Tm  Tm15  1  0.32977900  0.50000000  0.85101600  1
  O  O16  1  0.10015000  0.00000000  0.85908300  1
  O  O17  1  0.29771700  0.13345100  0.26377000  1
  O  O18  1  0.29771700  0.86654900  0.26377000  1
  O  O19  1  0.70228300  0.13345100  0.73623000  1
  O  O20  1  0.70228300  0.86654900  0.73623000  1
  O  O21  1  0.89985000  0.00000000  0.14091700  1
  O  O22  1  0.60015000  0.50000000  0.85908300  1
  O  O23  1  0.79771700  0.63345100  0.26377000  1
  O  O24  1  0.79771700  0.36654900  0.26377000  1
  O  O25  1  0.20228300  0.63345100  0.73623000  1
  O  O26  1  0.20228300  0.36654900  0.73623000  1
  O  O27  1  0.39985000  0.50000000  0.14091700  1
