# generated using pymatgen
data_CaH8(NO5)2
_symmetry_space_group_name_H-M   'P 1'
_cell_length_a   6.44824200
_cell_length_b   9.21019300
_cell_length_c   15.20230138
_cell_angle_alpha   90.00000000
_cell_angle_beta   105.73978550
_cell_angle_gamma   90.00000000
_symmetry_Int_Tables_number   1
_chemical_formula_structural   CaH8(NO5)2
_chemical_formula_sum   'Ca4 H32 N8 O40'
_cell_volume   869.00397951
_cell_formula_units_Z   4
loop_
 _symmetry_equiv_pos_site_id
 _symmetry_equiv_pos_as_xyz
  1  'x, y, z'
loop_
 _atom_site_type_symbol
 _atom_site_label
 _atom_site_symmetry_multiplicity
 _atom_site_fract_x
 _atom_site_fract_y
 _atom_site_fract_z
 _atom_site_occupancy
  Ca  Ca0  1  0.67774200  0.91418000  0.63417600  1
  Ca  Ca1  1  0.67774200  0.58582000  0.13417600  1
  Ca  Ca2  1  0.32225800  0.08582000  0.36582400  1
  Ca  Ca3  1  0.32225800  0.41418000  0.86582400  1
  H  H4  1  0.38664300  0.61335600  0.26042400  1
  H  H5  1  0.38664300  0.88664400  0.76042400  1
  H  H6  1  0.61335700  0.38664400  0.73957600  1
  H  H7  1  0.61335700  0.11335600  0.23957600  1
  H  H8  1  0.57310200  0.94601100  0.24710300  1
  H  H9  1  0.57310200  0.55398900  0.74710300  1
  H  H10  1  0.42689800  0.05398900  0.75289700  1
  H  H11  1  0.42689800  0.44601100  0.25289700  1
  H  H12  1  0.03300300  0.65116000  0.90859800  1
  H  H13  1  0.03300300  0.84884000  0.40859800  1
  H  H14  1  0.96699700  0.34884000  0.09140200  1
  H  H15  1  0.96699700  0.15116000  0.59140200  1
  H  H16  1  0.93474300  0.50166600  0.92498700  1
  H  H17  1  0.93474300  0.99833400  0.42498700  1
  H  H18  1  0.06525700  0.49833400  0.07501300  1
  H  H19  1  0.06525700  0.00166600  0.57501300  1
  H  H20  1  0.95389600  0.63673300  0.64302200  1
  H  H21  1  0.95389600  0.86326700  0.14302200  1
  H  H22  1  0.04610400  0.36326700  0.35697800  1
  H  H23  1  0.04610400  0.13673300  0.85697800  1
  H  H24  1  0.84766700  0.68168600  0.54108600  1
  H  H25  1  0.84766700  0.81831400  0.04108600  1
  H  H26  1  0.15233300  0.31831400  0.45891400  1
  H  H27  1  0.15233300  0.18168600  0.95891400  1
  H  H28  1  0.27309900  0.78468800  0.11220700  1
  H  H29  1  0.27309900  0.71531200  0.61220700  1
  H  H30  1  0.72690100  0.21531200  0.88779300  1
  H  H31  1  0.72690100  0.28468800  0.38779300  1
  H  H32  1  0.43358300  0.86984800  0.07011700  1
  H  H33  1  0.43358300  0.63015200  0.57011700  1
  H  H34  1  0.56641700  0.13015200  0.92988300  1
  H  H35  1  0.56641700  0.36984800  0.42988300  1
  N  N36  1  0.48510600  0.76611800  0.40929900  1
  N  N37  1  0.48510600  0.73388200  0.90929900  1
  N  N38  1  0.51489400  0.23388200  0.59070100  1
  N  N39  1  0.51489400  0.26611800  0.09070100  1
  N  N40  1  0.92461400  0.87276400  0.82690500  1
  N  N41  1  0.92461400  0.62723600  0.32690500  1
  N  N42  1  0.07538600  0.12723600  0.17309500  1
  N  N43  1  0.07538600  0.37276400  0.67309500  1
  O  O44  1  0.35897400  0.78163800  0.33007000  1
  O  O45  1  0.35897400  0.71836200  0.83007000  1
  O  O46  1  0.64102600  0.21836200  0.66993000  1
  O  O47  1  0.64102600  0.28163800  0.16993000  1
  O  O48  1  0.54160400  0.88074700  0.45820900  1
  O  O49  1  0.54160400  0.61925300  0.95820900  1
  O  O50  1  0.45839600  0.11925300  0.54179100  1
  O  O51  1  0.45839600  0.38074700  0.04179100  1
  O  O52  1  0.55414600  0.64373600  0.44000200  1
  O  O53  1  0.55414600  0.85626400  0.94000200  1
  O  O54  1  0.44585400  0.35626400  0.55999800  1
  O  O55  1  0.44585400  0.14373600  0.05999800  1
  O  O56  1  0.81302600  0.77176100  0.78039400  1
  O  O57  1  0.81302600  0.72823900  0.28039400  1
  O  O58  1  0.18697400  0.22823900  0.21960600  1
  O  O59  1  0.18697400  0.27176100  0.71960600  1
  O  O60  1  0.02002900  0.85591600  0.90971200  1
  O  O61  1  0.02002900  0.64408400  0.40971200  1
  O  O62  1  0.97997100  0.14408400  0.09028800  1
  O  O63  1  0.97997100  0.35591600  0.59028800  1
  O  O64  1  0.93638600  0.99292700  0.78570600  1
  O  O65  1  0.93638600  0.50707300  0.28570600  1
  O  O66  1  0.06361400  0.00707300  0.21429400  1
  O  O67  1  0.06361400  0.49292700  0.71429400  1
  O  O68  1  0.41515700  0.53767400  0.21930100  1
  O  O69  1  0.41515700  0.96232600  0.71930100  1
  O  O70  1  0.58484300  0.46232600  0.78069900  1
  O  O71  1  0.58484300  0.03767400  0.28069900  1
  O  O72  1  0.07026100  0.54899000  0.92471700  1
  O  O73  1  0.07026100  0.95101000  0.42471700  1
  O  O74  1  0.92973900  0.45101000  0.07528300  1
  O  O75  1  0.92973900  0.04899000  0.57528300  1
  O  O76  1  0.92033800  0.72219300  0.60121800  1
  O  O77  1  0.92033800  0.77780700  0.10121800  1
  O  O78  1  0.07966200  0.27780700  0.39878200  1
  O  O79  1  0.07966200  0.22219300  0.89878200  1
  O  O80  1  0.42693400  0.79916800  0.11724300  1
  O  O81  1  0.42693400  0.70083200  0.61724300  1
  O  O82  1  0.57306600  0.20083200  0.88275700  1
  O  O83  1  0.57306600  0.29916800  0.38275700  1
