# generated using pymatgen
data_Er3TaO7
_symmetry_space_group_name_H-M   'P 1'
_cell_length_a   7.34772000
_cell_length_b   10.52259800
_cell_length_c   7.51089200
_cell_angle_alpha   90.00000000
_cell_angle_beta   90.00000000
_cell_angle_gamma   90.00000000
_symmetry_Int_Tables_number   1
_chemical_formula_structural   Er3TaO7
_chemical_formula_sum   'Er12 Ta4 O28'
_cell_volume   580.72041622
_cell_formula_units_Z   4
loop_
 _symmetry_equiv_pos_site_id
 _symmetry_equiv_pos_as_xyz
  1  'x, y, z'
loop_
 _atom_site_type_symbol
 _atom_site_label
 _atom_site_symmetry_multiplicity
 _atom_site_fract_x
 _atom_site_fract_y
 _atom_site_fract_z
 _atom_site_occupancy
  Er  Er0  1  0.27926500  0.23261900  0.25000000  1
  Er  Er1  1  0.00000000  0.00000000  0.00000000  1
  Er  Er2  1  0.00000000  0.00000000  0.50000000  1
  Er  Er3  1  0.72073500  0.23261900  0.75000000  1
  Er  Er4  1  0.27926500  0.76738100  0.25000000  1
  Er  Er5  1  0.72073500  0.76738100  0.75000000  1
  Er  Er6  1  0.77926500  0.73261900  0.25000000  1
  Er  Er7  1  0.50000000  0.50000000  0.00000000  1
  Er  Er8  1  0.50000000  0.50000000  0.50000000  1
  Er  Er9  1  0.22073500  0.73261900  0.75000000  1
  Er  Er10  1  0.77926500  0.26738100  0.25000000  1
  Er  Er11  1  0.22073500  0.26738100  0.75000000  1
  Ta  Ta12  1  0.50000000  0.00000000  0.00000000  1
  Ta  Ta13  1  0.50000000  0.00000000  0.50000000  1
  Ta  Ta14  1  0.00000000  0.50000000  0.00000000  1
  Ta  Ta15  1  0.00000000  0.50000000  0.50000000  1
  O  O16  1  0.48307500  0.36679500  0.75000000  1
  O  O17  1  0.51692500  0.36679500  0.25000000  1
  O  O18  1  0.30378500  0.12962900  0.53062300  1
  O  O19  1  0.30378500  0.12962900  0.96937700  1
  O  O20  1  0.69621500  0.12962900  0.03062300  1
  O  O21  1  0.69621500  0.12962900  0.46937700  1
  O  O22  1  0.42906400  0.00000000  0.25000000  1
  O  O23  1  0.57093600  0.00000000  0.75000000  1
  O  O24  1  0.30378500  0.87037100  0.96937700  1
  O  O25  1  0.30378500  0.87037100  0.53062300  1
  O  O26  1  0.69621500  0.87037100  0.03062300  1
  O  O27  1  0.69621500  0.87037100  0.46937700  1
  O  O28  1  0.48307500  0.63320500  0.75000000  1
  O  O29  1  0.51692500  0.63320500  0.25000000  1
  O  O30  1  0.98307500  0.86679500  0.75000000  1
  O  O31  1  0.01692500  0.86679500  0.25000000  1
  O  O32  1  0.80378500  0.62962900  0.53062300  1
  O  O33  1  0.80378500  0.62962900  0.96937700  1
  O  O34  1  0.19621500  0.62962900  0.03062300  1
  O  O35  1  0.19621500  0.62962900  0.46937700  1
  O  O36  1  0.92906400  0.50000000  0.25000000  1
  O  O37  1  0.07093600  0.50000000  0.75000000  1
  O  O38  1  0.80378500  0.37037100  0.96937700  1
  O  O39  1  0.80378500  0.37037100  0.53062300  1
  O  O40  1  0.19621500  0.37037100  0.03062300  1
  O  O41  1  0.19621500  0.37037100  0.46937700  1
  O  O42  1  0.98307500  0.13320500  0.75000000  1
  O  O43  1  0.01692500  0.13320500  0.25000000  1
