# generated using pymatgen
data_Li3P3(WO6)2
_symmetry_space_group_name_H-M   'P 1'
_cell_length_a   8.69371221
_cell_length_b   8.69371221
_cell_length_c   23.37448487
_cell_angle_alpha   90.00000000
_cell_angle_beta   90.00000000
_cell_angle_gamma   120.00000000
_symmetry_Int_Tables_number   1
_chemical_formula_structural   Li3P3(WO6)2
_chemical_formula_sum   'Li18 P18 W12 O72'
_cell_volume   1529.97100132
_cell_formula_units_Z   6
loop_
 _symmetry_equiv_pos_site_id
 _symmetry_equiv_pos_as_xyz
  1  'x, y, z'
loop_
 _atom_site_type_symbol
 _atom_site_label
 _atom_site_symmetry_multiplicity
 _atom_site_fract_x
 _atom_site_fract_y
 _atom_site_fract_z
 _atom_site_occupancy
  Li  Li0  1  0.98099200  0.62215600  0.28310500  1
  Li  Li1  1  0.64116400  0.01900800  0.28310500  1
  Li  Li2  1  0.37784400  0.35883600  0.28310500  1
  Li  Li3  1  0.28882267  0.97449733  0.05022833  1
  Li  Li4  1  0.02550267  0.31432533  0.05022833  1
  Li  Li5  1  0.68567467  0.71117733  0.05022833  1
  Li  Li6  1  0.64765867  0.95548933  0.61643833  1
  Li  Li7  1  0.30783067  0.35234133  0.61643833  1
  Li  Li8  1  0.04451067  0.69216933  0.61643833  1
  Li  Li9  1  0.95548933  0.30783067  0.38356167  1
  Li  Li10  1  0.69216933  0.64765867  0.38356167  1
  Li  Li11  1  0.35234133  0.04451067  0.38356167  1
  Li  Li12  1  0.31432533  0.28882267  0.94977167  1
  Li  Li13  1  0.97449733  0.68567467  0.94977167  1
  Li  Li14  1  0.71117733  0.02550267  0.94977167  1
  Li  Li15  1  0.62215600  0.64116400  0.71689500  1
  Li  Li16  1  0.35883600  0.98099200  0.71689500  1
  Li  Li17  1  0.01900800  0.37784400  0.71689500  1
  P  P18  1  0.29359867  0.00044933  0.25073033  1
  P  P19  1  0.99955067  0.29314933  0.25073033  1
  P  P20  1  0.70685067  0.70640133  0.25073033  1
  P  P21  1  0.95981600  0.62693200  0.08260300  1
  P  P22  1  0.66711600  0.04018400  0.08260300  1
  P  P23  1  0.37306800  0.33288400  0.08260300  1
  P  P24  1  0.96026533  0.33378267  0.58406367  1
  P  P25  1  0.66621733  0.62648267  0.58406367  1
  P  P26  1  0.37351733  0.03973467  0.58406367  1
  P  P27  1  0.62648267  0.96026533  0.41593633  1
  P  P28  1  0.33378267  0.37351733  0.41593633  1
  P  P29  1  0.03973467  0.66621733  0.41593633  1
  P  P30  1  0.62693200  0.66711600  0.91739700  1
  P  P31  1  0.33288400  0.95981600  0.91739700  1
  P  P32  1  0.04018400  0.37306800  0.91739700  1
  P  P33  1  0.29314933  0.29359867  0.74926967  1
  P  P34  1  0.00044933  0.70685067  0.74926967  1
  P  P35  1  0.70640133  0.99955067  0.74926967  1
  W  W36  1  0.33333333  0.66666667  0.31998867  1
  W  W37  1  0.33333333  0.66666667  0.01334467  1
  W  W38  1  0.66666667  0.33333333  0.18906633  1
  W  W39  1  0.00000000  0.00000000  0.14426700  1
  W  W40  1  0.00000000  0.00000000  0.65332200  1
  W  W41  1  0.00000000  0.00000000  0.34667800  1
  W  W42  1  0.33333333  0.66666667  0.52239967  1
  W  W43  1  0.66666667  0.33333333  0.47760033  1
  W  W44  1  0.66666667  0.33333333  0.98665533  1
  W  W45  1  0.66666667  0.33333333  0.68001133  1
  W  W46  1  0.00000000  0.00000000  0.85573300  1
  W  W47  1  0.33333333  0.66666667  0.81093367  1
  O  O48  1  0.41639133  0.23641167  0.03250167  1
  O  O49  1  0.82002033  0.58360867  0.03250167  1
  O  O50  1  0.76358833  0.17997967  0.03250167  1
  O  O51  1  0.23202333  0.80637367  0.26972967  1
  O  O52  1  0.49956567  0.10808933  0.24572333  1
  O  O53  1  0.20426933  0.00278067  0.19570867  1
  O  O54  1  0.89191067  0.39147633  0.24572333  1
  O  O55  1  0.19362633  0.42564967  0.26972967  1
  O  O56  1  0.57435033  0.76797667  0.26972967  1
  O  O57  1  0.86815533  0.53760267  0.13762467  1
  O  O58  1  0.05814300  0.83289900  0.08761000  1
  O  O59  1  0.66944733  0.13184467  0.13762467  1
  O  O60  1  0.99721933  0.20148867  0.19570867  1
  O  O61  1  0.60852367  0.50043433  0.24572333  1
  O  O62  1  0.79851133  0.79573067  0.19570867  1
  O  O63  1  0.09231633  0.56535667  0.06360367  1
  O  O64  1  0.47304033  0.90768367  0.06360367  1
  O  O65  1  0.77475600  0.94185700  0.08761000  1
  O  O66  1  0.46239733  0.33055267  0.13762467  1
  O  O67  1  0.16710100  0.22524400  0.08761000  1
  O  O68  1  0.43464333  0.52695967  0.06360367  1
  O  O69  1  0.90307833  0.15335367  0.30083167  1
  O  O70  1  0.84664633  0.74972467  0.30083167  1
  O  O71  1  0.25027533  0.09692167  0.30083167  1
  O  O72  1  0.08305800  0.56974500  0.36583500  1
  O  O73  1  0.48668700  0.91694200  0.36583500  1
  O  O74  1  0.43025500  0.51331300  0.36583500  1
  O  O75  1  0.89869000  0.13970700  0.60306300  1
  O  O76  1  0.16623233  0.44142267  0.57905667  1
  O  O77  1  0.87093600  0.33611400  0.52904200  1
  O  O78  1  0.55857733  0.72480967  0.57905667  1
  O  O79  1  0.86029300  0.75898300  0.60306300  1
  O  O80  1  0.24101700  0.10131000  0.60306300  1
  O  O81  1  0.53482200  0.87093600  0.47095800  1
  O  O82  1  0.72480967  0.16623233  0.42094333  1
  O  O83  1  0.33611400  0.46517800  0.47095800  1
  O  O84  1  0.66388600  0.53482200  0.52904200  1
  O  O85  1  0.27519033  0.83376767  0.57905667  1
  O  O86  1  0.46517800  0.12906400  0.52904200  1
  O  O87  1  0.75898300  0.89869000  0.39693700  1
  O  O88  1  0.13970700  0.24101700  0.39693700  1
  O  O89  1  0.44142267  0.27519033  0.42094333  1
  O  O90  1  0.12906400  0.66388600  0.47095800  1
  O  O91  1  0.83376767  0.55857733  0.42094333  1
  O  O92  1  0.10131000  0.86029300  0.39693700  1
  O  O93  1  0.56974500  0.48668700  0.63416500  1
  O  O94  1  0.51331300  0.08305800  0.63416500  1
  O  O95  1  0.91694200  0.43025500  0.63416500  1
  O  O96  1  0.74972467  0.90307833  0.69916833  1
  O  O97  1  0.15335367  0.25027533  0.69916833  1
  O  O98  1  0.09692167  0.84664633  0.69916833  1
  O  O99  1  0.56535667  0.47304033  0.93639633  1
  O  O100  1  0.83289900  0.77475600  0.91239000  1
  O  O101  1  0.53760267  0.66944733  0.86237533  1
  O  O102  1  0.22524400  0.05814300  0.91239000  1
  O  O103  1  0.52695967  0.09231633  0.93639633  1
  O  O104  1  0.90768367  0.43464333  0.93639633  1
  O  O105  1  0.20148867  0.20426933  0.80429133  1
  O  O106  1  0.39147633  0.49956567  0.75427667  1
  O  O107  1  0.00278067  0.79851133  0.80429133  1
  O  O108  1  0.33055267  0.86815533  0.86237533  1
  O  O109  1  0.94185700  0.16710100  0.91239000  1
  O  O110  1  0.13184467  0.46239733  0.86237533  1
  O  O111  1  0.42564967  0.23202333  0.73027033  1
  O  O112  1  0.80637367  0.57435033  0.73027033  1
  O  O113  1  0.10808933  0.60852367  0.75427667  1
  O  O114  1  0.79573067  0.99721933  0.80429133  1
  O  O115  1  0.50043433  0.89191067  0.75427667  1
  O  O116  1  0.76797667  0.19362633  0.73027033  1
  O  O117  1  0.23641167  0.82002033  0.96749833  1
  O  O118  1  0.17997967  0.41639133  0.96749833  1
  O  O119  1  0.58360867  0.76358833  0.96749833  1
