# generated using pymatgen
data_CrP6(WO8)3
_symmetry_space_group_name_H-M   'P 1'
_cell_length_a   8.75570163
_cell_length_b   8.75570163
_cell_length_c   21.98436458
_cell_angle_alpha   90.00000000
_cell_angle_beta   90.00000000
_cell_angle_gamma   120.00000000
_symmetry_Int_Tables_number   1
_chemical_formula_structural   CrP6(WO8)3
_chemical_formula_sum   'Cr3 P18 W9 O72'
_cell_volume   1459.57513517
_cell_formula_units_Z   3
loop_
 _symmetry_equiv_pos_site_id
 _symmetry_equiv_pos_as_xyz
  1  'x, y, z'
loop_
 _atom_site_type_symbol
 _atom_site_label
 _atom_site_symmetry_multiplicity
 _atom_site_fract_x
 _atom_site_fract_y
 _atom_site_fract_z
 _atom_site_occupancy
  Cr  Cr0  1  0.00000000  0.00000000  0.14272700  1
  Cr  Cr1  1  0.66666667  0.33333333  0.47606033  1
  Cr  Cr2  1  0.33333333  0.66666667  0.80939367  1
  P  P3  1  0.28207767  0.99942633  0.24842533  1
  P  P4  1  0.00057367  0.28265133  0.24842533  1
  P  P5  1  0.71734867  0.71792233  0.24842533  1
  P  P6  1  0.95329867  0.62622933  0.08378333  1
  P  P7  1  0.67293067  0.04670133  0.08378333  1
  P  P8  1  0.37377067  0.32706933  0.08378333  1
  P  P9  1  0.94874433  0.33275967  0.58175867  1
  P  P10  1  0.66724033  0.61598467  0.58175867  1
  P  P11  1  0.38401533  0.05125567  0.58175867  1
  P  P12  1  0.61996533  0.95956267  0.41711667  1
  P  P13  1  0.33959733  0.38003467  0.41711667  1
  P  P14  1  0.04043733  0.66040267  0.41711667  1
  P  P15  1  0.61541100  0.66609300  0.91509200  1
  P  P16  1  0.33390700  0.94931800  0.91509200  1
  P  P17  1  0.05068200  0.38458900  0.91509200  1
  P  P18  1  0.28663200  0.29289600  0.75045000  1
  P  P19  1  0.00626400  0.71336800  0.75045000  1
  P  P20  1  0.70710400  0.99373600  0.75045000  1
  W  W21  1  0.66666667  0.33333333  0.19102433  1
  W  W22  1  0.33333333  0.66666667  0.30950567  1
  W  W23  1  0.33333333  0.66666667  0.02477567  1
  W  W24  1  0.33333333  0.66666667  0.52435767  1
  W  W25  1  0.00000000  0.00000000  0.64283900  1
  W  W26  1  0.00000000  0.00000000  0.35810900  1
  W  W27  1  0.00000000  0.00000000  0.85769100  1
  W  W28  1  0.66666667  0.33333333  0.97617233  1
  W  W29  1  0.66666667  0.33333333  0.69144233  1
  O  O30  1  0.46838067  0.31010233  0.02645333  1
  O  O31  1  0.84172167  0.53161933  0.02645333  1
  O  O32  1  0.46973233  0.16387967  0.24362167  1
  O  O33  1  0.68989767  0.15827833  0.02645333  1
  O  O34  1  0.30814467  0.83813633  0.25765533  1
  O  O35  1  0.17159167  0.96873133  0.19278933  1
  O  O36  1  0.83612033  0.30585267  0.24362167  1
  O  O37  1  0.16186367  0.47000833  0.25765533  1
  O  O38  1  0.52999167  0.69185533  0.25765533  1
  O  O39  1  0.86769767  0.50618133  0.14038333  1
  O  O40  1  0.97034000  0.80414700  0.08880000  1
  O  O41  1  0.63848367  0.13230233  0.14038333  1
  O  O42  1  0.03126867  0.20286033  0.19278933  1
  O  O43  1  0.69414733  0.53026767  0.24362167  1
  O  O44  1  0.79713967  0.82840833  0.19278933  1
  O  O45  1  0.13500033  0.63678767  0.07666867  1
  O  O46  1  0.50178733  0.86499967  0.07666867  1
  O  O47  1  0.83380700  0.02966000  0.08880000  1
  O  O48  1  0.49381867  0.36151633  0.14038333  1
  O  O49  1  0.36321233  0.49821267  0.07666867  1
  O  O50  1  0.97220300  0.17402400  0.30763000  1
  O  O51  1  0.19585300  0.16619300  0.08880000  1
  O  O52  1  0.82597600  0.79817900  0.30763000  1
  O  O53  1  0.20182100  0.02779700  0.30763000  1
  O  O54  1  0.13504733  0.64343567  0.35978667  1
  O  O55  1  0.50838833  0.86495267  0.35978667  1
  O  O56  1  0.13639900  0.49721300  0.57695500  1
  O  O57  1  0.35656433  0.49161167  0.35978667  1
  O  O58  1  0.97481133  0.17146967  0.59098867  1
  O  O59  1  0.83825833  0.30206467  0.52612267  1
  O  O60  1  0.50278700  0.63918600  0.57695500  1
  O  O61  1  0.82853033  0.80334167  0.59098867  1
  O  O62  1  0.19665833  0.02518867  0.59098867  1
  O  O63  1  0.53436433  0.83951467  0.47371667  1
  O  O64  1  0.63700667  0.13748033  0.42213333  1
  O  O65  1  0.30515033  0.46563567  0.47371667  1
  O  O66  1  0.69793533  0.53619367  0.52612267  1
  O  O67  1  0.36081400  0.86360100  0.57695500  1
  O  O68  1  0.46380633  0.16174167  0.52612267  1
  O  O69  1  0.80166700  0.97012100  0.41000200  1
  O  O70  1  0.16845400  0.19833300  0.41000200  1
  O  O71  1  0.50047367  0.36299333  0.42213333  1
  O  O72  1  0.16048533  0.69484967  0.47371667  1
  O  O73  1  0.02987900  0.83154600  0.41000200  1
  O  O74  1  0.63886967  0.50735733  0.64096333  1
  O  O75  1  0.86251967  0.49952633  0.42213333  1
  O  O76  1  0.49264267  0.13151233  0.64096333  1
  O  O77  1  0.86848767  0.36113033  0.64096333  1
  O  O78  1  0.80171400  0.97676900  0.69312000  1
  O  O79  1  0.17505500  0.19828600  0.69312000  1
  O  O80  1  0.80306567  0.83054633  0.91028833  1
  O  O81  1  0.02323100  0.82494500  0.69312000  1
  O  O82  1  0.64147800  0.50480300  0.92432200  1
  O  O83  1  0.50492500  0.63539800  0.85945600  1
  O  O84  1  0.16945367  0.97251933  0.91028833  1
  O  O85  1  0.49519700  0.13667500  0.92432200  1
  O  O86  1  0.86332500  0.35852200  0.92432200  1
  O  O87  1  0.20103100  0.17284800  0.80705000  1
  O  O88  1  0.30367333  0.47081367  0.75546667  1
  O  O89  1  0.97181700  0.79896900  0.80705000  1
  O  O90  1  0.36460200  0.86952700  0.85945600  1
  O  O91  1  0.02748067  0.19693433  0.91028833  1
  O  O92  1  0.13047300  0.49507500  0.85945600  1
  O  O93  1  0.46833367  0.30345433  0.74333533  1
  O  O94  1  0.83512067  0.53166633  0.74333533  1
  O  O95  1  0.16714033  0.69632667  0.75546667  1
  O  O96  1  0.82715200  0.02818300  0.80705000  1
  O  O97  1  0.69654567  0.16487933  0.74333533  1
  O  O98  1  0.30553633  0.84069067  0.97429667  1
  O  O99  1  0.52918633  0.83285967  0.75546667  1
  O  O100  1  0.15930933  0.46484567  0.97429667  1
  O  O101  1  0.53515433  0.69446367  0.97429667  1
