# generated using pymatgen
data_LaMgI5
_symmetry_space_group_name_H-M   'P 1'
_cell_length_a   4.36142800
_cell_length_b   15.13941400
_cell_length_c   17.47629800
_cell_angle_alpha   90.00000000
_cell_angle_beta   90.00000000
_cell_angle_gamma   90.00000000
_symmetry_Int_Tables_number   1
_chemical_formula_structural   LaMgI5
_chemical_formula_sum   'La4 Mg4 I20'
_cell_volume   1153.95059180
_cell_formula_units_Z   4
loop_
 _symmetry_equiv_pos_site_id
 _symmetry_equiv_pos_as_xyz
  1  'x, y, z'
loop_
 _atom_site_type_symbol
 _atom_site_label
 _atom_site_symmetry_multiplicity
 _atom_site_fract_x
 _atom_site_fract_y
 _atom_site_fract_z
 _atom_site_occupancy
  La  La0  1  0.00000000  0.48460400  0.75000000  1
  La  La1  1  0.50000000  0.01539600  0.25000000  1
  La  La2  1  0.50000000  0.98460400  0.75000000  1
  La  La3  1  0.00000000  0.51539600  0.25000000  1
  Mg  Mg4  1  0.00000000  0.00000000  0.50000000  1
  Mg  Mg5  1  0.00000000  0.00000000  0.00000000  1
  Mg  Mg6  1  0.50000000  0.50000000  0.50000000  1
  Mg  Mg7  1  0.50000000  0.50000000  0.00000000  1
  I  I8  1  0.00000000  0.09986400  0.64407200  1
  I  I9  1  0.00000000  0.09986400  0.85592800  1
  I  I10  1  0.00000000  0.39152200  0.56569000  1
  I  I11  1  0.00000000  0.16707500  0.25000000  1
  I  I12  1  0.00000000  0.39152200  0.93431000  1
  I  I13  1  0.50000000  0.10847800  0.06569000  1
  I  I14  1  0.50000000  0.10847800  0.43431000  1
  I  I15  1  0.50000000  0.33292500  0.75000000  1
  I  I16  1  0.50000000  0.40013600  0.14407200  1
  I  I17  1  0.50000000  0.40013600  0.35592800  1
  I  I18  1  0.50000000  0.59986400  0.64407200  1
  I  I19  1  0.50000000  0.59986400  0.85592800  1
  I  I20  1  0.50000000  0.89152200  0.56569000  1
  I  I21  1  0.50000000  0.66707500  0.25000000  1
  I  I22  1  0.50000000  0.89152200  0.93431000  1
  I  I23  1  0.00000000  0.60847800  0.06569000  1
  I  I24  1  0.00000000  0.60847800  0.43431000  1
  I  I25  1  0.00000000  0.83292500  0.75000000  1
  I  I26  1  0.00000000  0.90013600  0.14407200  1
  I  I27  1  0.00000000  0.90013600  0.35592800  1
