# generated using pymatgen
data_H8AuC2S2BrN4
_symmetry_space_group_name_H-M   'P 1'
_cell_length_a   9.01977200
_cell_length_b   16.32274800
_cell_length_c   6.95879155
_cell_angle_alpha   90.00000000
_cell_angle_beta   101.72451529
_cell_angle_gamma   90.00000000
_symmetry_Int_Tables_number   1
_chemical_formula_structural   H8AuC2S2BrN4
_chemical_formula_sum   'H32 Au4 C8 S8 Br4 N16'
_cell_volume   1003.14949975
_cell_formula_units_Z   4
loop_
 _symmetry_equiv_pos_site_id
 _symmetry_equiv_pos_as_xyz
  1  'x, y, z'
loop_
 _atom_site_type_symbol
 _atom_site_label
 _atom_site_symmetry_multiplicity
 _atom_site_fract_x
 _atom_site_fract_y
 _atom_site_fract_z
 _atom_site_occupancy
  H  H0  1  0.71097250  0.98391450  0.76729300  1
  H  H1  1  0.28902750  0.98391450  0.73270700  1
  H  H2  1  0.78902750  0.51608550  0.23270700  1
  H  H3  1  0.21097250  0.51608550  0.26729300  1
  H  H4  1  0.60587850  0.92233050  0.58100000  1
  H  H5  1  0.39412150  0.92233050  0.91900000  1
  H  H6  1  0.89412150  0.57766950  0.41900000  1
  H  H7  1  0.10587850  0.57766950  0.08100000  1
  H  H8  1  0.77945300  0.73677400  0.76426500  1
  H  H9  1  0.22054700  0.73677400  0.73573500  1
  H  H10  1  0.72054700  0.76322600  0.23573500  1
  H  H11  1  0.27945300  0.76322600  0.26426500  1
  H  H12  1  0.62980350  0.78294150  0.59953900  1
  H  H13  1  0.37019650  0.78294150  0.90046100  1
  H  H14  1  0.87019650  0.71705850  0.40046100  1
  H  H15  1  0.12980350  0.71705850  0.09953900  1
  H  H16  1  0.21097250  0.48391450  0.76729300  1
  H  H17  1  0.78902750  0.48391450  0.73270700  1
  H  H18  1  0.28902750  0.01608550  0.23270700  1
  H  H19  1  0.71097250  0.01608550  0.26729300  1
  H  H20  1  0.10587850  0.42233050  0.58100000  1
  H  H21  1  0.89412150  0.42233050  0.91900000  1
  H  H22  1  0.39412150  0.07766950  0.41900000  1
  H  H23  1  0.60587850  0.07766950  0.08100000  1
  H  H24  1  0.27945300  0.23677400  0.76426500  1
  H  H25  1  0.72054700  0.23677400  0.73573500  1
  H  H26  1  0.22054700  0.26322600  0.23573500  1
  H  H27  1  0.77945300  0.26322600  0.26426500  1
  H  H28  1  0.12980350  0.28294150  0.59953900  1
  H  H29  1  0.87019650  0.28294150  0.90046100  1
  H  H30  1  0.37019650  0.21705850  0.40046100  1
  H  H31  1  0.62980350  0.21705850  0.09953900  1
  Au  Au32  1  0.00000000  0.00000000  0.00000000  1
  Au  Au33  1  0.00000000  0.00000000  0.50000000  1
  Au  Au34  1  0.50000000  0.50000000  0.00000000  1
  Au  Au35  1  0.50000000  0.50000000  0.50000000  1
  C  C36  1  0.75920250  0.86162850  0.79156800  1
  C  C37  1  0.24079750  0.86162850  0.70843200  1
  C  C38  1  0.74079750  0.63837150  0.20843200  1
  C  C39  1  0.25920250  0.63837150  0.29156800  1
  C  C40  1  0.25920250  0.36162850  0.79156800  1
  C  C41  1  0.74079750  0.36162850  0.70843200  1
  C  C42  1  0.24079750  0.13837150  0.20843200  1
  C  C43  1  0.75920250  0.13837150  0.29156800  1
  S  S44  1  0.90746400  0.86681800  0.99189300  1
  S  S45  1  0.09253600  0.86681800  0.50810700  1
  S  S46  1  0.59253600  0.63318200  0.00810700  1
  S  S47  1  0.40746400  0.63318200  0.49189300  1
  S  S48  1  0.40746400  0.36681800  0.99189300  1
  S  S49  1  0.59253600  0.36681800  0.50810700  1
  S  S50  1  0.09253600  0.13318200  0.00810700  1
  S  S51  1  0.90746400  0.13318200  0.49189300  1
  Br  Br52  1  0.00000000  0.62733600  0.75000000  1
  Br  Br53  1  0.50000000  0.87266400  0.25000000  1
  Br  Br54  1  0.50000000  0.12733600  0.75000000  1
  Br  Br55  1  0.00000000  0.37266400  0.25000000  1
  N  N56  1  0.68294700  0.92729500  0.71187800  1
  N  N57  1  0.31705300  0.92729500  0.78812200  1
  N  N58  1  0.81705300  0.57270500  0.28812200  1
  N  N59  1  0.18294700  0.57270500  0.21187800  1
  N  N60  1  0.71514200  0.78756800  0.71984000  1
  N  N61  1  0.28485800  0.78756800  0.78016000  1
  N  N62  1  0.78485800  0.71243200  0.28016000  1
  N  N63  1  0.21514200  0.71243200  0.21984000  1
  N  N64  1  0.18294700  0.42729500  0.71187800  1
  N  N65  1  0.81705300  0.42729500  0.78812200  1
  N  N66  1  0.31705300  0.07270500  0.28812200  1
  N  N67  1  0.68294700  0.07270500  0.21187800  1
  N  N68  1  0.21514200  0.28756800  0.71984000  1
  N  N69  1  0.78485800  0.28756800  0.78016000  1
  N  N70  1  0.28485800  0.21243200  0.28016000  1
  N  N71  1  0.71514200  0.21243200  0.21984000  1
