# generated using pymatgen
data_CaGeO3
_symmetry_space_group_name_H-M   'P 1'
_cell_length_a   12.13534200
_cell_length_b   7.03510400
_cell_length_c   10.99971611
_cell_angle_alpha   90.00000000
_cell_angle_beta   110.93739129
_cell_angle_gamma   90.00000000
_symmetry_Int_Tables_number   1
_chemical_formula_structural   CaGeO3
_chemical_formula_sum   'Ca12 Ge12 O36'
_cell_volume   877.07680896
_cell_formula_units_Z   12
loop_
 _symmetry_equiv_pos_site_id
 _symmetry_equiv_pos_as_xyz
  1  'x, y, z'
loop_
 _atom_site_type_symbol
 _atom_site_label
 _atom_site_symmetry_multiplicity
 _atom_site_fract_x
 _atom_site_fract_y
 _atom_site_fract_z
 _atom_site_occupancy
  Ca  Ca0  1  0.75000000  0.25000000  0.50000000  1
  Ca  Ca1  1  0.41298700  0.25827800  0.50063500  1
  Ca  Ca2  1  0.58701300  0.25827800  0.99936500  1
  Ca  Ca3  1  0.41298700  0.74172200  0.00063500  1
  Ca  Ca4  1  0.58701300  0.74172200  0.49936500  1
  Ca  Ca5  1  0.75000000  0.75000000  0.00000000  1
  Ca  Ca6  1  0.25000000  0.75000000  0.50000000  1
  Ca  Ca7  1  0.91298700  0.75827800  0.50063500  1
  Ca  Ca8  1  0.08701300  0.75827800  0.99936500  1
  Ca  Ca9  1  0.91298700  0.24172200  0.00063500  1
  Ca  Ca10  1  0.08701300  0.24172200  0.49936500  1
  Ca  Ca11  1  0.25000000  0.25000000  0.00000000  1
  Ge  Ge12  1  0.36599400  0.05312000  0.75486500  1
  Ge  Ge13  1  0.50000000  0.64779600  0.75000000  1
  Ge  Ge14  1  0.36599400  0.94688000  0.25486500  1
  Ge  Ge15  1  0.63400600  0.05312000  0.74513500  1
  Ge  Ge16  1  0.50000000  0.35220400  0.25000000  1
  Ge  Ge17  1  0.63400600  0.94688000  0.24513500  1
  Ge  Ge18  1  0.86599400  0.55312000  0.75486500  1
  Ge  Ge19  1  0.00000000  0.14779600  0.75000000  1
  Ge  Ge20  1  0.86599400  0.44688000  0.25486500  1
  Ge  Ge21  1  0.13400600  0.55312000  0.74513500  1
  Ge  Ge22  1  0.00000000  0.85220400  0.25000000  1
  Ge  Ge23  1  0.13400600  0.44688000  0.24513500  1
  O  O24  1  0.26816150  0.10018050  0.60014000  1
  O  O25  1  0.37483350  0.09596950  0.91344800  1
  O  O26  1  0.37712700  0.79519800  0.75192600  1
  O  O27  1  0.26816150  0.89981950  0.10014000  1
  O  O28  1  0.37483350  0.90403050  0.41344800  1
  O  O29  1  0.44665450  0.55618450  0.59456800  1
  O  O30  1  0.50000000  0.16436300  0.75000000  1
  O  O31  1  0.55334550  0.55618450  0.90543200  1
  O  O32  1  0.37712700  0.20480200  0.25192600  1
  O  O33  1  0.62287300  0.79519800  0.74807400  1
  O  O34  1  0.44665450  0.44381550  0.09456800  1
  O  O35  1  0.50000000  0.83563700  0.25000000  1
  O  O36  1  0.55334550  0.44381550  0.40543200  1
  O  O37  1  0.62516650  0.09596950  0.58655200  1
  O  O38  1  0.73183850  0.10018050  0.89986000  1
  O  O39  1  0.62287300  0.20480200  0.24807400  1
  O  O40  1  0.62516650  0.90403050  0.08655200  1
  O  O41  1  0.73183850  0.89981950  0.39986000  1
  O  O42  1  0.76816150  0.60018050  0.60014000  1
  O  O43  1  0.87483350  0.59596950  0.91344800  1
  O  O44  1  0.87712700  0.29519800  0.75192600  1
  O  O45  1  0.76816150  0.39981950  0.10014000  1
  O  O46  1  0.87483350  0.40403050  0.41344800  1
  O  O47  1  0.94665450  0.05618450  0.59456800  1
  O  O48  1  0.00000000  0.66436300  0.75000000  1
  O  O49  1  0.05334550  0.05618450  0.90543200  1
  O  O50  1  0.87712700  0.70480200  0.25192600  1
  O  O51  1  0.12287300  0.29519800  0.74807400  1
  O  O52  1  0.94665450  0.94381550  0.09456800  1
  O  O53  1  0.00000000  0.33563700  0.25000000  1
  O  O54  1  0.05334550  0.94381550  0.40543200  1
  O  O55  1  0.12516650  0.59596950  0.58655200  1
  O  O56  1  0.23183850  0.60018050  0.89986000  1
  O  O57  1  0.12287300  0.70480200  0.24807400  1
  O  O58  1  0.12516650  0.40403050  0.08655200  1
  O  O59  1  0.23183850  0.39981950  0.39986000  1
