# generated using pymatgen
data_Na3VO4
_symmetry_space_group_name_H-M   'P 1'
_cell_length_a   9.22198700
_cell_length_b   9.77206800
_cell_length_c   10.70487000
_cell_angle_alpha   90.00000000
_cell_angle_beta   90.00000000
_cell_angle_gamma   90.00000000
_symmetry_Int_Tables_number   1
_chemical_formula_structural   Na3VO4
_chemical_formula_sum   'Na24 V8 O32'
_cell_volume   964.70023353
_cell_formula_units_Z   8
loop_
 _symmetry_equiv_pos_site_id
 _symmetry_equiv_pos_as_xyz
  1  'x, y, z'
loop_
 _atom_site_type_symbol
 _atom_site_label
 _atom_site_symmetry_multiplicity
 _atom_site_fract_x
 _atom_site_fract_y
 _atom_site_fract_z
 _atom_site_occupancy
  Na  Na0  1  0.03857800  0.62268900  0.40167600  1
  Na  Na1  1  0.03857800  0.12268900  0.09832400  1
  Na  Na2  1  0.11514500  0.54039100  0.85985900  1
  Na  Na3  1  0.11514500  0.04039100  0.64014100  1
  Na  Na4  1  0.22196500  0.23352500  0.37600200  1
  Na  Na5  1  0.22196500  0.73352500  0.12399800  1
  Na  Na6  1  0.27803500  0.23352500  0.87600200  1
  Na  Na7  1  0.27803500  0.73352500  0.62399800  1
  Na  Na8  1  0.38485500  0.04039100  0.14014100  1
  Na  Na9  1  0.38485500  0.54039100  0.35985900  1
  Na  Na10  1  0.46142200  0.62268900  0.90167600  1
  Na  Na11  1  0.46142200  0.12268900  0.59832400  1
  Na  Na12  1  0.53857800  0.87731100  0.40167600  1
  Na  Na13  1  0.53857800  0.37731100  0.09832400  1
  Na  Na14  1  0.61514500  0.45960900  0.64014100  1
  Na  Na15  1  0.61514500  0.95960900  0.85985900  1
  Na  Na16  1  0.72196500  0.26647500  0.37600200  1
  Na  Na17  1  0.72196500  0.76647500  0.12399800  1
  Na  Na18  1  0.77803500  0.26647500  0.87600200  1
  Na  Na19  1  0.77803500  0.76647500  0.62399800  1
  Na  Na20  1  0.88485500  0.95960900  0.35985900  1
  Na  Na21  1  0.88485500  0.45960900  0.14014100  1
  Na  Na22  1  0.96142200  0.87731100  0.90167600  1
  Na  Na23  1  0.96142200  0.37731100  0.59832400  1
  V  V24  1  0.20870800  0.40368500  0.11971200  1
  V  V25  1  0.20870800  0.90368500  0.38028800  1
  V  V26  1  0.29129200  0.90368500  0.88028800  1
  V  V27  1  0.29129200  0.40368500  0.61971200  1
  V  V28  1  0.70870800  0.09631500  0.11971200  1
  V  V29  1  0.70870800  0.59631500  0.38028800  1
  V  V30  1  0.79129200  0.59631500  0.88028800  1
  V  V31  1  0.79129200  0.09631500  0.61971200  1
  O  O32  1  0.08633200  0.34866200  0.00515000  1
  O  O33  1  0.08633200  0.84866200  0.49485000  1
  O  O34  1  0.11946900  0.97540800  0.25310700  1
  O  O35  1  0.11946900  0.47540800  0.24689300  1
  O  O36  1  0.17695800  0.02465600  0.94590500  1
  O  O37  1  0.17695800  0.52465600  0.55409500  1
  O  O38  1  0.18873400  0.76457400  0.82901700  1
  O  O39  1  0.18873400  0.26457400  0.67098300  1
  O  O40  1  0.31126600  0.26457400  0.17098300  1
  O  O41  1  0.31126600  0.76457400  0.32901700  1
  O  O42  1  0.32304200  0.02465600  0.44590500  1
  O  O43  1  0.32304200  0.52465600  0.05409500  1
  O  O44  1  0.38053100  0.97540800  0.75310700  1
  O  O45  1  0.38053100  0.47540800  0.74689300  1
  O  O46  1  0.41366800  0.34866200  0.50515000  1
  O  O47  1  0.41366800  0.84866200  0.99485000  1
  O  O48  1  0.58633200  0.65133800  0.49485000  1
  O  O49  1  0.58633200  0.15133800  0.00515000  1
  O  O50  1  0.61946900  0.52459200  0.25310700  1
  O  O51  1  0.61946900  0.02459200  0.24689300  1
  O  O52  1  0.67695800  0.47534400  0.94590500  1
  O  O53  1  0.67695800  0.97534400  0.55409500  1
  O  O54  1  0.68873400  0.23542600  0.67098300  1
  O  O55  1  0.68873400  0.73542600  0.82901700  1
  O  O56  1  0.81126600  0.73542600  0.32901700  1
  O  O57  1  0.81126600  0.23542600  0.17098300  1
  O  O58  1  0.82304200  0.97534400  0.05409500  1
  O  O59  1  0.82304200  0.47534400  0.44590500  1
  O  O60  1  0.88053100  0.52459200  0.75310700  1
  O  O61  1  0.88053100  0.02459200  0.74689300  1
  O  O62  1  0.91366800  0.65133800  0.99485000  1
  O  O63  1  0.91366800  0.15133800  0.50515000  1
