# generated using pymatgen
data_Li2Mn3CoO8
_symmetry_space_group_name_H-M   'P 1'
_cell_length_a   5.86147981
_cell_length_b   5.86147981
_cell_length_c   14.41864017
_cell_angle_alpha   90.00000000
_cell_angle_beta   90.00000000
_cell_angle_gamma   120.00000000
_symmetry_Int_Tables_number   1
_chemical_formula_structural   Li2Mn3CoO8
_chemical_formula_sum   'Li6 Mn9 Co3 O24'
_cell_volume   429.01204205
_cell_formula_units_Z   3
loop_
 _symmetry_equiv_pos_site_id
 _symmetry_equiv_pos_as_xyz
  1  'x, y, z'
loop_
 _atom_site_type_symbol
 _atom_site_label
 _atom_site_symmetry_multiplicity
 _atom_site_fract_x
 _atom_site_fract_y
 _atom_site_fract_z
 _atom_site_occupancy
  Li  Li0  1  0.00000000  0.00000000  0.11676400  1
  Li  Li1  1  0.33333333  0.66666667  0.16586500  1
  Li  Li2  1  0.66666667  0.33333333  0.45009733  1
  Li  Li3  1  0.00000000  0.00000000  0.49919833  1
  Li  Li4  1  0.33333333  0.66666667  0.78343067  1
  Li  Li5  1  0.66666667  0.33333333  0.83253167  1
  Mn  Mn6  1  0.49771600  0.50228400  0.00117400  1
  Mn  Mn7  1  0.00456800  0.50228400  0.00117400  1
  Mn  Mn8  1  0.49771600  0.99543200  0.00117400  1
  Mn  Mn9  1  0.16438267  0.83561733  0.33450733  1
  Mn  Mn10  1  0.67123467  0.83561733  0.33450733  1
  Mn  Mn11  1  0.16438267  0.32876533  0.33450733  1
  Mn  Mn12  1  0.83104933  0.16895067  0.66784067  1
  Mn  Mn13  1  0.33790133  0.16895067  0.66784067  1
  Mn  Mn14  1  0.83104933  0.66209867  0.66784067  1
  Co  Co15  1  0.66666667  0.33333333  0.21659033  1
  Co  Co16  1  0.33333333  0.66666667  0.54992367  1
  Co  Co17  1  0.00000000  0.00000000  0.88325700  1
  O  O18  1  0.00000000  0.00000000  0.26214300  1
  O  O19  1  0.18072567  0.36145133  0.07101933  1
  O  O20  1  0.63854867  0.81927433  0.07101933  1
  O  O21  1  0.18072567  0.81927433  0.07101933  1
  O  O22  1  0.48571833  0.51428167  0.26044967  1
  O  O23  1  0.02856333  0.51428167  0.26044967  1
  O  O24  1  0.48571833  0.97143667  0.26044967  1
  O  O25  1  0.66666667  0.33333333  0.07404133  1
  O  O26  1  0.66666667  0.33333333  0.59547633  1
  O  O27  1  0.84739233  0.69478467  0.40435267  1
  O  O28  1  0.30521533  0.15260767  0.40435267  1
  O  O29  1  0.84739233  0.15260767  0.40435267  1
  O  O30  1  0.15238500  0.84761500  0.59378300  1
  O  O31  1  0.69523000  0.84761500  0.59378300  1
  O  O32  1  0.15238500  0.30477000  0.59378300  1
  O  O33  1  0.33333333  0.66666667  0.40737467  1
  O  O34  1  0.33333333  0.66666667  0.92880967  1
  O  O35  1  0.51405900  0.02811800  0.73768600  1
  O  O36  1  0.97188200  0.48594100  0.73768600  1
  O  O37  1  0.51405900  0.48594100  0.73768600  1
  O  O38  1  0.81905167  0.18094833  0.92711633  1
  O  O39  1  0.36189667  0.18094833  0.92711633  1
  O  O40  1  0.81905167  0.63810333  0.92711633  1
  O  O41  1  0.00000000  0.00000000  0.74070800  1
