# generated using pymatgen
data_Li6TeO6
_symmetry_space_group_name_H-M   'P 1'
_cell_length_a   8.02132590
_cell_length_b   8.02132590
_cell_length_c   7.05019806
_cell_angle_alpha   90.00000000
_cell_angle_beta   90.00000000
_cell_angle_gamma   120.00000000
_symmetry_Int_Tables_number   1
_chemical_formula_structural   Li6TeO6
_chemical_formula_sum   'Li18 Te3 O18'
_cell_volume   392.84775206
_cell_formula_units_Z   3
loop_
 _symmetry_equiv_pos_site_id
 _symmetry_equiv_pos_as_xyz
  1  'x, y, z'
loop_
 _atom_site_type_symbol
 _atom_site_label
 _atom_site_symmetry_multiplicity
 _atom_site_fract_x
 _atom_site_fract_y
 _atom_site_fract_z
 _atom_site_occupancy
  Li  Li0  1  0.03082800  0.76283800  0.67456400  1
  Li  Li1  1  0.26799000  0.03082800  0.32543600  1
  Li  Li2  1  0.76283800  0.73201000  0.32543600  1
  Li  Li3  1  0.96917200  0.23716200  0.32543600  1
  Li  Li4  1  0.73201000  0.96917200  0.67456400  1
  Li  Li5  1  0.23716200  0.26799000  0.67456400  1
  Li  Li6  1  0.69749467  0.09617133  0.00789733  1
  Li  Li7  1  0.93465667  0.36416133  0.65876933  1
  Li  Li8  1  0.42950467  0.06534333  0.65876933  1
  Li  Li9  1  0.63583867  0.57049533  0.65876933  1
  Li  Li10  1  0.39867667  0.30250533  0.00789733  1
  Li  Li11  1  0.90382867  0.60132333  0.00789733  1
  Li  Li12  1  0.36416133  0.42950467  0.34123067  1
  Li  Li13  1  0.60132333  0.69749467  0.99210267  1
  Li  Li14  1  0.09617133  0.39867667  0.99210267  1
  Li  Li15  1  0.30250533  0.90382867  0.99210267  1
  Li  Li16  1  0.06534333  0.63583867  0.34123067  1
  Li  Li17  1  0.57049533  0.93465667  0.34123067  1
  Te  Te18  1  0.00000000  0.00000000  0.00000000  1
  Te  Te19  1  0.66666667  0.33333333  0.33333333  1
  Te  Te20  1  0.33333333  0.66666667  0.66666667  1
  O  O21  1  0.27040733  0.82762467  0.50673567  1
  O  O22  1  0.44278267  0.27040733  0.49326433  1
  O  O23  1  0.82762467  0.55721733  0.49326433  1
  O  O24  1  0.72959267  0.17237533  0.49326433  1
  O  O25  1  0.55721733  0.72959267  0.50673567  1
  O  O26  1  0.17237533  0.44278267  0.50673567  1
  O  O27  1  0.93707400  0.16095800  0.84006900  1
  O  O28  1  0.10944933  0.60374067  0.82659767  1
  O  O29  1  0.49429133  0.89055067  0.82659767  1
  O  O30  1  0.39625933  0.50570867  0.82659767  1
  O  O31  1  0.22388400  0.06292600  0.84006900  1
  O  O32  1  0.83904200  0.77611600  0.84006900  1
  O  O33  1  0.60374067  0.49429133  0.17340233  1
  O  O34  1  0.77611600  0.93707400  0.15993100  1
  O  O35  1  0.16095800  0.22388400  0.15993100  1
  O  O36  1  0.06292600  0.83904200  0.15993100  1
  O  O37  1  0.89055067  0.39625933  0.17340233  1
  O  O38  1  0.50570867  0.10944933  0.17340233  1
