# generated using pymatgen
data_Li2CoNi3O8
_symmetry_space_group_name_H-M   'P 1'
_cell_length_a   8.09635601
_cell_length_b   8.14900039
_cell_length_c   8.20923445
_cell_angle_alpha   90.00000000
_cell_angle_beta   90.00000000
_cell_angle_gamma   90.00000000
_symmetry_Int_Tables_number   1
_chemical_formula_structural   Li2CoNi3O8
_chemical_formula_sum   'Li8 Co4 Ni12 O32'
_cell_volume   541.62237139
_cell_formula_units_Z   4
loop_
 _symmetry_equiv_pos_site_id
 _symmetry_equiv_pos_as_xyz
  1  'x, y, z'
loop_
 _atom_site_type_symbol
 _atom_site_label
 _atom_site_symmetry_multiplicity
 _atom_site_fract_x
 _atom_site_fract_y
 _atom_site_fract_z
 _atom_site_occupancy
  Li  Li0  1  0.50082750  0.49855300  0.99890450  1
  Li  Li1  1  0.74910650  0.75278400  0.24965450  1
  Li  Li2  1  0.25089350  0.25278400  0.25034550  1
  Li  Li3  1  0.49917250  0.99855300  0.50109550  1
  Li  Li4  1  0.99917250  0.50144700  0.49890450  1
  Li  Li5  1  0.75089350  0.24721600  0.74965450  1
  Li  Li6  1  0.24910650  0.74721600  0.75034550  1
  Li  Li7  1  0.00082750  0.00144700  0.00109550  1
  Co  Co8  1  0.37473750  0.87510200  0.12335050  1
  Co  Co9  1  0.62526250  0.37510200  0.37664950  1
  Co  Co10  1  0.12526250  0.12489800  0.62335050  1
  Co  Co11  1  0.87473750  0.62489800  0.87664950  1
  Ni  Ni12  1  0.62364350  0.12502800  0.12575550  1
  Ni  Ni13  1  0.87477550  0.37793800  0.12530250  1
  Ni  Ni14  1  0.12495750  0.62761200  0.12304550  1
  Ni  Ni15  1  0.87504250  0.12761200  0.37695450  1
  Ni  Ni16  1  0.12522450  0.87793800  0.37469750  1
  Ni  Ni17  1  0.37635650  0.62502800  0.37424450  1
  Ni  Ni18  1  0.87635650  0.87497200  0.62575550  1
  Ni  Ni19  1  0.62522450  0.62206200  0.62530250  1
  Ni  Ni20  1  0.37504250  0.37238800  0.62304550  1
  Ni  Ni21  1  0.62495750  0.87238800  0.87695450  1
  Ni  Ni22  1  0.37477550  0.12206200  0.87469750  1
  Ni  Ni23  1  0.12364350  0.37497200  0.87424450  1
  O  O24  1  0.60945550  0.88759900  0.10868850  1
  O  O25  1  0.38957850  0.10899800  0.11564550  1
  O  O26  1  0.10962850  0.39258600  0.10984850  1
  O  O27  1  0.64061150  0.36325400  0.14056250  1
  O  O28  1  0.89061950  0.61641400  0.10973050  1
  O  O29  1  0.85960350  0.13803700  0.14233550  1
  O  O30  1  0.14089650  0.85920700  0.13260650  1
  O  O31  1  0.36016350  0.63973500  0.13605250  1
  O  O32  1  0.63983650  0.13973500  0.36394750  1
  O  O33  1  0.85910350  0.35920700  0.36739350  1
  O  O34  1  0.14039650  0.63803700  0.35766450  1
  O  O35  1  0.10938050  0.11641400  0.39026950  1
  O  O36  1  0.35938850  0.86325400  0.35943750  1
  O  O37  1  0.89037150  0.89258600  0.39015150  1
  O  O38  1  0.61042150  0.60899800  0.38435450  1
  O  O39  1  0.39054450  0.38759900  0.39131150  1
  O  O40  1  0.89054450  0.11240100  0.60868850  1
  O  O41  1  0.11042150  0.89100200  0.61564550  1
  O  O42  1  0.39037150  0.60741400  0.60984850  1
  O  O43  1  0.85938850  0.63674600  0.64056250  1
  O  O44  1  0.60938050  0.38358600  0.60973050  1
  O  O45  1  0.64039650  0.86196300  0.64233550  1
  O  O46  1  0.35910350  0.14079300  0.63260650  1
  O  O47  1  0.13983650  0.36026500  0.63605250  1
  O  O48  1  0.86016350  0.86026500  0.86394750  1
  O  O49  1  0.64089650  0.64079300  0.86739350  1
  O  O50  1  0.35960350  0.36196300  0.85766450  1
  O  O51  1  0.39061950  0.88358600  0.89026950  1
  O  O52  1  0.14061150  0.13674600  0.85943750  1
  O  O53  1  0.60962850  0.10741400  0.89015150  1
  O  O54  1  0.88957850  0.39100200  0.88435450  1
  O  O55  1  0.10945550  0.61240100  0.89131150  1
