# generated using pymatgen
data_Na7Mn11O24
_symmetry_space_group_name_H-M   'P 1'
_cell_length_a   6.06182700
_cell_length_b   8.75783847
_cell_length_c   10.52027694
_cell_angle_alpha   113.49211126
_cell_angle_beta   105.14942324
_cell_angle_gamma   90.01870423
_symmetry_Int_Tables_number   1
_chemical_formula_structural   Na7Mn11O24
_chemical_formula_sum   'Na7 Mn11 O24'
_cell_volume   490.95627910
_cell_formula_units_Z   1
loop_
 _symmetry_equiv_pos_site_id
 _symmetry_equiv_pos_as_xyz
  1  'x, y, z'
loop_
 _atom_site_type_symbol
 _atom_site_label
 _atom_site_symmetry_multiplicity
 _atom_site_fract_x
 _atom_site_fract_y
 _atom_site_fract_z
 _atom_site_occupancy
  Na  Na0  1  0.50000000  0.00000000  0.50000000  1
  Na  Na1  1  0.92066000  0.03762100  0.34564100  1
  Na  Na2  1  0.07934000  0.96237900  0.65435900  1
  Na  Na3  1  0.41912600  0.28161300  0.33752300  1
  Na  Na4  1  0.24481200  0.35307100  0.98141400  1
  Na  Na5  1  0.75518800  0.64692900  0.01858600  1
  Na  Na6  1  0.58087400  0.71838700  0.66247700  1
  Mn  Mn7  1  0.33146600  0.81314600  0.15047100  1
  Mn  Mn8  1  0.50000000  0.00000000  0.00000000  1
  Mn  Mn9  1  0.00000000  0.00000000  0.00000000  1
  Mn  Mn10  1  0.84374500  0.32623900  0.17257400  1
  Mn  Mn11  1  0.66853400  0.18685400  0.84952900  1
  Mn  Mn12  1  0.00000000  0.50000000  0.50000000  1
  Mn  Mn13  1  0.34342100  0.34833000  0.68410200  1
  Mn  Mn14  1  0.16117400  0.65377700  0.31596000  1
  Mn  Mn15  1  0.83882600  0.34622300  0.68404000  1
  Mn  Mn16  1  0.65657900  0.65167000  0.31589800  1
  Mn  Mn17  1  0.15625500  0.67376100  0.82742600  1
  O  O18  1  0.17222800  0.85697700  0.29156200  1
  O  O19  1  0.62580500  0.85017400  0.28415400  1
  O  O20  1  0.34922300  0.03336800  0.14889600  1
  O  O21  1  0.53256700  0.28521500  0.55602100  1
  O  O22  1  0.14313600  0.90189500  0.84457000  1
  O  O23  1  0.65077700  0.96663200  0.85110400  1
  O  O24  1  0.85686400  0.09810500  0.15543000  1
  O  O25  1  0.03046400  0.26997400  0.55083200  1
  O  O26  1  0.95995900  0.23499800  0.00545900  1
  O  O27  1  0.55349600  0.24081100  0.02446800  1
  O  O28  1  0.37419500  0.14982600  0.71584600  1
  O  O29  1  0.82777200  0.14302300  0.70843800  1
  O  O30  1  0.12990100  0.43340800  0.33146300  1
  O  O31  1  0.71251800  0.43216400  0.33701300  1
  O  O32  1  0.96953600  0.73002600  0.44916800  1
  O  O33  1  0.65828900  0.40682400  0.82671500  1
  O  O34  1  0.84619700  0.55275900  0.18092800  1
  O  O35  1  0.46743300  0.71478500  0.44397900  1
  O  O36  1  0.15380300  0.44724100  0.81907200  1
  O  O37  1  0.34171100  0.59317600  0.17328500  1
  O  O38  1  0.28748200  0.56783600  0.66298700  1
  O  O39  1  0.87009900  0.56659200  0.66853700  1
  O  O40  1  0.04004100  0.76500200  0.99454100  1
  O  O41  1  0.44650400  0.75918900  0.97553200  1
