# generated using pymatgen
data_BH2NCl2
_symmetry_space_group_name_H-M   'P 1'
_cell_length_a   8.28242600
_cell_length_b   10.45749100
_cell_length_c   12.25277000
_cell_angle_alpha   90.00000000
_cell_angle_beta   90.00000000
_cell_angle_gamma   90.00000000
_symmetry_Int_Tables_number   1
_chemical_formula_structural   BH2NCl2
_chemical_formula_sum   'B12 H24 N12 Cl24'
_cell_volume   1061.25401218
_cell_formula_units_Z   12
loop_
 _symmetry_equiv_pos_site_id
 _symmetry_equiv_pos_as_xyz
  1  'x, y, z'
loop_
 _atom_site_type_symbol
 _atom_site_label
 _atom_site_symmetry_multiplicity
 _atom_site_fract_x
 _atom_site_fract_y
 _atom_site_fract_z
 _atom_site_occupancy
  B  B0  1  0.79336200  0.53914100  0.25000000  1
  B  B1  1  0.70663800  0.03914100  0.25000000  1
  B  B2  1  0.20663800  0.46085900  0.75000000  1
  B  B3  1  0.29336200  0.96085900  0.75000000  1
  B  B4  1  0.03314800  0.66649500  0.13759400  1
  B  B5  1  0.46685200  0.16649500  0.36240600  1
  B  B6  1  0.96685200  0.33350500  0.63759400  1
  B  B7  1  0.53314800  0.83350500  0.86240600  1
  B  B8  1  0.96685200  0.33350500  0.86240600  1
  B  B9  1  0.53314800  0.83350500  0.63759400  1
  B  B10  1  0.03314800  0.66649500  0.36240600  1
  B  B11  1  0.46685200  0.16649500  0.13759400  1
  H  H12  1  0.02349000  0.82407700  0.25000000  1
  H  H13  1  0.47651000  0.32407700  0.25000000  1
  H  H14  1  0.97651000  0.17592300  0.75000000  1
  H  H15  1  0.52349000  0.67592300  0.75000000  1
  H  H16  1  0.19873100  0.75270500  0.25000000  1
  H  H17  1  0.30126900  0.25270500  0.25000000  1
  H  H18  1  0.80126900  0.24729500  0.75000000  1
  H  H19  1  0.69873100  0.74729500  0.75000000  1
  H  H20  1  0.77624900  0.68884700  0.13189400  1
  H  H21  1  0.72375100  0.18884700  0.36810600  1
  H  H22  1  0.22375100  0.31115300  0.63189400  1
  H  H23  1  0.27624900  0.81115300  0.86810600  1
  H  H24  1  0.22375100  0.31115300  0.86810600  1
  H  H25  1  0.27624900  0.81115300  0.63189400  1
  H  H26  1  0.77624900  0.68884700  0.36810600  1
  H  H27  1  0.72375100  0.18884700  0.13189400  1
  H  H28  1  0.83637700  0.55440100  0.07837800  1
  H  H29  1  0.66362300  0.05440100  0.42162200  1
  H  H30  1  0.16362300  0.44559900  0.57837800  1
  H  H31  1  0.33637700  0.94559900  0.92162200  1
  H  H32  1  0.16362300  0.44559900  0.92162200  1
  H  H33  1  0.33637700  0.94559900  0.57837800  1
  H  H34  1  0.83637700  0.55440100  0.42162200  1
  H  H35  1  0.66362300  0.05440100  0.07837800  1
  N  N36  1  0.07693300  0.73400600  0.25000000  1
  N  N37  1  0.42306700  0.23400600  0.25000000  1
  N  N38  1  0.92306700  0.26599400  0.75000000  1
  N  N39  1  0.57693300  0.76599400  0.75000000  1
  N  N40  1  0.85398200  0.61316500  0.14534400  1
  N  N41  1  0.64601800  0.11316500  0.35465600  1
  N  N42  1  0.14601800  0.38683500  0.64534400  1
  N  N43  1  0.35398200  0.88683500  0.85465600  1
  N  N44  1  0.14601800  0.38683500  0.85465600  1
  N  N45  1  0.35398200  0.88683500  0.64534400  1
  N  N46  1  0.85398200  0.61316500  0.35465600  1
  N  N47  1  0.64601800  0.11316500  0.14534400  1
  Cl  Cl48  1  0.17807800  0.53774600  0.10684200  1
  Cl  Cl49  1  0.32192200  0.03774600  0.39315800  1
  Cl  Cl50  1  0.82192200  0.46225400  0.60684200  1
  Cl  Cl51  1  0.67807800  0.96225400  0.89315800  1
  Cl  Cl52  1  0.82192200  0.46225400  0.89315800  1
  Cl  Cl53  1  0.67807800  0.96225400  0.60684200  1
  Cl  Cl54  1  0.17807800  0.53774600  0.39315800  1
  Cl  Cl55  1  0.32192200  0.03774600  0.10684200  1
  Cl  Cl56  1  0.03434700  0.78956100  0.02900800  1
  Cl  Cl57  1  0.46565300  0.28956100  0.47099200  1
  Cl  Cl58  1  0.96565300  0.21043900  0.52900800  1
  Cl  Cl59  1  0.53434700  0.71043900  0.97099200  1
  Cl  Cl60  1  0.96565300  0.21043900  0.97099200  1
  Cl  Cl61  1  0.53434700  0.71043900  0.52900800  1
  Cl  Cl62  1  0.03434700  0.78956100  0.47099200  1
  Cl  Cl63  1  0.46565300  0.28956100  0.02900800  1
  Cl  Cl64  1  0.86811300  0.37277000  0.25000000  1
  Cl  Cl65  1  0.63188700  0.87277000  0.25000000  1
  Cl  Cl66  1  0.13188700  0.62723000  0.75000000  1
  Cl  Cl67  1  0.36811300  0.12723000  0.75000000  1
  Cl  Cl68  1  0.56859100  0.54232900  0.25000000  1
  Cl  Cl69  1  0.93140900  0.04232900  0.25000000  1
  Cl  Cl70  1  0.43140900  0.45767100  0.75000000  1
  Cl  Cl71  1  0.06859100  0.95767100  0.75000000  1
