# generated using pymatgen
data_Li6MnFe5(BO3)6
_symmetry_space_group_name_H-M   'P 1'
_cell_length_a   16.47581600
_cell_length_b   6.27663800
_cell_length_c   8.24492795
_cell_angle_alpha   90.00000000
_cell_angle_beta   119.89925050
_cell_angle_gamma   90.00000000
_symmetry_Int_Tables_number   1
_chemical_formula_structural   Li6MnFe5(BO3)6
_chemical_formula_sum   'Li12 Mn2 Fe10 B12 O36'
_cell_volume   739.14819529
_cell_formula_units_Z   2
loop_
 _symmetry_equiv_pos_site_id
 _symmetry_equiv_pos_as_xyz
  1  'x, y, z'
loop_
 _atom_site_type_symbol
 _atom_site_label
 _atom_site_symmetry_multiplicity
 _atom_site_fract_x
 _atom_site_fract_y
 _atom_site_fract_z
 _atom_site_occupancy
  Li  Li0  1  0.00801000  0.25016200  0.71432900  1
  Li  Li1  1  0.00801000  0.74983800  0.71432900  1
  Li  Li2  1  0.34903800  0.75040600  0.98368600  1
  Li  Li3  1  0.34903800  0.24959400  0.98368600  1
  Li  Li4  1  0.14233150  0.24909850  0.30194800  1
  Li  Li5  1  0.14233150  0.75090150  0.30194800  1
  Li  Li6  1  0.50801000  0.75016200  0.71432900  1
  Li  Li7  1  0.50801000  0.24983800  0.71432900  1
  Li  Li8  1  0.84903800  0.25040600  0.98368600  1
  Li  Li9  1  0.84903800  0.74959400  0.98368600  1
  Li  Li10  1  0.64233150  0.74909850  0.30194800  1
  Li  Li11  1  0.64233150  0.25090150  0.30194800  1
  Mn  Mn12  1  0.18645200  0.50000000  0.01297400  1
  Mn  Mn13  1  0.68645200  0.00000000  0.01297400  1
  Fe  Fe14  1  0.31991100  0.50000000  0.63210300  1
  Fe  Fe15  1  0.32025800  0.00000000  0.63249400  1
  Fe  Fe16  1  0.49641000  0.00000000  0.35924500  1
  Fe  Fe17  1  0.49582300  0.50000000  0.36036600  1
  Fe  Fe18  1  0.18390700  0.00000000  0.00771900  1
  Fe  Fe19  1  0.81991100  0.00000000  0.63210300  1
  Fe  Fe20  1  0.82025800  0.50000000  0.63249400  1
  Fe  Fe21  1  0.99641000  0.50000000  0.35924500  1
  Fe  Fe22  1  0.99582300  0.00000000  0.36036600  1
  Fe  Fe23  1  0.68390700  0.50000000  0.00771900  1
  B  B24  1  0.16670550  0.75176550  0.66569800  1
  B  B25  1  0.16670550  0.24823450  0.66569800  1
  B  B26  1  0.33387850  0.75149250  0.33501500  1
  B  B27  1  0.33387850  0.24850750  0.33501500  1
  B  B28  1  0.49989000  0.50000000  0.99997700  1
  B  B29  1  0.49892900  0.00000000  0.99791600  1
  B  B30  1  0.66670550  0.25176550  0.66569800  1
  B  B31  1  0.66670550  0.74823450  0.66569800  1
  B  B32  1  0.83387850  0.25149250  0.33501500  1
  B  B33  1  0.83387850  0.74850750  0.33501500  1
  B  B34  1  0.99989000  0.00000000  0.99997700  1
  B  B35  1  0.99892900  0.50000000  0.99791600  1
  O  O36  1  0.03979800  0.50000000  0.88624000  1
  O  O37  1  0.04264600  0.00000000  0.89097000  1
  O  O38  1  0.20943250  0.24631650  0.85894900  1
  O  O39  1  0.20943250  0.75368350  0.85894900  1
  O  O40  1  0.40281200  0.50000000  0.91499600  1
  O  O41  1  0.40187400  0.00000000  0.91600200  1
  O  O42  1  0.06962300  0.74996200  0.55747200  1
  O  O43  1  0.06962300  0.25003800  0.55747200  1
  O  O44  1  0.22087800  0.24985100  0.57977000  1
  O  O45  1  0.22087800  0.75014900  0.57977000  1
  O  O46  1  0.37340300  0.74943300  0.52840100  1
  O  O47  1  0.37340300  0.25056700  0.52840100  1
  O  O48  1  0.05456500  0.50000000  0.19223500  1
  O  O49  1  0.05429500  0.00000000  0.19383400  1
  O  O50  1  0.23701250  0.75349350  0.22135900  1
  O  O51  1  0.23701250  0.24650650  0.22135900  1
  O  O52  1  0.39090400  0.75041000  0.25483800  1
  O  O53  1  0.39090400  0.24959000  0.25483800  1
  O  O54  1  0.53979800  0.00000000  0.88624000  1
  O  O55  1  0.54264600  0.50000000  0.89097000  1
  O  O56  1  0.70943250  0.74631650  0.85894900  1
  O  O57  1  0.70943250  0.25368350  0.85894900  1
  O  O58  1  0.90281200  0.00000000  0.91499600  1
  O  O59  1  0.90187400  0.50000000  0.91600200  1
  O  O60  1  0.56962300  0.24996200  0.55747200  1
  O  O61  1  0.56962300  0.75003800  0.55747200  1
  O  O62  1  0.72087800  0.74985100  0.57977000  1
  O  O63  1  0.72087800  0.25014900  0.57977000  1
  O  O64  1  0.87340300  0.24943300  0.52840100  1
  O  O65  1  0.87340300  0.75056700  0.52840100  1
  O  O66  1  0.55456500  0.00000000  0.19223500  1
  O  O67  1  0.55429500  0.50000000  0.19383400  1
  O  O68  1  0.73701250  0.25349350  0.22135900  1
  O  O69  1  0.73701250  0.74650650  0.22135900  1
  O  O70  1  0.89090400  0.25041000  0.25483800  1
  O  O71  1  0.89090400  0.74959000  0.25483800  1
