# generated using pymatgen
data_Na3BSbAsO7
_symmetry_space_group_name_H-M   'P 1'
_cell_length_a   5.50184200
_cell_length_b   7.10855500
_cell_length_c   9.55391522
_cell_angle_alpha   90.00000000
_cell_angle_beta   93.17999911
_cell_angle_gamma   90.00000000
_symmetry_Int_Tables_number   1
_chemical_formula_structural   Na3BSbAsO7
_chemical_formula_sum   'Na6 B2 Sb2 As2 O14'
_cell_volume   373.07966554
_cell_formula_units_Z   2
loop_
 _symmetry_equiv_pos_site_id
 _symmetry_equiv_pos_as_xyz
  1  'x, y, z'
loop_
 _atom_site_type_symbol
 _atom_site_label
 _atom_site_symmetry_multiplicity
 _atom_site_fract_x
 _atom_site_fract_y
 _atom_site_fract_z
 _atom_site_occupancy
  Na  Na0  1  0.76554400  0.75000000  0.06727900  1
  Na  Na1  1  0.24831900  0.99243500  0.24108500  1
  Na  Na2  1  0.24831900  0.50756500  0.24108500  1
  Na  Na3  1  0.75168100  0.49243500  0.75891500  1
  Na  Na4  1  0.75168100  0.00756500  0.75891500  1
  Na  Na5  1  0.23445600  0.25000000  0.93272100  1
  B  B6  1  0.73192100  0.25000000  0.06274600  1
  B  B7  1  0.26807900  0.75000000  0.93725400  1
  Sb  Sb8  1  0.77503700  0.25000000  0.33533800  1
  Sb  Sb9  1  0.22496300  0.75000000  0.66466200  1
  As  As10  1  0.71661100  0.75000000  0.40174400  1
  As  As11  1  0.28338900  0.25000000  0.59825600  1
  O  O12  1  0.27173300  0.75000000  0.07647500  1
  O  O13  1  0.95464900  0.25000000  0.14969600  1
  O  O14  1  0.52575100  0.25000000  0.14497300  1
  O  O15  1  0.82302300  0.93683500  0.30369500  1
  O  O16  1  0.82302300  0.56316500  0.30369500  1
  O  O17  1  0.40872200  0.75000000  0.39510800  1
  O  O18  1  0.17544800  0.25000000  0.42364100  1
  O  O19  1  0.82455200  0.75000000  0.57635900  1
  O  O20  1  0.59127800  0.25000000  0.60489200  1
  O  O21  1  0.17697700  0.43683500  0.69630500  1
  O  O22  1  0.17697700  0.06316500  0.69630500  1
  O  O23  1  0.47424900  0.75000000  0.85502700  1
  O  O24  1  0.04535100  0.75000000  0.85030400  1
  O  O25  1  0.72826700  0.25000000  0.92352500  1
