# generated using pymatgen
data_Na5Bi2P(CO4)4
_symmetry_space_group_name_H-M   'P 1'
_cell_length_a   14.57629200
_cell_length_b   14.93752200
_cell_length_c   10.25688866
_cell_angle_alpha   90.00000000
_cell_angle_beta   134.48145486
_cell_angle_gamma   90.00000000
_symmetry_Int_Tables_number   1
_chemical_formula_structural   Na5Bi2P(CO4)4
_chemical_formula_sum   'Na20 Bi8 P4 C16 O64'
_cell_volume   1593.38749883
_cell_formula_units_Z   4
loop_
 _symmetry_equiv_pos_site_id
 _symmetry_equiv_pos_as_xyz
  1  'x, y, z'
loop_
 _atom_site_type_symbol
 _atom_site_label
 _atom_site_symmetry_multiplicity
 _atom_site_fract_x
 _atom_site_fract_y
 _atom_site_fract_z
 _atom_site_occupancy
  Na  Na0  1  0.80288600  0.12598500  0.36473600  1
  Na  Na1  1  0.30269700  0.37383300  0.24108000  1
  Na  Na2  1  0.30288600  0.37401500  0.86473600  1
  Na  Na3  1  0.50000000  0.43394100  0.75000000  1
  Na  Na4  1  0.80269700  0.12616700  0.74108000  1
  Na  Na5  1  0.00000000  0.06605900  0.25000000  1
  Na  Na6  1  0.69730300  0.37383300  0.25892000  1
  Na  Na7  1  0.19711400  0.12598500  0.13526400  1
  Na  Na8  1  0.19730300  0.12616700  0.75892000  1
  Na  Na9  1  0.69711400  0.37401500  0.63526400  1
  Na  Na10  1  0.30288600  0.62598500  0.36473600  1
  Na  Na11  1  0.80269700  0.87383300  0.24108000  1
  Na  Na12  1  0.80288600  0.87401500  0.86473600  1
  Na  Na13  1  0.00000000  0.93394100  0.75000000  1
  Na  Na14  1  0.30269700  0.62616700  0.74108000  1
  Na  Na15  1  0.50000000  0.56605900  0.25000000  1
  Na  Na16  1  0.19730300  0.87383300  0.25892000  1
  Na  Na17  1  0.69711400  0.62598500  0.13526400  1
  Na  Na18  1  0.69730300  0.62616700  0.75892000  1
  Na  Na19  1  0.19711400  0.87401500  0.63526400  1
  Bi  Bi20  1  0.25000000  0.25000000  0.50000000  1
  Bi  Bi21  1  0.50000000  0.00000000  0.00000000  1
  Bi  Bi22  1  0.50000000  0.00000000  0.50000000  1
  Bi  Bi23  1  0.75000000  0.25000000  0.00000000  1
  Bi  Bi24  1  0.75000000  0.75000000  0.50000000  1
  Bi  Bi25  1  0.00000000  0.50000000  0.00000000  1
  Bi  Bi26  1  0.00000000  0.50000000  0.50000000  1
  Bi  Bi27  1  0.25000000  0.75000000  0.00000000  1
  P  P28  1  0.00000000  0.12387200  0.75000000  1
  P  P29  1  0.50000000  0.37612800  0.25000000  1
  P  P30  1  0.50000000  0.62387200  0.75000000  1
  P  P31  1  0.00000000  0.87612800  0.25000000  1
  C  C32  1  0.49873350  0.22141950  0.94052900  1
  C  C33  1  0.69845450  0.03129550  0.94791500  1
  C  C34  1  0.50126650  0.22141950  0.55947100  1
  C  C35  1  0.30154550  0.03129550  0.55208500  1
  C  C36  1  0.19845450  0.46870450  0.44791500  1
  C  C37  1  0.99873350  0.27858050  0.44052900  1
  C  C38  1  0.00126650  0.27858050  0.05947100  1
  C  C39  1  0.80154550  0.46870450  0.05208500  1
  C  C40  1  0.99873350  0.72141950  0.94052900  1
  C  C41  1  0.19845450  0.53129550  0.94791500  1
  C  C42  1  0.00126650  0.72141950  0.55947100  1
  C  C43  1  0.80154550  0.53129550  0.55208500  1
  C  C44  1  0.69845450  0.96870450  0.44791500  1
  C  C45  1  0.49873350  0.77858050  0.44052900  1
  C  C46  1  0.50126650  0.77858050  0.05947100  1
  C  C47  1  0.30154550  0.96870450  0.05208500  1
  O  O48  1  0.26581400  0.40443100  0.46207300  1
  O  O49  1  0.62397300  0.22724600  0.06554300  1
  O  O50  1  0.69223150  0.02550450  0.06858000  1
  O  O51  1  0.05922800  0.34620700  0.06488100  1
  O  O52  1  0.76581400  0.09556900  0.96207300  1
  O  O53  1  0.12468350  0.18056050  0.87502800  1
  O  O54  1  0.99942450  0.06162950  0.87406400  1
  O  O55  1  0.43086050  0.28454250  0.81727000  1
  O  O56  1  0.14053800  0.47322500  0.81774800  1
  O  O57  1  0.85946200  0.47322500  0.68225200  1
  O  O58  1  0.56913950  0.28454250  0.68273000  1
  O  O59  1  0.00057550  0.06162950  0.62593600  1
  O  O60  1  0.87531650  0.18056050  0.62497200  1
  O  O61  1  0.19223150  0.47449550  0.56858000  1
  O  O62  1  0.12397300  0.27275400  0.56554300  1
  O  O63  1  0.55922800  0.15379300  0.56488100  1
  O  O64  1  0.94077200  0.34620700  0.43511900  1
  O  O65  1  0.30776850  0.02550450  0.43142000  1
  O  O66  1  0.37602700  0.22724600  0.43445700  1
  O  O67  1  0.62468350  0.31943950  0.37502800  1
  O  O68  1  0.49942450  0.43837050  0.37406400  1
  O  O69  1  0.93086050  0.21545750  0.31727000  1
  O  O70  1  0.64053800  0.02677500  0.31774800  1
  O  O71  1  0.06913950  0.21545750  0.18273000  1
  O  O72  1  0.35946200  0.02677500  0.18225200  1
  O  O73  1  0.50057550  0.43837050  0.12593600  1
  O  O74  1  0.37531650  0.31943950  0.12497200  1
  O  O75  1  0.73418600  0.40443100  0.03792700  1
  O  O76  1  0.44077200  0.15379300  0.93511900  1
  O  O77  1  0.80776850  0.47449550  0.93142000  1
  O  O78  1  0.87602700  0.27275400  0.93445700  1
  O  O79  1  0.23418600  0.09556900  0.53792700  1
  O  O80  1  0.76581400  0.90443100  0.46207300  1
  O  O81  1  0.12397300  0.72724600  0.06554300  1
  O  O82  1  0.19223150  0.52550450  0.06858000  1
  O  O83  1  0.55922800  0.84620700  0.06488100  1
  O  O84  1  0.26581400  0.59556900  0.96207300  1
  O  O85  1  0.62468350  0.68056050  0.87502800  1
  O  O86  1  0.49942450  0.56162950  0.87406400  1
  O  O87  1  0.93086050  0.78454250  0.81727000  1
  O  O88  1  0.64053800  0.97322500  0.81774800  1
  O  O89  1  0.35946200  0.97322500  0.68225200  1
  O  O90  1  0.06913950  0.78454250  0.68273000  1
  O  O91  1  0.50057550  0.56162950  0.62593600  1
  O  O92  1  0.37531650  0.68056050  0.62497200  1
  O  O93  1  0.69223150  0.97449550  0.56858000  1
  O  O94  1  0.62397300  0.77275400  0.56554300  1
  O  O95  1  0.05922800  0.65379300  0.56488100  1
  O  O96  1  0.44077200  0.84620700  0.43511900  1
  O  O97  1  0.80776850  0.52550450  0.43142000  1
  O  O98  1  0.87602700  0.72724600  0.43445700  1
  O  O99  1  0.12468350  0.81943950  0.37502800  1
  O  O100  1  0.99942450  0.93837050  0.37406400  1
  O  O101  1  0.43086050  0.71545750  0.31727000  1
  O  O102  1  0.14053800  0.52677500  0.31774800  1
  O  O103  1  0.56913950  0.71545750  0.18273000  1
  O  O104  1  0.85946200  0.52677500  0.18225200  1
  O  O105  1  0.00057550  0.93837050  0.12593600  1
  O  O106  1  0.87531650  0.81943950  0.12497200  1
  O  O107  1  0.23418600  0.90443100  0.03792700  1
  O  O108  1  0.94077200  0.65379300  0.93511900  1
  O  O109  1  0.30776850  0.97449550  0.93142000  1
  O  O110  1  0.37602700  0.77275400  0.93445700  1
  O  O111  1  0.73418600  0.59556900  0.53792700  1
