# generated using pymatgen
data_MgSO3
_symmetry_space_group_name_H-M   'P 1'
_cell_length_a   12.73237881
_cell_length_b   12.73237881
_cell_length_c   7.82460165
_cell_angle_alpha   90.00000000
_cell_angle_beta   90.00000000
_cell_angle_gamma   120.00000000
_symmetry_Int_Tables_number   1
_chemical_formula_structural   MgSO3
_chemical_formula_sum   'Mg18 S18 O54'
_cell_volume   1098.53012551
_cell_formula_units_Z   18
loop_
 _symmetry_equiv_pos_site_id
 _symmetry_equiv_pos_as_xyz
  1  'x, y, z'
loop_
 _atom_site_type_symbol
 _atom_site_label
 _atom_site_symmetry_multiplicity
 _atom_site_fract_x
 _atom_site_fract_y
 _atom_site_fract_z
 _atom_site_occupancy
  Mg  Mg0  1  0.28846600  0.89346500  0.58067200  1
  Mg  Mg1  1  0.39500100  0.28846600  0.41932800  1
  Mg  Mg2  1  0.89346500  0.60499900  0.41932800  1
  Mg  Mg3  1  0.10653500  0.39500100  0.58067200  1
  Mg  Mg4  1  0.60499900  0.71153400  0.58067200  1
  Mg  Mg5  1  0.71153400  0.10653500  0.41932800  1
  Mg  Mg6  1  0.95513267  0.22679833  0.91400533  1
  Mg  Mg7  1  0.06166767  0.62179933  0.75266133  1
  Mg  Mg8  1  0.56013167  0.93833233  0.75266133  1
  Mg  Mg9  1  0.77320167  0.72833433  0.91400533  1
  Mg  Mg10  1  0.27166567  0.04486733  0.91400533  1
  Mg  Mg11  1  0.37820067  0.43986833  0.75266133  1
  Mg  Mg12  1  0.62179933  0.56013167  0.24733867  1
  Mg  Mg13  1  0.72833433  0.95513267  0.08599467  1
  Mg  Mg14  1  0.22679833  0.27166567  0.08599467  1
  Mg  Mg15  1  0.43986833  0.06166767  0.24733867  1
  Mg  Mg16  1  0.93833233  0.37820067  0.24733867  1
  Mg  Mg17  1  0.04486733  0.77320167  0.08599467  1
  S  S18  1  0.16971633  0.01245567  0.30468767  1
  S  S19  1  0.01245567  0.84273933  0.69531233  1
  S  S20  1  0.15726067  0.16971633  0.69531233  1
  S  S21  1  0.84273933  0.83028367  0.30468767  1
  S  S22  1  0.98754433  0.15726067  0.30468767  1
  S  S23  1  0.83028367  0.98754433  0.69531233  1
  S  S24  1  0.83638300  0.34578900  0.63802100  1
  S  S25  1  0.67912233  0.17607267  0.02864567  1
  S  S26  1  0.82392733  0.50304967  0.02864567  1
  S  S27  1  0.50940600  0.16361700  0.63802100  1
  S  S28  1  0.65421100  0.49059400  0.63802100  1
  S  S29  1  0.49695033  0.32087767  0.02864567  1
  S  S30  1  0.50304967  0.67912233  0.97135433  1
  S  S31  1  0.34578900  0.50940600  0.36197900  1
  S  S32  1  0.49059400  0.83638300  0.36197900  1
  S  S33  1  0.17607267  0.49695033  0.97135433  1
  S  S34  1  0.32087767  0.82392733  0.97135433  1
  S  S35  1  0.16361700  0.65421100  0.36197900  1
  O  O36  1  0.48336333  0.18922667  0.45321167  1
  O  O37  1  0.18922667  0.70586333  0.54678833  1
  O  O38  1  0.26726333  0.98311767  0.36953267  1
  O  O39  1  0.15226333  0.91044867  0.72294167  1
  O  O40  1  0.24181467  0.15226333  0.27705833  1
  O  O41  1  0.28414567  0.26726333  0.63046733  1
  O  O42  1  0.98311767  0.71585433  0.63046733  1
  O  O43  1  0.29413667  0.48336333  0.54678833  1
  O  O44  1  0.91044867  0.75818533  0.27705833  1
  O  O45  1  0.08955133  0.24181467  0.72294167  1
  O  O46  1  0.70586333  0.51663667  0.45321167  1
  O  O47  1  0.01688233  0.28414567  0.36953267  1
  O  O48  1  0.71585433  0.73273667  0.36953267  1
  O  O49  1  0.75818533  0.84773667  0.72294167  1
  O  O50  1  0.84773667  0.08955133  0.27705833  1
  O  O51  1  0.73273667  0.01688233  0.63046733  1
  O  O52  1  0.81077333  0.29413667  0.45321167  1
  O  O53  1  0.51663667  0.81077333  0.54678833  1
  O  O54  1  0.15003000  0.52256000  0.78654500  1
  O  O55  1  0.85589333  0.03919667  0.88012167  1
  O  O56  1  0.93393000  0.31645100  0.70286600  1
  O  O57  1  0.81893000  0.24378200  0.05627500  1
  O  O58  1  0.90848133  0.48559667  0.61039167  1
  O  O59  1  0.95081233  0.60059667  0.96380067  1
  O  O60  1  0.64978433  0.04918767  0.96380067  1
  O  O61  1  0.96080333  0.81669667  0.88012167  1
  O  O62  1  0.57711533  0.09151867  0.61039167  1
  O  O63  1  0.75621800  0.57514800  0.05627500  1
  O  O64  1  0.37253000  0.84997000  0.78654500  1
  O  O65  1  0.68354900  0.61747900  0.70286600  1
  O  O66  1  0.38252100  0.06607000  0.70286600  1
  O  O67  1  0.42485200  0.18107000  0.05627500  1
  O  O68  1  0.51440333  0.42288467  0.61039167  1
  O  O69  1  0.39940333  0.35021567  0.96380067  1
  O  O70  1  0.47744000  0.62747000  0.78654500  1
  O  O71  1  0.18330333  0.14410667  0.88012167  1
  O  O72  1  0.81669667  0.85589333  0.11987833  1
  O  O73  1  0.52256000  0.37253000  0.21345500  1
  O  O74  1  0.60059667  0.64978433  0.03619933  1
  O  O75  1  0.48559667  0.57711533  0.38960833  1
  O  O76  1  0.57514800  0.81893000  0.94372500  1
  O  O77  1  0.61747900  0.93393000  0.29713400  1
  O  O78  1  0.31645100  0.38252100  0.29713400  1
  O  O79  1  0.62747000  0.15003000  0.21345500  1
  O  O80  1  0.24378200  0.42485200  0.94372500  1
  O  O81  1  0.42288467  0.90848133  0.38960833  1
  O  O82  1  0.03919667  0.18330333  0.11987833  1
  O  O83  1  0.35021567  0.95081233  0.03619933  1
  O  O84  1  0.04918767  0.39940333  0.03619933  1
  O  O85  1  0.09151867  0.51440333  0.38960833  1
  O  O86  1  0.18107000  0.75621800  0.94372500  1
  O  O87  1  0.06607000  0.68354900  0.29713400  1
  O  O88  1  0.14410667  0.96080333  0.11987833  1
  O  O89  1  0.84997000  0.47744000  0.21345500  1
