# generated using pymatgen
data_Sc2Ti2O7
_symmetry_space_group_name_H-M   'P 1'
_cell_length_a   7.36407900
_cell_length_b   5.09827200
_cell_length_c   25.93184678
_cell_angle_alpha   90.00000000
_cell_angle_beta   98.05344823
_cell_angle_gamma   90.00000000
_symmetry_Int_Tables_number   1
_chemical_formula_structural   Sc2Ti2O7
_chemical_formula_sum   'Sc16 Ti16 O56'
_cell_volume   963.98557036
_cell_formula_units_Z   8
loop_
 _symmetry_equiv_pos_site_id
 _symmetry_equiv_pos_as_xyz
  1  'x, y, z'
loop_
 _atom_site_type_symbol
 _atom_site_label
 _atom_site_symmetry_multiplicity
 _atom_site_fract_x
 _atom_site_fract_y
 _atom_site_fract_z
 _atom_site_occupancy
  Sc  Sc0  1  0.83153600  0.74831200  0.19695800  1
  Sc  Sc1  1  0.78230600  0.26507600  0.06863200  1
  Sc  Sc2  1  0.85650700  0.66767500  0.72221600  1
  Sc  Sc3  1  0.67758400  0.24359500  0.29865300  1
  Sc  Sc4  1  0.77172700  0.21738200  0.53341300  1
  Sc  Sc5  1  0.71653400  0.76435900  0.43084700  1
  Sc  Sc6  1  0.72985400  0.72080600  0.96614300  1
  Sc  Sc7  1  0.63841700  0.17896300  0.77897200  1
  Sc  Sc8  1  0.36158300  0.67896300  0.22102800  1
  Sc  Sc9  1  0.27014600  0.22080600  0.03385700  1
  Sc  Sc10  1  0.28346600  0.26435900  0.56915300  1
  Sc  Sc11  1  0.22827300  0.71738200  0.46658700  1
  Sc  Sc12  1  0.32241600  0.74359500  0.70134700  1
  Sc  Sc13  1  0.14349300  0.16767500  0.27778400  1
  Sc  Sc14  1  0.21769400  0.76507600  0.93136800  1
  Sc  Sc15  1  0.16846400  0.24831200  0.80304200  1
  Ti  Ti16  1  0.93025300  0.72188800  0.33609900  1
  Ti  Ti17  1  0.96986800  0.23311700  0.43653000  1
  Ti  Ti18  1  0.96513100  0.24079900  0.94039700  1
  Ti  Ti19  1  0.52901000  0.73826100  0.06203300  1
  Ti  Ti20  1  0.56957000  0.22953600  0.16276100  1
  Ti  Ti21  1  0.91577200  0.74041400  0.83945700  1
  Ti  Ti22  1  0.53520600  0.73852100  0.55994700  1
  Ti  Ti23  1  0.41420900  0.73531200  0.33847600  1
  Ti  Ti24  1  0.58579100  0.23531200  0.66152400  1
  Ti  Ti25  1  0.46479400  0.23852100  0.44005300  1
  Ti  Ti26  1  0.08422800  0.24041400  0.16054300  1
  Ti  Ti27  1  0.43043000  0.72953600  0.83723900  1
  Ti  Ti28  1  0.47099000  0.23826100  0.93796700  1
  Ti  Ti29  1  0.03486900  0.74079900  0.05960300  1
  Ti  Ti30  1  0.03013200  0.73311700  0.56347000  1
  Ti  Ti31  1  0.06974700  0.22188800  0.66390100  1
  O  O32  1  0.93485200  0.44962100  0.01205800  1
  O  O33  1  0.98056700  0.54956700  0.11505800  1
  O  O34  1  0.85815700  0.04052200  0.38106900  1
  O  O35  1  0.00529700  0.58302100  0.41250000  1
  O  O36  1  0.85085000  0.92199600  0.27263500  1
  O  O37  1  0.82434100  0.10079700  0.14918600  1
  O  O38  1  0.95550300  0.39582300  0.31026800  1
  O  O39  1  0.77128100  0.87973900  0.04257000  1
  O  O40  1  0.92355400  0.95326600  0.48602900  1
  O  O41  1  0.64088600  0.54776700  0.11789900  1
  O  O42  1  0.57589900  0.45387700  0.01318300  1
  O  O43  1  0.65385800  0.42666100  0.22536100  1
  O  O44  1  0.95719900  0.95059400  0.78444100  1
  O  O45  1  0.67391800  0.59629300  0.34729400  1
  O  O46  1  0.72827700  0.37863500  0.45668100  1
  O  O47  1  0.83276400  0.36938900  0.66527800  1
  O  O48  1  0.78225400  0.61323200  0.55972300  1
  O  O49  1  0.86080500  0.44901100  0.79267500  1
  O  O50  1  0.54984500  0.90398900  0.18925300  1
  O  O51  1  0.90276400  0.58250300  0.91199900  1
  O  O52  1  0.49422900  0.08734200  0.08678300  1
  O  O53  1  0.56627600  0.94852100  0.48830200  1
  O  O54  1  0.40014100  0.57761700  0.41074200  1
  O  O55  1  0.51808300  0.03961600  0.38567300  1
  O  O56  1  0.71820500  0.11522100  0.93992200  1
  O  O57  1  0.55373900  0.46223200  0.71641200  1
  O  O58  1  0.35487800  0.45840500  0.28946400  1
  O  O59  1  0.66821400  0.87342800  0.83470300  1
  O  O60  1  0.33178600  0.37342800  0.16529700  1
  O  O61  1  0.64512200  0.95840500  0.71053600  1
  O  O62  1  0.44626100  0.96223200  0.28358800  1
  O  O63  1  0.28179500  0.61522100  0.06007800  1
  O  O64  1  0.48191700  0.53961600  0.61432700  1
  O  O65  1  0.59985900  0.07761700  0.58925800  1
  O  O66  1  0.43372400  0.44852100  0.51169800  1
  O  O67  1  0.50577100  0.58734200  0.91321700  1
  O  O68  1  0.09723600  0.08250300  0.08800100  1
  O  O69  1  0.45015500  0.40398900  0.81074700  1
  O  O70  1  0.13919500  0.94901100  0.20732500  1
  O  O71  1  0.21774600  0.11323200  0.44027700  1
  O  O72  1  0.16723600  0.86938900  0.33472200  1
  O  O73  1  0.27172300  0.87863500  0.54331900  1
  O  O74  1  0.32608200  0.09629300  0.65270600  1
  O  O75  1  0.04280100  0.45059400  0.21555900  1
  O  O76  1  0.34614200  0.92666100  0.77463900  1
  O  O77  1  0.42410100  0.95387700  0.98681700  1
  O  O78  1  0.35911400  0.04776700  0.88210100  1
  O  O79  1  0.07644600  0.45326600  0.51397100  1
  O  O80  1  0.22871900  0.37973900  0.95743000  1
  O  O81  1  0.04449700  0.89582300  0.68973200  1
  O  O82  1  0.17565900  0.60079700  0.85081400  1
  O  O83  1  0.14915000  0.42199600  0.72736500  1
  O  O84  1  0.99470300  0.08302100  0.58750000  1
  O  O85  1  0.14184300  0.54052200  0.61893100  1
  O  O86  1  0.01943300  0.04956700  0.88494200  1
  O  O87  1  0.06514800  0.94962100  0.98794200  1
