# generated using pymatgen
data_Li3Sb(PO4)2
_symmetry_space_group_name_H-M   'P 1'
_cell_length_a   9.48063806
_cell_length_b   9.48063806
_cell_length_c   19.00613089
_cell_angle_alpha   90.00000000
_cell_angle_beta   90.00000000
_cell_angle_gamma   120.00000000
_symmetry_Int_Tables_number   1
_chemical_formula_structural   Li3Sb(PO4)2
_chemical_formula_sum   'Li27 Sb9 P18 O72'
_cell_volume   1479.44723884
_cell_formula_units_Z   9
loop_
 _symmetry_equiv_pos_site_id
 _symmetry_equiv_pos_as_xyz
  1  'x, y, z'
loop_
 _atom_site_type_symbol
 _atom_site_label
 _atom_site_symmetry_multiplicity
 _atom_site_fract_x
 _atom_site_fract_y
 _atom_site_fract_z
 _atom_site_occupancy
  Li  Li0  1  0.58458167  0.63134433  0.25426033  1
  Li  Li1  1  0.66705533  0.94025167  0.07956067  1
  Li  Li2  1  0.27319633  0.33294467  0.07956067  1
  Li  Li3  1  0.33333333  0.66666667  0.66412367  1
  Li  Li4  1  0.33333333  0.66666667  0.17849067  1
  Li  Li5  1  0.33333333  0.66666667  0.32020467  1
  Li  Li6  1  0.36865567  0.95323733  0.25426033  1
  Li  Li7  1  0.04676267  0.41541833  0.25426033  1
  Li  Li8  1  0.05974833  0.72680367  0.07956067  1
  Li  Li9  1  0.25124833  0.96467767  0.58759367  1
  Li  Li10  1  0.33372200  0.27358500  0.41289400  1
  Li  Li11  1  0.93986300  0.66627800  0.41289400  1
  Li  Li12  1  0.00000000  0.00000000  0.99745700  1
  Li  Li13  1  0.00000000  0.00000000  0.51182400  1
  Li  Li14  1  0.00000000  0.00000000  0.65353800  1
  Li  Li15  1  0.03532233  0.28657067  0.58759367  1
  Li  Li16  1  0.71342933  0.74875167  0.58759367  1
  Li  Li17  1  0.72641500  0.06013700  0.41289400  1
  Li  Li18  1  0.91791500  0.29801100  0.92092700  1
  Li  Li19  1  0.00038867  0.60691833  0.74622733  1
  Li  Li20  1  0.60652967  0.99961133  0.74622733  1
  Li  Li21  1  0.66666667  0.33333333  0.33079033  1
  Li  Li22  1  0.66666667  0.33333333  0.84515733  1
  Li  Li23  1  0.66666667  0.33333333  0.98687133  1
  Li  Li24  1  0.70198900  0.61990400  0.92092700  1
  Li  Li25  1  0.38009600  0.08208500  0.92092700  1
  Li  Li26  1  0.39308167  0.39347033  0.74622733  1
  Sb  Sb27  1  0.33333333  0.66666667  0.82161867  1
  Sb  Sb28  1  0.33333333  0.66666667  0.00816867  1
  Sb  Sb29  1  0.33333333  0.66666667  0.51117367  1
  Sb  Sb30  1  0.00000000  0.00000000  0.15495200  1
  Sb  Sb31  1  0.00000000  0.00000000  0.34150200  1
  Sb  Sb32  1  0.00000000  0.00000000  0.84450700  1
  Sb  Sb33  1  0.66666667  0.33333333  0.48828533  1
  Sb  Sb34  1  0.66666667  0.33333333  0.67483533  1
  Sb  Sb35  1  0.66666667  0.33333333  0.17784033  1
  P  P36  1  0.66645867  0.66380233  0.08625233  1
  P  P37  1  0.66429567  0.00061733  0.24570833  1
  P  P38  1  0.33632167  0.33570433  0.24570833  1
  P  P39  1  0.33619767  0.00265633  0.08625233  1
  P  P40  1  0.99734367  0.33354133  0.08625233  1
  P  P41  1  0.99938267  0.66367833  0.24570833  1
  P  P42  1  0.33312533  0.99713567  0.41958567  1
  P  P43  1  0.33096233  0.33395067  0.57904167  1
  P  P44  1  0.00298833  0.66903767  0.57904167  1
  P  P45  1  0.00286433  0.33598967  0.41958567  1
  P  P46  1  0.66401033  0.66687467  0.41958567  1
  P  P47  1  0.66604933  0.99701167  0.57904167  1
  P  P48  1  0.99979200  0.33046900  0.75291900  1
  P  P49  1  0.99762900  0.66728400  0.91237500  1
  P  P50  1  0.66965500  0.00237100  0.91237500  1
  P  P51  1  0.66953100  0.66932300  0.75291900  1
  P  P52  1  0.33067700  0.00020800  0.75291900  1
  P  P53  1  0.33271600  0.33034500  0.91237500  1
  O  O54  1  0.82121333  0.84463367  0.07719767  1
  O  O55  1  0.51508567  0.35778733  0.25271633  1
  O  O56  1  0.55807367  0.66281733  0.35891733  1
  O  O57  1  0.93417867  0.33813033  0.15959633  1
  O  O58  1  0.51274800  0.69098800  0.08449900  1
  O  O59  1  0.25247500  0.24590300  0.17708300  1
  O  O60  1  0.32448433  0.41687867  0.97970167  1
  O  O61  1  0.49570467  0.84636033  0.24324633  1
  O  O62  1  0.64221267  0.15729833  0.25271633  1
  O  O63  1  0.99342800  0.74752500  0.17708300  1
  O  O64  1  0.58312133  0.90760567  0.97970167  1
  O  O65  1  0.35065567  0.50429533  0.24324633  1
  O  O66  1  0.30901200  0.82176000  0.08449900  1
  O  O67  1  0.10474367  0.44192633  0.35891733  1
  O  O68  1  0.66186967  0.59604833  0.15959633  1
  O  O69  1  0.17824000  0.48725200  0.08449900  1
  O  O70  1  0.02342033  0.17878667  0.07719767  1
  O  O71  1  0.40395167  0.06582133  0.15959633  1
  O  O72  1  0.33718267  0.89525633  0.35891733  1
  O  O73  1  0.15363967  0.64934433  0.24324633  1
  O  O74  1  0.75409700  0.00657200  0.17708300  1
  O  O75  1  0.09239433  0.67551567  0.97970167  1
  O  O76  1  0.15536633  0.97657967  0.07719767  1
  O  O77  1  0.84270167  0.48491433  0.25271633  1
  O  O78  1  0.48788000  0.17796700  0.41053100  1
  O  O79  1  0.18175233  0.69112067  0.58604967  1
  O  O80  1  0.22474033  0.99615067  0.69225067  1
  O  O81  1  0.60084533  0.67146367  0.49292967  1
  O  O82  1  0.17941467  0.02432133  0.41783233  1
  O  O83  1  0.91914167  0.57923633  0.51041633  1
  O  O84  1  0.99115100  0.75021200  0.31303500  1
  O  O85  1  0.16237133  0.17969367  0.57657967  1
  O  O86  1  0.30887933  0.49063167  0.58604967  1
  O  O87  1  0.66009467  0.08085833  0.51041633  1
  O  O88  1  0.24978800  0.24093900  0.31303500  1
  O  O89  1  0.01732233  0.83762867  0.57657967  1
  O  O90  1  0.97567867  0.15509333  0.41783233  1
  O  O91  1  0.77141033  0.77525967  0.69225067  1
  O  O92  1  0.32853633  0.92938167  0.49292967  1
  O  O93  1  0.84490667  0.82058533  0.41783233  1
  O  O94  1  0.69008700  0.51212000  0.41053100  1
  O  O95  1  0.07061833  0.39915467  0.49292967  1
  O  O96  1  0.00384933  0.22858967  0.69225067  1
  O  O97  1  0.82030633  0.98267767  0.57657967  1
  O  O98  1  0.42076367  0.33990533  0.51041633  1
  O  O99  1  0.75906100  0.00884900  0.31303500  1
  O  O100  1  0.82203300  0.30991300  0.41053100  1
  O  O101  1  0.50936833  0.81824767  0.58604967  1
  O  O102  1  0.15454667  0.51130033  0.74386433  1
  O  O103  1  0.84841900  0.02445400  0.91938300  1
  O  O104  1  0.89140700  0.32948400  0.02558400  1
  O  O105  1  0.26751200  0.00479700  0.82626300  1
  O  O106  1  0.84608133  0.35765467  0.75116567  1
  O  O107  1  0.58580833  0.91256967  0.84374967  1
  O  O108  1  0.65781767  0.08354533  0.64636833  1
  O  O109  1  0.82903800  0.51302700  0.90991300  1
  O  O110  1  0.97554600  0.82396500  0.91938300  1
  O  O111  1  0.32676133  0.41419167  0.84374967  1
  O  O112  1  0.91645467  0.57427233  0.64636833  1
  O  O113  1  0.68398900  0.17096200  0.90991300  1
  O  O114  1  0.64234533  0.48842667  0.75116567  1
  O  O115  1  0.43807700  0.10859300  0.02558400  1
  O  O116  1  0.99520300  0.26271500  0.82626300  1
  O  O117  1  0.51157333  0.15391867  0.75116567  1
  O  O118  1  0.35675367  0.84545333  0.74386433  1
  O  O119  1  0.73728500  0.73248800  0.82626300  1
  O  O120  1  0.67051600  0.56192300  0.02558400  1
  O  O121  1  0.48697300  0.31601100  0.90991300  1
  O  O122  1  0.08743033  0.67323867  0.84374967  1
  O  O123  1  0.42572767  0.34218233  0.64636833  1
  O  O124  1  0.48869967  0.64324633  0.74386433  1
  O  O125  1  0.17603500  0.15158100  0.91938300  1
