# generated using pymatgen
data_Ba3LiTi5(SbO7)3
_symmetry_space_group_name_H-M   'P 1'
_cell_length_a   9.16007800
_cell_length_b   15.90872800
_cell_length_c   11.79944100
_cell_angle_alpha   90.00000000
_cell_angle_beta   90.00000000
_cell_angle_gamma   90.00000000
_symmetry_Int_Tables_number   1
_chemical_formula_structural   Ba3LiTi5(SbO7)3
_chemical_formula_sum   'Ba12 Li4 Ti20 Sb12 O84'
_cell_volume   1719.47577408
_cell_formula_units_Z   4
loop_
 _symmetry_equiv_pos_site_id
 _symmetry_equiv_pos_as_xyz
  1  'x, y, z'
loop_
 _atom_site_type_symbol
 _atom_site_label
 _atom_site_symmetry_multiplicity
 _atom_site_fract_x
 _atom_site_fract_y
 _atom_site_fract_z
 _atom_site_occupancy
  Ba  Ba0  1  0.29840200  0.29687400  0.74990000  1
  Ba  Ba1  1  0.20159800  0.20312600  0.24990000  1
  Ba  Ba2  1  0.79840200  0.20312600  0.74990000  1
  Ba  Ba3  1  0.70159800  0.29687400  0.24990000  1
  Ba  Ba4  1  0.59839600  0.00000000  0.25181700  1
  Ba  Ba5  1  0.40160400  0.00000000  0.75181700  1
  Ba  Ba6  1  0.79840200  0.79687400  0.74990000  1
  Ba  Ba7  1  0.70159800  0.70312600  0.24990000  1
  Ba  Ba8  1  0.29840200  0.70312600  0.74990000  1
  Ba  Ba9  1  0.20159800  0.79687400  0.24990000  1
  Ba  Ba10  1  0.09839600  0.50000000  0.25181700  1
  Ba  Ba11  1  0.90160400  0.50000000  0.75181700  1
  Li  Li12  1  0.00305300  0.00000000  0.75478800  1
  Li  Li13  1  0.99694700  0.00000000  0.25478800  1
  Li  Li14  1  0.50305300  0.50000000  0.75478800  1
  Li  Li15  1  0.49694700  0.50000000  0.25478800  1
  Ti  Ti16  1  0.37966450  0.37159750  0.40412800  1
  Ti  Ti17  1  0.37137250  0.37487250  0.08739100  1
  Ti  Ti18  1  0.12862750  0.12512750  0.58739100  1
  Ti  Ti19  1  0.12033550  0.12840250  0.90412800  1
  Ti  Ti20  1  0.87966450  0.12840250  0.40412800  1
  Ti  Ti21  1  0.87137250  0.12512750  0.08739100  1
  Ti  Ti22  1  0.74683700  0.00000000  0.91288100  1
  Ti  Ti23  1  0.62033550  0.37159750  0.90412800  1
  Ti  Ti24  1  0.62862750  0.37487250  0.58739100  1
  Ti  Ti25  1  0.25316300  0.00000000  0.41288100  1
  Ti  Ti26  1  0.87966450  0.87159750  0.40412800  1
  Ti  Ti27  1  0.87137250  0.87487250  0.08739100  1
  Ti  Ti28  1  0.62862750  0.62512750  0.58739100  1
  Ti  Ti29  1  0.62033550  0.62840250  0.90412800  1
  Ti  Ti30  1  0.37966450  0.62840250  0.40412800  1
  Ti  Ti31  1  0.37137250  0.62512750  0.08739100  1
  Ti  Ti32  1  0.24683700  0.50000000  0.91288100  1
  Ti  Ti33  1  0.12033550  0.87159750  0.90412800  1
  Ti  Ti34  1  0.12862750  0.87487250  0.58739100  1
  Ti  Ti35  1  0.75316300  0.50000000  0.41288100  1
  Sb  Sb36  1  0.99875050  0.33334550  0.00020600  1
  Sb  Sb37  1  0.00124950  0.33334550  0.50020600  1
  Sb  Sb38  1  0.75715300  0.00000000  0.58638800  1
  Sb  Sb39  1  0.49875050  0.16665450  0.00020600  1
  Sb  Sb40  1  0.50124950  0.16665450  0.50020600  1
  Sb  Sb41  1  0.24284700  0.00000000  0.08638800  1
  Sb  Sb42  1  0.49875050  0.83334550  0.00020600  1
  Sb  Sb43  1  0.50124950  0.83334550  0.50020600  1
  Sb  Sb44  1  0.25715300  0.50000000  0.58638800  1
  Sb  Sb45  1  0.99875050  0.66665450  0.00020600  1
  Sb  Sb46  1  0.00124950  0.66665450  0.50020600  1
  Sb  Sb47  1  0.74284700  0.50000000  0.08638800  1
  O  O48  1  0.39525000  0.39986400  0.57418700  1
  O  O49  1  0.39978050  0.39697050  0.92735500  1
  O  O50  1  0.39714800  0.39709700  0.24933100  1
  O  O51  1  0.17361650  0.34153550  0.10239200  1
  O  O52  1  0.17646000  0.34302700  0.40076500  1
  O  O53  1  0.10285200  0.10290300  0.74933100  1
  O  O54  1  0.09955800  0.41678200  0.90021100  1
  O  O55  1  0.09676000  0.41492200  0.60890000  1
  O  O56  1  0.10021950  0.10302950  0.42735500  1
  O  O57  1  0.10475000  0.10013600  0.07418700  1
  O  O58  1  0.07255250  0.24356750  0.89459400  1
  O  O59  1  0.07171950  0.24011850  0.60028500  1
  O  O60  1  0.92744750  0.24356750  0.39459400  1
  O  O61  1  0.92828050  0.24011850  0.10028500  1
  O  O62  1  0.89525000  0.10013600  0.57418700  1
  O  O63  1  0.89978050  0.10302950  0.92735500  1
  O  O64  1  0.90044200  0.41678200  0.40021100  1
  O  O65  1  0.90324000  0.41492200  0.10890000  1
  O  O66  1  0.89714800  0.10290300  0.24933100  1
  O  O67  1  0.82638350  0.34153550  0.60239200  1
  O  O68  1  0.82354000  0.34302700  0.90076500  1
  O  O69  1  0.79881500  0.00000000  0.42005800  1
  O  O70  1  0.79587000  0.00000000  0.07264500  1
  O  O71  1  0.79757500  0.00000000  0.75214100  1
  O  O72  1  0.67361650  0.15846450  0.10239200  1
  O  O73  1  0.67646000  0.15697300  0.40076500  1
  O  O74  1  0.60285200  0.39709700  0.74933100  1
  O  O75  1  0.59955800  0.08321800  0.90021100  1
  O  O76  1  0.59676000  0.08507800  0.60890000  1
  O  O77  1  0.60021950  0.39697050  0.42735500  1
  O  O78  1  0.60475000  0.39986400  0.07418700  1
  O  O79  1  0.57255250  0.25643250  0.89459400  1
  O  O80  1  0.57171950  0.25988150  0.60028500  1
  O  O81  1  0.42744750  0.25643250  0.39459400  1
  O  O82  1  0.42828050  0.25988150  0.10028500  1
  O  O83  1  0.40044200  0.08321800  0.40021100  1
  O  O84  1  0.40324000  0.08507800  0.10890000  1
  O  O85  1  0.32638350  0.15846450  0.60239200  1
  O  O86  1  0.32354000  0.15697300  0.90076500  1
  O  O87  1  0.20242500  0.00000000  0.25214100  1
  O  O88  1  0.20413000  0.00000000  0.57264500  1
  O  O89  1  0.20118500  0.00000000  0.92005800  1
  O  O90  1  0.89525000  0.89986400  0.57418700  1
  O  O91  1  0.89978050  0.89697050  0.92735500  1
  O  O92  1  0.89714800  0.89709700  0.24933100  1
  O  O93  1  0.67361650  0.84153550  0.10239200  1
  O  O94  1  0.67646000  0.84302700  0.40076500  1
  O  O95  1  0.60285200  0.60290300  0.74933100  1
  O  O96  1  0.59955800  0.91678200  0.90021100  1
  O  O97  1  0.59676000  0.91492200  0.60890000  1
  O  O98  1  0.60021950  0.60302950  0.42735500  1
  O  O99  1  0.60475000  0.60013600  0.07418700  1
  O  O100  1  0.57255250  0.74356750  0.89459400  1
  O  O101  1  0.57171950  0.74011850  0.60028500  1
  O  O102  1  0.42744750  0.74356750  0.39459400  1
  O  O103  1  0.42828050  0.74011850  0.10028500  1
  O  O104  1  0.39525000  0.60013600  0.57418700  1
  O  O105  1  0.39978050  0.60302950  0.92735500  1
  O  O106  1  0.40044200  0.91678200  0.40021100  1
  O  O107  1  0.40324000  0.91492200  0.10890000  1
  O  O108  1  0.39714800  0.60290300  0.24933100  1
  O  O109  1  0.32638350  0.84153550  0.60239200  1
  O  O110  1  0.32354000  0.84302700  0.90076500  1
  O  O111  1  0.29881500  0.50000000  0.42005800  1
  O  O112  1  0.29587000  0.50000000  0.07264500  1
  O  O113  1  0.29757500  0.50000000  0.75214100  1
  O  O114  1  0.17361650  0.65846450  0.10239200  1
  O  O115  1  0.17646000  0.65697300  0.40076500  1
  O  O116  1  0.10285200  0.89709700  0.74933100  1
  O  O117  1  0.09955800  0.58321800  0.90021100  1
  O  O118  1  0.09676000  0.58507800  0.60890000  1
  O  O119  1  0.10021950  0.89697050  0.42735500  1
  O  O120  1  0.10475000  0.89986400  0.07418700  1
  O  O121  1  0.07255250  0.75643250  0.89459400  1
  O  O122  1  0.07171950  0.75988150  0.60028500  1
  O  O123  1  0.92744750  0.75643250  0.39459400  1
  O  O124  1  0.92828050  0.75988150  0.10028500  1
  O  O125  1  0.90044200  0.58321800  0.40021100  1
  O  O126  1  0.90324000  0.58507800  0.10890000  1
  O  O127  1  0.82638350  0.65846450  0.60239200  1
  O  O128  1  0.82354000  0.65697300  0.90076500  1
  O  O129  1  0.70242500  0.50000000  0.25214100  1
  O  O130  1  0.70413000  0.50000000  0.57264500  1
  O  O131  1  0.70118500  0.50000000  0.92005800  1
