# generated using pymatgen
data_SrMoAsH3O8
_symmetry_space_group_name_H-M   'P 1'
_cell_length_a   15.63443600
_cell_length_b   10.40620600
_cell_length_c   9.91700649
_cell_angle_alpha   90.00000000
_cell_angle_beta   120.77896000
_cell_angle_gamma   90.00000000
_symmetry_Int_Tables_number   1
_chemical_formula_structural   SrMoAsH3O8
_chemical_formula_sum   'Sr8 Mo8 As8 H24 O64'
_cell_volume   1386.19124942
_cell_formula_units_Z   8
loop_
 _symmetry_equiv_pos_site_id
 _symmetry_equiv_pos_as_xyz
  1  'x, y, z'
loop_
 _atom_site_type_symbol
 _atom_site_label
 _atom_site_symmetry_multiplicity
 _atom_site_fract_x
 _atom_site_fract_y
 _atom_site_fract_z
 _atom_site_occupancy
  Sr  Sr0  1  0.91010800  0.27031700  0.87474000  1
  Sr  Sr1  1  0.08989200  0.27031700  0.62526000  1
  Sr  Sr2  1  0.08989200  0.72968300  0.12526000  1
  Sr  Sr3  1  0.91010800  0.72968300  0.37474000  1
  Sr  Sr4  1  0.41010800  0.77031700  0.87474000  1
  Sr  Sr5  1  0.58989200  0.77031700  0.62526000  1
  Sr  Sr6  1  0.58989200  0.22968300  0.12526000  1
  Sr  Sr7  1  0.41010800  0.22968300  0.37474000  1
  Mo  Mo8  1  0.65208150  0.59198650  0.27195000  1
  Mo  Mo9  1  0.34791850  0.59198650  0.22805000  1
  Mo  Mo10  1  0.34791850  0.40801350  0.72805000  1
  Mo  Mo11  1  0.65208150  0.40801350  0.77195000  1
  Mo  Mo12  1  0.15208150  0.09198650  0.27195000  1
  Mo  Mo13  1  0.84791850  0.09198650  0.22805000  1
  Mo  Mo14  1  0.84791850  0.90801350  0.72805000  1
  Mo  Mo15  1  0.15208150  0.90801350  0.77195000  1
  As  As16  1  0.81196850  0.58244750  0.67718000  1
  As  As17  1  0.18803150  0.58244750  0.82282000  1
  As  As18  1  0.18803150  0.41755250  0.32282000  1
  As  As19  1  0.81196850  0.41755250  0.17718000  1
  As  As20  1  0.31196850  0.08244750  0.67718000  1
  As  As21  1  0.68803150  0.08244750  0.82282000  1
  As  As22  1  0.68803150  0.91755250  0.32282000  1
  As  As23  1  0.31196850  0.91755250  0.17718000  1
  H  H24  1  0.98372900  0.61568900  0.82101700  1
  H  H25  1  0.01627100  0.61568900  0.67898300  1
  H  H26  1  0.01627100  0.38431100  0.17898300  1
  H  H27  1  0.98372900  0.38431100  0.32101700  1
  H  H28  1  0.13551500  0.38600700  0.96425300  1
  H  H29  1  0.86448500  0.38600700  0.53574700  1
  H  H30  1  0.86448500  0.61399300  0.03574700  1
  H  H31  1  0.13551500  0.61399300  0.46425300  1
  H  H32  1  0.12480400  0.23655700  0.97252200  1
  H  H33  1  0.87519600  0.23655700  0.52747800  1
  H  H34  1  0.87519600  0.76344300  0.02747800  1
  H  H35  1  0.12480400  0.76344300  0.47252200  1
  H  H36  1  0.48372900  0.11568900  0.82101700  1
  H  H37  1  0.51627100  0.11568900  0.67898300  1
  H  H38  1  0.51627100  0.88431100  0.17898300  1
  H  H39  1  0.48372900  0.88431100  0.32101700  1
  H  H40  1  0.63551500  0.88600700  0.96425300  1
  H  H41  1  0.36448500  0.88600700  0.53574700  1
  H  H42  1  0.36448500  0.11399300  0.03574700  1
  H  H43  1  0.63551500  0.11399300  0.46425300  1
  H  H44  1  0.62480400  0.73655700  0.97252200  1
  H  H45  1  0.37519600  0.73655700  0.52747800  1
  H  H46  1  0.37519600  0.26344300  0.02747800  1
  H  H47  1  0.62480400  0.26344300  0.47252200  1
  O  O48  1  0.81554900  0.57188000  0.50838100  1
  O  O49  1  0.18445100  0.57188000  0.99161900  1
  O  O50  1  0.18445100  0.42812000  0.49161900  1
  O  O51  1  0.81554900  0.42812000  0.00838100  1
  O  O52  1  0.77160850  0.71990550  0.71988700  1
  O  O53  1  0.22839150  0.71990550  0.78011300  1
  O  O54  1  0.22839150  0.28009450  0.28011300  1
  O  O55  1  0.77160850  0.28009450  0.21988700  1
  O  O56  1  0.76507850  0.44435250  0.70760200  1
  O  O57  1  0.23492150  0.44435250  0.79239800  1
  O  O58  1  0.23492150  0.55564750  0.29239800  1
  O  O59  1  0.76507850  0.55564750  0.20760200  1
  O  O60  1  0.93947750  0.56117450  0.83765100  1
  O  O61  1  0.06052250  0.56117450  0.66234900  1
  O  O62  1  0.06052250  0.43882550  0.16234900  1
  O  O63  1  0.93947750  0.43882550  0.33765100  1
  O  O64  1  0.11291400  0.16681400  0.39262600  1
  O  O65  1  0.88708600  0.16681400  0.10737400  1
  O  O66  1  0.88708600  0.83318600  0.60737400  1
  O  O67  1  0.11291400  0.83318600  0.89262600  1
  O  O68  1  0.63426200  0.42602900  0.28650500  1
  O  O69  1  0.36573800  0.42602900  0.21349500  1
  O  O70  1  0.36573800  0.57397100  0.71349500  1
  O  O71  1  0.63426200  0.57397100  0.78650500  1
  O  O72  1  0.05909850  0.13311750  0.07876600  1
  O  O73  1  0.94090150  0.13311750  0.42123400  1
  O  O74  1  0.94090150  0.86688250  0.92123400  1
  O  O75  1  0.05909850  0.86688250  0.57876600  1
  O  O76  1  0.09702700  0.31103800  0.90258600  1
  O  O77  1  0.90297300  0.31103800  0.59741400  1
  O  O78  1  0.90297300  0.68896200  0.09741400  1
  O  O79  1  0.09702700  0.68896200  0.40258600  1
  O  O80  1  0.31554900  0.07188000  0.50838100  1
  O  O81  1  0.68445100  0.07188000  0.99161900  1
  O  O82  1  0.68445100  0.92812000  0.49161900  1
  O  O83  1  0.31554900  0.92812000  0.00838100  1
  O  O84  1  0.27160850  0.21990550  0.71988700  1
  O  O85  1  0.72839150  0.21990550  0.78011300  1
  O  O86  1  0.72839150  0.78009450  0.28011300  1
  O  O87  1  0.27160850  0.78009450  0.21988700  1
  O  O88  1  0.26507850  0.94435250  0.70760200  1
  O  O89  1  0.73492150  0.94435250  0.79239800  1
  O  O90  1  0.73492150  0.05564750  0.29239800  1
  O  O91  1  0.26507850  0.05564750  0.20760200  1
  O  O92  1  0.43947750  0.06117450  0.83765100  1
  O  O93  1  0.56052250  0.06117450  0.66234900  1
  O  O94  1  0.56052250  0.93882550  0.16234900  1
  O  O95  1  0.43947750  0.93882550  0.33765100  1
  O  O96  1  0.61291400  0.66681400  0.39262600  1
  O  O97  1  0.38708600  0.66681400  0.10737400  1
  O  O98  1  0.38708600  0.33318600  0.60737400  1
  O  O99  1  0.61291400  0.33318600  0.89262600  1
  O  O100  1  0.13426200  0.92602900  0.28650500  1
  O  O101  1  0.86573800  0.92602900  0.21349500  1
  O  O102  1  0.86573800  0.07397100  0.71349500  1
  O  O103  1  0.13426200  0.07397100  0.78650500  1
  O  O104  1  0.55909850  0.63311750  0.07876600  1
  O  O105  1  0.44090150  0.63311750  0.42123400  1
  O  O106  1  0.44090150  0.36688250  0.92123400  1
  O  O107  1  0.55909850  0.36688250  0.57876600  1
  O  O108  1  0.59702700  0.81103800  0.90258600  1
  O  O109  1  0.40297300  0.81103800  0.59741400  1
  O  O110  1  0.40297300  0.18896200  0.09741400  1
  O  O111  1  0.59702700  0.18896200  0.40258600  1
