# generated using pymatgen
data_K2H2OsCCl5O2
_symmetry_space_group_name_H-M   'P 1'
_cell_length_a   13.81117900
_cell_length_b   7.21945600
_cell_length_c   22.47010323
_cell_angle_alpha   90.00000000
_cell_angle_beta   98.77679782
_cell_angle_gamma   90.00000000
_symmetry_Int_Tables_number   1
_chemical_formula_structural   K2H2OsCCl5O2
_chemical_formula_sum   'K16 H16 Os8 C8 Cl40 O16'
_cell_volume   2214.24058904
_cell_formula_units_Z   8
loop_
 _symmetry_equiv_pos_site_id
 _symmetry_equiv_pos_as_xyz
  1  'x, y, z'
loop_
 _atom_site_type_symbol
 _atom_site_label
 _atom_site_symmetry_multiplicity
 _atom_site_fract_x
 _atom_site_fract_y
 _atom_site_fract_z
 _atom_site_occupancy
  K  K0  1  0.86020300  0.90639600  0.70798500  1
  K  K1  1  0.84807900  0.62060600  0.99606100  1
  K  K2  1  0.86020300  0.59360400  0.20798500  1
  K  K3  1  0.67828400  0.41217000  0.71618700  1
  K  K4  1  0.84807900  0.87939400  0.49606100  1
  K  K5  1  0.64330900  0.14490800  0.99143400  1
  K  K6  1  0.67828400  0.08783000  0.21618700  1
  K  K7  1  0.64330900  0.35509200  0.49143400  1
  K  K8  1  0.35669100  0.64490800  0.50856600  1
  K  K9  1  0.32171600  0.91217000  0.78381300  1
  K  K10  1  0.35669100  0.85509200  0.00856600  1
  K  K11  1  0.15192100  0.12060600  0.50393900  1
  K  K12  1  0.32171600  0.58783000  0.28381300  1
  K  K13  1  0.13979700  0.40639600  0.79201500  1
  K  K14  1  0.15192100  0.37939400  0.00393900  1
  K  K15  1  0.13979700  0.09360400  0.29201500  1
  H  H16  1  0.86144100  0.59147600  0.80367600  1
  H  H17  1  0.77325300  0.71485600  0.81312300  1
  H  H18  1  0.86144100  0.90852400  0.30367600  1
  H  H19  1  0.72552900  0.07091100  0.80567100  1
  H  H20  1  0.64906200  0.99469700  0.75486100  1
  H  H21  1  0.77325300  0.78514400  0.31312300  1
  H  H22  1  0.72552900  0.42908900  0.30567100  1
  H  H23  1  0.64906200  0.50530300  0.25486100  1
  H  H24  1  0.35093800  0.49469700  0.74513900  1
  H  H25  1  0.27447100  0.57091100  0.69432900  1
  H  H26  1  0.22674700  0.21485600  0.68687700  1
  H  H27  1  0.35093800  0.00530300  0.24513900  1
  H  H28  1  0.27447100  0.92908900  0.19432900  1
  H  H29  1  0.13855900  0.09147600  0.69632400  1
  H  H30  1  0.22674700  0.28514400  0.18687700  1
  H  H31  1  0.13855900  0.40852400  0.19632400  1
  Os  Os32  1  0.91701400  0.34124600  0.61037600  1
  Os  Os33  1  0.91701400  0.15875400  0.11037600  1
  Os  Os34  1  0.57460900  0.65961800  0.88714500  1
  Os  Os35  1  0.42539100  0.15961800  0.61285500  1
  Os  Os36  1  0.57460900  0.84038200  0.38714500  1
  Os  Os37  1  0.42539100  0.34038200  0.11285500  1
  Os  Os38  1  0.08298600  0.84124600  0.88962400  1
  Os  Os39  1  0.08298600  0.65875400  0.38962400  1
  C  C40  1  0.97527400  0.99438000  0.87602300  1
  C  C41  1  0.97527400  0.50562000  0.37602300  1
  C  C42  1  0.52857000  0.99640000  0.62511600  1
  C  C43  1  0.47143000  0.49640000  0.87488400  1
  C  C44  1  0.52857000  0.50360000  0.12511600  1
  C  C45  1  0.47143000  0.00360000  0.37488400  1
  C  C46  1  0.02472600  0.49438000  0.62397700  1
  C  C47  1  0.02472600  0.00562000  0.12397700  1
  Cl  Cl48  1  0.90114000  0.33362500  0.50438600  1
  Cl  Cl49  1  0.99131400  0.55707600  0.88798400  1
  Cl  Cl50  1  0.92251800  0.32537800  0.71740200  1
  Cl  Cl51  1  0.80781200  0.59845000  0.60518900  1
  Cl  Cl52  1  0.90114000  0.16637500  0.00438600  1
  Cl  Cl53  1  0.99131400  0.94292400  0.38798400  1
  Cl  Cl54  1  0.92251800  0.17462200  0.21740200  1
  Cl  Cl55  1  0.76733000  0.14378900  0.60023500  1
  Cl  Cl56  1  0.80781200  0.90155000  0.10518900  1
  Cl  Cl57  1  0.72152600  0.86986100  0.89708500  1
  Cl  Cl58  1  0.76733000  0.35621100  0.10023500  1
  Cl  Cl59  1  0.68581700  0.41120900  0.88010000  1
  Cl  Cl60  1  0.72152600  0.63013900  0.39708500  1
  Cl  Cl61  1  0.52129800  0.43082900  0.60084300  1
  Cl  Cl62  1  0.60605300  0.63737300  0.99334700  1
  Cl  Cl63  1  0.55143000  0.71439100  0.78096600  1
  Cl  Cl64  1  0.68581700  0.08879100  0.38010000  1
  Cl  Cl65  1  0.44857000  0.21439100  0.71903400  1
  Cl  Cl66  1  0.39394700  0.13737300  0.50665300  1
  Cl  Cl67  1  0.47870200  0.93082900  0.89915700  1
  Cl  Cl68  1  0.52129800  0.06917100  0.10084300  1
  Cl  Cl69  1  0.60605300  0.86262700  0.49334700  1
  Cl  Cl70  1  0.55143000  0.78560900  0.28096600  1
  Cl  Cl71  1  0.31418300  0.91120900  0.61990000  1
  Cl  Cl72  1  0.44857000  0.28560900  0.21903400  1
  Cl  Cl73  1  0.39394700  0.36262700  0.00665300  1
  Cl  Cl74  1  0.47870200  0.56917100  0.39915700  1
  Cl  Cl75  1  0.27847400  0.36986100  0.60291500  1
  Cl  Cl76  1  0.31418300  0.58879100  0.11990000  1
  Cl  Cl77  1  0.23267000  0.64378900  0.89976500  1
  Cl  Cl78  1  0.27847400  0.13013900  0.10291500  1
  Cl  Cl79  1  0.19218800  0.09845000  0.89481100  1
  Cl  Cl80  1  0.23267000  0.85621100  0.39976500  1
  Cl  Cl81  1  0.07748200  0.82537800  0.78259800  1
  Cl  Cl82  1  0.00868600  0.05707600  0.61201600  1
  Cl  Cl83  1  0.09886000  0.83362500  0.99561400  1
  Cl  Cl84  1  0.19218800  0.40155000  0.39481100  1
  Cl  Cl85  1  0.07748200  0.67462200  0.28259800  1
  Cl  Cl86  1  0.00868600  0.44292400  0.11201600  1
  Cl  Cl87  1  0.09886000  0.66637500  0.49561400  1
  O  O88  1  0.90982200  0.09616500  0.86169300  1
  O  O89  1  0.80453200  0.65545600  0.78153300  1
  O  O90  1  0.90982200  0.40383500  0.36169300  1
  O  O91  1  0.70908900  0.06906000  0.76166700  1
  O  O92  1  0.80453200  0.84454400  0.28153300  1
  O  O93  1  0.59119200  0.88731200  0.63784400  1
  O  O94  1  0.70908900  0.43094000  0.26166700  1
  O  O95  1  0.59119200  0.61268800  0.13784400  1
  O  O96  1  0.40880800  0.38731200  0.86215600  1
  O  O97  1  0.29091100  0.56906000  0.73833300  1
  O  O98  1  0.40880800  0.11268800  0.36215600  1
  O  O99  1  0.19546800  0.15545600  0.71846700  1
  O  O100  1  0.29091100  0.93094000  0.23833300  1
  O  O101  1  0.09017800  0.59616500  0.63830700  1
  O  O102  1  0.19546800  0.34454400  0.21846700  1
  O  O103  1  0.09017800  0.90383500  0.13830700  1
