# generated using pymatgen
data_Cr(PO3)5
_symmetry_space_group_name_H-M   'P 1'
_cell_length_a   5.09087600
_cell_length_b   13.70808100
_cell_length_c   8.94591333
_cell_angle_alpha   90.00000000
_cell_angle_beta   101.43439204
_cell_angle_gamma   90.00000000
_symmetry_Int_Tables_number   1
_chemical_formula_structural   Cr(PO3)5
_chemical_formula_sum   'Cr2 P10 O30'
_cell_volume   611.90986395
_cell_formula_units_Z   2
loop_
 _symmetry_equiv_pos_site_id
 _symmetry_equiv_pos_as_xyz
  1  'x, y, z'
loop_
 _atom_site_type_symbol
 _atom_site_label
 _atom_site_symmetry_multiplicity
 _atom_site_fract_x
 _atom_site_fract_y
 _atom_site_fract_z
 _atom_site_occupancy
  Cr  Cr0  1  0.50000000  0.00000000  0.50000000  1
  Cr  Cr1  1  0.50000000  0.50000000  0.50000000  1
  P  P2  1  0.34548400  0.07846600  0.81198300  1
  P  P3  1  0.99654000  0.85843500  0.48024700  1
  P  P4  1  0.00346000  0.14156500  0.51975300  1
  P  P5  1  0.00346000  0.35843500  0.51975300  1
  P  P6  1  0.54543600  0.25000000  0.99924200  1
  P  P7  1  0.99654000  0.64156500  0.48024700  1
  P  P8  1  0.34548400  0.42153400  0.81198300  1
  P  P9  1  0.65451600  0.57846600  0.18801700  1
  P  P10  1  0.65451600  0.92153400  0.18801700  1
  P  P11  1  0.45456400  0.75000000  0.00075800  1
  O  O12  1  0.70203900  0.75000000  0.93088400  1
  O  O13  1  0.15892900  0.07359600  0.43675000  1
  O  O14  1  0.13291900  0.35260800  0.69644800  1
  O  O15  1  0.29502000  0.87693900  0.50014300  1
  O  O16  1  0.13291900  0.14739200  0.69644800  1
  O  O17  1  0.44011600  0.66052500  0.11465100  1
  O  O18  1  0.95827500  0.75000000  0.53777500  1
  O  O19  1  0.78715700  0.97405700  0.08009800  1
  O  O20  1  0.21284300  0.47405700  0.91990200  1
  O  O21  1  0.50280300  0.51814300  0.28912600  1
  O  O22  1  0.70498000  0.37693900  0.49985700  1
  O  O23  1  0.15892900  0.42640400  0.43675000  1
  O  O24  1  0.49719700  0.48185700  0.71087400  1
  O  O25  1  0.44011600  0.83947500  0.11465100  1
  O  O26  1  0.86708100  0.85260800  0.30355200  1
  O  O27  1  0.49719700  0.01814300  0.71087400  1
  O  O28  1  0.86708100  0.64739200  0.30355200  1
  O  O29  1  0.04172500  0.25000000  0.46222500  1
  O  O30  1  0.21807300  0.75000000  0.86801400  1
  O  O31  1  0.70498000  0.12306100  0.49985700  1
  O  O32  1  0.84107100  0.57359600  0.56325000  1
  O  O33  1  0.84107100  0.92640400  0.56325000  1
  O  O34  1  0.29502000  0.62306100  0.50014300  1
  O  O35  1  0.21284300  0.02594300  0.91990200  1
  O  O36  1  0.29796100  0.25000000  0.06911600  1
  O  O37  1  0.55988400  0.16052500  0.88534900  1
  O  O38  1  0.50280300  0.98185700  0.28912600  1
  O  O39  1  0.78715700  0.52594300  0.08009800  1
  O  O40  1  0.55988400  0.33947500  0.88534900  1
  O  O41  1  0.78192700  0.25000000  0.13198600  1
