# generated using pymatgen
data_V3O5F
_symmetry_space_group_name_H-M   'P 1'
_cell_length_a   6.72964800
_cell_length_b   6.43610600
_cell_length_c   8.98578782
_cell_angle_alpha   90.00000000
_cell_angle_beta   90.25331077
_cell_angle_gamma   90.00000000
_symmetry_Int_Tables_number   1
_chemical_formula_structural   V3O5F
_chemical_formula_sum   'V12 O20 F4'
_cell_volume   389.19517883
_cell_formula_units_Z   4
loop_
 _symmetry_equiv_pos_site_id
 _symmetry_equiv_pos_as_xyz
  1  'x, y, z'
loop_
 _atom_site_type_symbol
 _atom_site_label
 _atom_site_symmetry_multiplicity
 _atom_site_fract_x
 _atom_site_fract_y
 _atom_site_fract_z
 _atom_site_occupancy
  V  V0  1  0.00950800  0.00000000  0.84891900  1
  V  V1  1  0.99049200  0.00000000  0.15108100  1
  V  V2  1  0.00000000  0.00000000  0.50000000  1
  V  V3  1  0.50000000  0.00000000  0.00000000  1
  V  V4  1  0.46005400  0.00000000  0.66715500  1
  V  V5  1  0.53994600  0.00000000  0.33284500  1
  V  V6  1  0.50950800  0.50000000  0.84891900  1
  V  V7  1  0.49049200  0.50000000  0.15108100  1
  V  V8  1  0.50000000  0.50000000  0.50000000  1
  V  V9  1  0.00000000  0.50000000  0.00000000  1
  V  V10  1  0.96005400  0.50000000  0.66715500  1
  V  V11  1  0.03994600  0.50000000  0.33284500  1
  O  O12  1  0.20553900  0.00000000  0.99761000  1
  O  O13  1  0.19390600  0.00000000  0.67181300  1
  O  O14  1  0.49651950  0.80412150  0.83347200  1
  O  O15  1  0.50348050  0.80412150  0.16652800  1
  O  O16  1  0.50000000  0.80767200  0.50000000  1
  O  O17  1  0.49651950  0.19587850  0.83347200  1
  O  O18  1  0.50348050  0.19587850  0.16652800  1
  O  O19  1  0.50000000  0.19232800  0.50000000  1
  O  O20  1  0.79446100  0.00000000  0.00239000  1
  O  O21  1  0.80609400  0.00000000  0.32818700  1
  O  O22  1  0.70553900  0.50000000  0.99761000  1
  O  O23  1  0.69390600  0.50000000  0.67181300  1
  O  O24  1  0.99651950  0.30412150  0.83347200  1
  O  O25  1  0.00348050  0.30412150  0.16652800  1
  O  O26  1  0.00000000  0.30767200  0.50000000  1
  O  O27  1  0.99651950  0.69587850  0.83347200  1
  O  O28  1  0.00348050  0.69587850  0.16652800  1
  O  O29  1  0.00000000  0.69232800  0.50000000  1
  O  O30  1  0.29446100  0.50000000  0.00239000  1
  O  O31  1  0.30609400  0.50000000  0.32818700  1
  F  F32  1  0.19869400  0.00000000  0.32774600  1
  F  F33  1  0.80130600  0.00000000  0.67225400  1
  F  F34  1  0.69869400  0.50000000  0.32774600  1
  F  F35  1  0.30130600  0.50000000  0.67225400  1
