# generated using pymatgen
data_Y7TmO12
_symmetry_space_group_name_H-M   'P 1'
_cell_length_a   10.66790800
_cell_length_b   10.66990000
_cell_length_c   10.67263200
_cell_angle_alpha   90.00000000
_cell_angle_beta   90.00000000
_cell_angle_gamma   90.00000000
_symmetry_Int_Tables_number   1
_chemical_formula_structural   Y7TmO12
_chemical_formula_sum   'Y28 Tm4 O48'
_cell_volume   1214.81779719
_cell_formula_units_Z   4
loop_
 _symmetry_equiv_pos_site_id
 _symmetry_equiv_pos_as_xyz
  1  'x, y, z'
loop_
 _atom_site_type_symbol
 _atom_site_label
 _atom_site_symmetry_multiplicity
 _atom_site_fract_x
 _atom_site_fract_y
 _atom_site_fract_z
 _atom_site_occupancy
  Y  Y0  1  0.25000000  0.21691600  0.00000000  1
  Y  Y1  1  0.99991250  0.49879550  0.49961550  1
  Y  Y2  1  0.21699100  0.00000000  0.75000000  1
  Y  Y3  1  0.28300900  0.00000000  0.25000000  1
  Y  Y4  1  0.50000000  0.25000000  0.28430500  1
  Y  Y5  1  0.50000000  0.25000000  0.78199800  1
  Y  Y6  1  0.99991250  0.50120450  0.00038450  1
  Y  Y7  1  0.00008750  0.00120450  0.49961550  1
  Y  Y8  1  0.25000000  0.78308400  0.50000000  1
  Y  Y9  1  0.00008750  0.99879550  0.00038450  1
  Y  Y10  1  0.00000000  0.25000000  0.21800200  1
  Y  Y11  1  0.00000000  0.25000000  0.71569500  1
  Y  Y12  1  0.28242500  0.50000000  0.75000000  1
  Y  Y13  1  0.21757500  0.50000000  0.25000000  1
  Y  Y14  1  0.75000000  0.71691600  0.50000000  1
  Y  Y15  1  0.49991250  0.99879550  0.99961550  1
  Y  Y16  1  0.71699100  0.50000000  0.25000000  1
  Y  Y17  1  0.78300900  0.50000000  0.75000000  1
  Y  Y18  1  0.00000000  0.75000000  0.78430500  1
  Y  Y19  1  0.00000000  0.75000000  0.28199800  1
  Y  Y20  1  0.49991250  0.00120450  0.50038450  1
  Y  Y21  1  0.50008750  0.50120450  0.99961550  1
  Y  Y22  1  0.75000000  0.28308400  0.00000000  1
  Y  Y23  1  0.50008750  0.49879550  0.50038450  1
  Y  Y24  1  0.50000000  0.75000000  0.71800200  1
  Y  Y25  1  0.50000000  0.75000000  0.21569500  1
  Y  Y26  1  0.78242500  0.00000000  0.25000000  1
  Y  Y27  1  0.71757500  0.00000000  0.75000000  1
  Tm  Tm28  1  0.25000000  0.71636200  0.00000000  1
  Tm  Tm29  1  0.25000000  0.28363800  0.50000000  1
  Tm  Tm30  1  0.75000000  0.21636200  0.50000000  1
  Tm  Tm31  1  0.75000000  0.78363800  0.00000000  1
  O  O32  1  0.59772150  0.35995250  0.13037950  1
  O  O33  1  0.40227850  0.14004750  0.13037950  1
  O  O34  1  0.63089700  0.90114900  0.13920600  1
  O  O35  1  0.12982900  0.09803900  0.14095800  1
  O  O36  1  0.63089700  0.09885100  0.36079400  1
  O  O37  1  0.12982900  0.90196100  0.35904200  1
  O  O38  1  0.40227850  0.85995250  0.36962050  1
  O  O39  1  0.59772150  0.64004750  0.36962050  1
  O  O40  1  0.64242000  0.36809800  0.40336300  1
  O  O41  1  0.35758000  0.13190200  0.40336300  1
  O  O42  1  0.35943800  0.37004200  0.90163700  1
  O  O43  1  0.64056200  0.12995800  0.90163700  1
  O  O44  1  0.14056200  0.37004200  0.09836300  1
  O  O45  1  0.85758000  0.36809800  0.59663700  1
  O  O46  1  0.14242000  0.13190200  0.59663700  1
  O  O47  1  0.85943800  0.12995800  0.09836300  1
  O  O48  1  0.89952150  0.85746650  0.12870650  1
  O  O49  1  0.10047850  0.64253350  0.12870650  1
  O  O50  1  0.87017100  0.40196100  0.14095800  1
  O  O51  1  0.36910300  0.59885100  0.13920600  1
  O  O52  1  0.87017100  0.59803900  0.35904200  1
  O  O53  1  0.36910300  0.40114900  0.36079400  1
  O  O54  1  0.89952150  0.14253350  0.37129350  1
  O  O55  1  0.10047850  0.35746650  0.37129350  1
  O  O56  1  0.09772150  0.85995250  0.63037950  1
  O  O57  1  0.90227850  0.64004750  0.63037950  1
  O  O58  1  0.13089700  0.40114900  0.63920600  1
  O  O59  1  0.62982900  0.59803900  0.64095800  1
  O  O60  1  0.13089700  0.59885100  0.86079400  1
  O  O61  1  0.62982900  0.40196100  0.85904200  1
  O  O62  1  0.90227850  0.35995250  0.86962050  1
  O  O63  1  0.09772150  0.14004750  0.86962050  1
  O  O64  1  0.14242000  0.86809800  0.90336300  1
  O  O65  1  0.85758000  0.63190200  0.90336300  1
  O  O66  1  0.85943800  0.87004200  0.40163700  1
  O  O67  1  0.14056200  0.62995800  0.40163700  1
  O  O68  1  0.64056200  0.87004200  0.59836300  1
  O  O69  1  0.35758000  0.86809800  0.09663700  1
  O  O70  1  0.64242000  0.63190200  0.09663700  1
  O  O71  1  0.35943800  0.62995800  0.59836300  1
  O  O72  1  0.39952150  0.35746650  0.62870650  1
  O  O73  1  0.60047850  0.14253350  0.62870650  1
  O  O74  1  0.37017100  0.90196100  0.64095800  1
  O  O75  1  0.86910300  0.09885100  0.63920600  1
  O  O76  1  0.37017100  0.09803900  0.85904200  1
  O  O77  1  0.86910300  0.90114900  0.86079400  1
  O  O78  1  0.39952150  0.64253350  0.87129350  1
  O  O79  1  0.60047850  0.85746650  0.87129350  1
