# generated using pymatgen
data_Sb2(SO4)3
_symmetry_space_group_name_H-M   'P 1'
_cell_length_a   8.90086992
_cell_length_b   8.90086992
_cell_length_c   24.31936267
_cell_angle_alpha   90.00000000
_cell_angle_beta   90.00000000
_cell_angle_gamma   120.00000000
_symmetry_Int_Tables_number   1
_chemical_formula_structural   Sb2(SO4)3
_chemical_formula_sum   'Sb12 S18 O72'
_cell_volume   1668.58267423
_cell_formula_units_Z   6
loop_
 _symmetry_equiv_pos_site_id
 _symmetry_equiv_pos_as_xyz
  1  'x, y, z'
loop_
 _atom_site_type_symbol
 _atom_site_label
 _atom_site_symmetry_multiplicity
 _atom_site_fract_x
 _atom_site_fract_y
 _atom_site_fract_z
 _atom_site_occupancy
  Sb  Sb0  1  0.66666667  0.33333333  0.19051533  1
  Sb  Sb1  1  0.33333333  0.66666667  0.31905267  1
  Sb  Sb2  1  0.33333333  0.66666667  0.01428067  1
  Sb  Sb3  1  0.00000000  0.00000000  0.14281800  1
  Sb  Sb4  1  0.33333333  0.66666667  0.52384867  1
  Sb  Sb5  1  0.00000000  0.00000000  0.65238600  1
  Sb  Sb6  1  0.00000000  0.00000000  0.34761400  1
  Sb  Sb7  1  0.66666667  0.33333333  0.47615133  1
  Sb  Sb8  1  0.00000000  0.00000000  0.85718200  1
  Sb  Sb9  1  0.66666667  0.33333333  0.98571933  1
  Sb  Sb10  1  0.66666667  0.33333333  0.68094733  1
  Sb  Sb11  1  0.33333333  0.66666667  0.80948467  1
  S  S12  1  0.29321633  0.00185467  0.25084267  1
  S  S13  1  0.66852133  0.04197167  0.08249067  1
  S  S14  1  0.95802833  0.62654967  0.08249067  1
  S  S15  1  0.70863833  0.70678367  0.25084267  1
  S  S16  1  0.99814533  0.29136167  0.25084267  1
  S  S17  1  0.37345033  0.33147867  0.08249067  1
  S  S18  1  0.95988300  0.33518800  0.58417600  1
  S  S19  1  0.33518800  0.37530500  0.41582400  1
  S  S20  1  0.62469500  0.95988300  0.41582400  1
  S  S21  1  0.37530500  0.04011700  0.58417600  1
  S  S22  1  0.66481200  0.62469500  0.58417600  1
  S  S23  1  0.04011700  0.66481200  0.41582400  1
  S  S24  1  0.62654967  0.66852133  0.91750933  1
  S  S25  1  0.00185467  0.70863833  0.74915733  1
  S  S26  1  0.29136167  0.29321633  0.74915733  1
  S  S27  1  0.04197167  0.37345033  0.91750933  1
  S  S28  1  0.33147867  0.95802833  0.91750933  1
  S  S29  1  0.70678367  0.99814533  0.74915733  1
  O  O30  1  0.81908833  0.57162467  0.03966567  1
  O  O31  1  0.42837533  0.24746367  0.03966567  1
  O  O32  1  0.21320833  0.99879967  0.19664867  1
  O  O33  1  0.48692633  0.10565467  0.24592967  1
  O  O34  1  0.75253633  0.18091167  0.03966567  1
  O  O35  1  0.04793833  0.82025967  0.08740367  1
  O  O36  1  0.66546633  0.11892467  0.13668467  1
  O  O37  1  0.23902433  0.82052567  0.26689667  1
  O  O38  1  0.48719233  0.91483467  0.06643667  1
  O  O39  1  0.88107533  0.54654167  0.13668467  1
  O  O40  1  0.77232133  0.95206167  0.08740367  1
  O  O41  1  0.08516533  0.57235767  0.06643667  1
  O  O42  1  0.58150133  0.76097567  0.26689667  1
  O  O43  1  0.89434533  0.38127167  0.24592967  1
  O  O44  1  0.78559133  0.78679167  0.19664867  1
  O  O45  1  0.17947433  0.41849867  0.26689667  1
  O  O46  1  0.42764233  0.51280767  0.06643667  1
  O  O47  1  0.00120033  0.21440867  0.19664867  1
  O  O48  1  0.61872833  0.51307367  0.24592967  1
  O  O49  1  0.91413033  0.15242167  0.29366767  1
  O  O50  1  0.17974033  0.22767867  0.08740367  1
  O  O51  1  0.45345833  0.33453367  0.13668467  1
  O  O52  1  0.23829133  0.08586967  0.29366767  1
  O  O53  1  0.84757833  0.76170867  0.29366767  1
  O  O54  1  0.48575500  0.90495800  0.37299900  1
  O  O55  1  0.09504200  0.58079700  0.37299900  1
  O  O56  1  0.87987500  0.33213300  0.52998200  1
  O  O57  1  0.15359300  0.43898800  0.57926300  1
  O  O58  1  0.41920300  0.51424500  0.37299900  1
  O  O59  1  0.71460500  0.15359300  0.42073700  1
  O  O60  1  0.33213300  0.45225800  0.47001800  1
  O  O61  1  0.90569100  0.15385900  0.60023000  1
  O  O62  1  0.15385900  0.24816800  0.39977000  1
  O  O63  1  0.54774200  0.87987500  0.47001800  1
  O  O64  1  0.43898800  0.28539500  0.42073700  1
  O  O65  1  0.75183200  0.90569100  0.39977000  1
  O  O66  1  0.24816800  0.09430900  0.60023000  1
  O  O67  1  0.56101200  0.71460500  0.57926300  1
  O  O68  1  0.45225800  0.12012500  0.52998200  1
  O  O69  1  0.84614100  0.75183200  0.60023000  1
  O  O70  1  0.09430900  0.84614100  0.39977000  1
  O  O71  1  0.66786700  0.54774200  0.52998200  1
  O  O72  1  0.28539500  0.84640700  0.57926300  1
  O  O73  1  0.58079700  0.48575500  0.62700100  1
  O  O74  1  0.84640700  0.56101200  0.42073700  1
  O  O75  1  0.12012500  0.66786700  0.47001800  1
  O  O76  1  0.90495800  0.41920300  0.62700100  1
  O  O77  1  0.51424500  0.09504200  0.62700100  1
  O  O78  1  0.15242167  0.23829133  0.70633233  1
  O  O79  1  0.76170867  0.91413033  0.70633233  1
  O  O80  1  0.54654167  0.66546633  0.86331533  1
  O  O81  1  0.82025967  0.77232133  0.91259633  1
  O  O82  1  0.08586967  0.84757833  0.70633233  1
  O  O83  1  0.38127167  0.48692633  0.75407033  1
  O  O84  1  0.99879967  0.78559133  0.80335133  1
  O  O85  1  0.57235767  0.48719233  0.93356333  1
  O  O86  1  0.82052567  0.58150133  0.73310333  1
  O  O87  1  0.21440867  0.21320833  0.80335133  1
  O  O88  1  0.10565467  0.61872833  0.75407033  1
  O  O89  1  0.41849867  0.23902433  0.73310333  1
  O  O90  1  0.91483467  0.42764233  0.93356333  1
  O  O91  1  0.22767867  0.04793833  0.91259633  1
  O  O92  1  0.11892467  0.45345833  0.86331533  1
  O  O93  1  0.51280767  0.08516533  0.93356333  1
  O  O94  1  0.76097567  0.17947433  0.73310333  1
  O  O95  1  0.33453367  0.88107533  0.86331533  1
  O  O96  1  0.95206167  0.17974033  0.91259633  1
  O  O97  1  0.24746367  0.81908833  0.96033433  1
  O  O98  1  0.51307367  0.89434533  0.75407033  1
  O  O99  1  0.78679167  0.00120033  0.80335133  1
  O  O100  1  0.57162467  0.75253633  0.96033433  1
  O  O101  1  0.18091167  0.42837533  0.96033433  1
