# generated using pymatgen
data_Li2NiO2F
_symmetry_space_group_name_H-M   'P 1'
_cell_length_a   4.98872800
_cell_length_b   8.73501200
_cell_length_c   9.57649528
_cell_angle_alpha   90.00000000
_cell_angle_beta   99.28288417
_cell_angle_gamma   90.00000000
_symmetry_Int_Tables_number   1
_chemical_formula_structural   Li2NiO2F
_chemical_formula_sum   'Li16 Ni8 O16 F8'
_cell_volume   411.84596633
_cell_formula_units_Z   8
loop_
 _symmetry_equiv_pos_site_id
 _symmetry_equiv_pos_as_xyz
  1  'x, y, z'
loop_
 _atom_site_type_symbol
 _atom_site_label
 _atom_site_symmetry_multiplicity
 _atom_site_fract_x
 _atom_site_fract_y
 _atom_site_fract_z
 _atom_site_occupancy
  Li  Li0  1  0.74728800  0.91208200  0.75357700  1
  Li  Li1  1  0.74344250  0.74601050  0.24648000  1
  Li  Li2  1  0.50000000  0.59024900  0.00000000  1
  Li  Li3  1  0.25271200  0.91208200  0.24642300  1
  Li  Li4  1  0.25655750  0.74601050  0.75352000  1
  Li  Li5  1  0.25582750  0.59009050  0.24251400  1
  Li  Li6  1  0.00000000  0.74842100  0.00000000  1
  Li  Li7  1  0.74417250  0.59009050  0.75748600  1
  Li  Li8  1  0.24728800  0.41208200  0.75357700  1
  Li  Li9  1  0.24344250  0.24601050  0.24648000  1
  Li  Li10  1  0.00000000  0.09024900  0.00000000  1
  Li  Li11  1  0.75271200  0.41208200  0.24642300  1
  Li  Li12  1  0.75655750  0.24601050  0.75352000  1
  Li  Li13  1  0.75582750  0.09009050  0.24251400  1
  Li  Li14  1  0.50000000  0.24842100  0.00000000  1
  Li  Li15  1  0.24417250  0.09009050  0.75748600  1
  Ni  Ni16  1  0.50000000  0.75169500  0.50000000  1
  Ni  Ni17  1  0.50000000  0.90059000  0.00000000  1
  Ni  Ni18  1  0.00000000  0.92131800  0.50000000  1
  Ni  Ni19  1  0.00000000  0.58683900  0.50000000  1
  Ni  Ni20  1  0.00000000  0.25169500  0.50000000  1
  Ni  Ni21  1  0.00000000  0.40059000  0.00000000  1
  Ni  Ni22  1  0.50000000  0.42131800  0.50000000  1
  Ni  Ni23  1  0.50000000  0.08683900  0.50000000  1
  O  O24  1  0.64463050  0.93213250  0.39330700  1
  O  O25  1  0.61669150  0.75385650  0.87777600  1
  O  O26  1  0.34623900  0.58133800  0.61289600  1
  O  O27  1  0.35536950  0.93213250  0.60669300  1
  O  O28  1  0.38330850  0.75385650  0.12222400  1
  O  O29  1  0.11522350  0.74445850  0.38768900  1
  O  O30  1  0.88477650  0.74445850  0.61231100  1
  O  O31  1  0.65376100  0.58133800  0.38710400  1
  O  O32  1  0.14463050  0.43213250  0.39330700  1
  O  O33  1  0.11669150  0.25385650  0.87777600  1
  O  O34  1  0.84623900  0.08133800  0.61289600  1
  O  O35  1  0.85536950  0.43213250  0.60669300  1
  O  O36  1  0.88330850  0.25385650  0.12222400  1
  O  O37  1  0.61522350  0.24445850  0.38768900  1
  O  O38  1  0.38477650  0.24445850  0.61231100  1
  O  O39  1  0.15376100  0.08133800  0.38710400  1
  F  F40  1  0.87976650  0.91667750  0.12775800  1
  F  F41  1  0.11482500  0.57380500  0.87838700  1
  F  F42  1  0.12023350  0.91667750  0.87224200  1
  F  F43  1  0.88517500  0.57380500  0.12161300  1
  F  F44  1  0.37976650  0.41667750  0.12775800  1
  F  F45  1  0.61482500  0.07380500  0.87838700  1
  F  F46  1  0.62023350  0.41667750  0.87224200  1
  F  F47  1  0.38517500  0.07380500  0.12161300  1
