# generated using pymatgen
data_DyNbO4
_symmetry_space_group_name_H-M   'P 1'
_cell_length_a   13.61854600
_cell_length_b   4.02425400
_cell_length_c   7.24261904
_cell_angle_alpha   90.00000000
_cell_angle_beta   106.54117576
_cell_angle_gamma   90.00000000
_symmetry_Int_Tables_number   1
_chemical_formula_structural   DyNbO4
_chemical_formula_sum   'Dy4 Nb4 O16'
_cell_volume   380.50131396
_cell_formula_units_Z   4
loop_
 _symmetry_equiv_pos_site_id
 _symmetry_equiv_pos_as_xyz
  1  'x, y, z'
loop_
 _atom_site_type_symbol
 _atom_site_label
 _atom_site_symmetry_multiplicity
 _atom_site_fract_x
 _atom_site_fract_y
 _atom_site_fract_z
 _atom_site_occupancy
  Dy  Dy0  1  0.19379100  0.00000000  0.28871600  1
  Dy  Dy1  1  0.30620900  0.50000000  0.71128400  1
  Dy  Dy2  1  0.69379100  0.50000000  0.28871600  1
  Dy  Dy3  1  0.80620900  0.00000000  0.71128400  1
  Nb  Nb4  1  0.09719700  0.00000000  0.70814700  1
  Nb  Nb5  1  0.40280300  0.50000000  0.29185300  1
  Nb  Nb6  1  0.59719700  0.50000000  0.70814700  1
  Nb  Nb7  1  0.90280300  0.00000000  0.29185300  1
  O  O8  1  0.04720400  0.00000000  0.36876500  1
  O  O9  1  0.13167300  0.00000000  0.97312700  1
  O  O10  1  0.25740400  0.50000000  0.35976300  1
  O  O11  1  0.12394700  0.50000000  0.69459900  1
  O  O12  1  0.37605300  0.00000000  0.30540100  1
  O  O13  1  0.24259600  0.00000000  0.64023700  1
  O  O14  1  0.36832700  0.50000000  0.02687300  1
  O  O15  1  0.45279600  0.50000000  0.63123500  1
  O  O16  1  0.54720400  0.50000000  0.36876500  1
  O  O17  1  0.63167300  0.50000000  0.97312700  1
  O  O18  1  0.75740400  0.00000000  0.35976300  1
  O  O19  1  0.62394700  0.00000000  0.69459900  1
  O  O20  1  0.87605300  0.50000000  0.30540100  1
  O  O21  1  0.74259600  0.50000000  0.64023700  1
  O  O22  1  0.86832700  0.00000000  0.02687300  1
  O  O23  1  0.95279600  0.00000000  0.63123500  1
