# generated using pymatgen
data_Li4Mn2Co5O12
_symmetry_space_group_name_H-M   'P 1'
_cell_length_a   5.00743800
_cell_length_b   8.86290800
_cell_length_c   9.86533051
_cell_angle_alpha   90.00000000
_cell_angle_beta   101.00814236
_cell_angle_gamma   90.00000000
_symmetry_Int_Tables_number   1
_chemical_formula_structural   Li4Mn2Co5O12
_chemical_formula_sum   'Li8 Mn4 Co10 O24'
_cell_volume   429.77192034
_cell_formula_units_Z   2
loop_
 _symmetry_equiv_pos_site_id
 _symmetry_equiv_pos_as_xyz
  1  'x, y, z'
loop_
 _atom_site_type_symbol
 _atom_site_label
 _atom_site_symmetry_multiplicity
 _atom_site_fract_x
 _atom_site_fract_y
 _atom_site_fract_z
 _atom_site_occupancy
  Li  Li0  1  0.00124400  0.08721100  0.26053600  1
  Li  Li1  1  0.49334600  0.07527100  0.73848800  1
  Li  Li2  1  0.75840000  0.41970500  0.49545300  1
  Li  Li3  1  0.50772000  0.42476100  0.73716500  1
  Li  Li4  1  0.99875600  0.58721100  0.73946400  1
  Li  Li5  1  0.50665400  0.57527100  0.26151200  1
  Li  Li6  1  0.24160000  0.91970500  0.50454700  1
  Li  Li7  1  0.49228000  0.92476100  0.26283500  1
  Mn  Mn8  1  0.24912400  0.25316700  0.49723900  1
  Mn  Mn9  1  0.75151800  0.24988600  0.00172700  1
  Mn  Mn10  1  0.24848200  0.74988600  0.99827300  1
  Mn  Mn11  1  0.75087600  0.75316700  0.50276100  1
  Co  Co12  1  0.25670900  0.08039100  0.99661500  1
  Co  Co13  1  0.74970900  0.08091200  0.50243100  1
  Co  Co14  1  0.99505900  0.24989100  0.74133600  1
  Co  Co15  1  0.24546000  0.41771500  0.00116400  1
  Co  Co16  1  0.50718400  0.26337900  0.26076400  1
  Co  Co17  1  0.25029100  0.58091200  0.49756900  1
  Co  Co18  1  0.74329100  0.58039100  0.00338500  1
  Co  Co19  1  0.00494100  0.74989100  0.25866400  1
  Co  Co20  1  0.49281600  0.76337900  0.73923600  1
  Co  Co21  1  0.75454000  0.91771500  0.99883600  1
  O  O22  1  0.11487900  0.10166400  0.61000300  1
  O  O23  1  0.86968600  0.10014800  0.88782900  1
  O  O24  1  0.87390200  0.23231000  0.39060900  1
  O  O25  1  0.12138200  0.23529400  0.11339800  1
  O  O26  1  0.62877400  0.09901800  0.11894700  1
  O  O27  1  0.38515300  0.09690800  0.38684000  1
  O  O28  1  0.14532400  0.41180200  0.61277300  1
  O  O29  1  0.62027700  0.23596900  0.61411500  1
  O  O30  1  0.86006100  0.40573700  0.88372900  1
  O  O31  1  0.38329200  0.24405700  0.88346500  1
  O  O32  1  0.63299300  0.41171900  0.11074100  1
  O  O33  1  0.36963300  0.41127000  0.38878500  1
  O  O34  1  0.13031400  0.60014800  0.11217100  1
  O  O35  1  0.88512100  0.60166400  0.38999700  1
  O  O36  1  0.12609800  0.73231000  0.60939100  1
  O  O37  1  0.61484700  0.59690800  0.61316000  1
  O  O38  1  0.87861800  0.73529400  0.88660200  1
  O  O39  1  0.37122600  0.59901800  0.88105300  1
  O  O40  1  0.13993900  0.90573700  0.11627100  1
  O  O41  1  0.37972300  0.73596900  0.38588500  1
  O  O42  1  0.85467600  0.91180200  0.38722700  1
  O  O43  1  0.61670800  0.74405700  0.11653500  1
  O  O44  1  0.63036700  0.91127000  0.61121500  1
  O  O45  1  0.36700700  0.91171900  0.88925900  1
