# generated using pymatgen
data_Li4VF7
_symmetry_space_group_name_H-M   'P 1'
_cell_length_a   12.67152200
_cell_length_b   8.72751600
_cell_length_c   5.54265560
_cell_angle_alpha   90.00000000
_cell_angle_beta   102.69529736
_cell_angle_gamma   90.00000000
_symmetry_Int_Tables_number   1
_chemical_formula_structural   Li4VF7
_chemical_formula_sum   'Li16 V4 F28'
_cell_volume   597.98186559
_cell_formula_units_Z   4
loop_
 _symmetry_equiv_pos_site_id
 _symmetry_equiv_pos_as_xyz
  1  'x, y, z'
loop_
 _atom_site_type_symbol
 _atom_site_label
 _atom_site_symmetry_multiplicity
 _atom_site_fract_x
 _atom_site_fract_y
 _atom_site_fract_z
 _atom_site_occupancy
  Li  Li0  1  0.84401000  0.90091500  0.66515100  1
  Li  Li1  1  0.84401000  0.09908500  0.16515100  1
  Li  Li2  1  0.63394550  0.93962650  0.23580800  1
  Li  Li3  1  0.63394550  0.06037350  0.73580800  1
  Li  Li4  1  0.36605450  0.93962650  0.26419200  1
  Li  Li5  1  0.36605450  0.06037350  0.76419200  1
  Li  Li6  1  0.15599000  0.90091500  0.83484900  1
  Li  Li7  1  0.15599000  0.09908500  0.33484900  1
  Li  Li8  1  0.34401000  0.40091500  0.66515100  1
  Li  Li9  1  0.34401000  0.59908500  0.16515100  1
  Li  Li10  1  0.13394550  0.43962650  0.23580800  1
  Li  Li11  1  0.13394550  0.56037350  0.73580800  1
  Li  Li12  1  0.86605450  0.43962650  0.26419200  1
  Li  Li13  1  0.86605450  0.56037350  0.76419200  1
  Li  Li14  1  0.65599000  0.40091500  0.83484900  1
  Li  Li15  1  0.65599000  0.59908500  0.33484900  1
  V  V16  1  0.50000000  0.72899400  0.75000000  1
  V  V17  1  0.50000000  0.27100600  0.25000000  1
  V  V18  1  0.00000000  0.22899400  0.75000000  1
  V  V19  1  0.00000000  0.77100600  0.25000000  1
  F  F20  1  0.90039350  0.90462050  0.35585900  1
  F  F21  1  0.90039350  0.09537950  0.85585900  1
  F  F22  1  0.59228200  0.74210300  0.09300700  1
  F  F23  1  0.69764800  0.91813600  0.56608400  1
  F  F24  1  0.69764800  0.08186400  0.06608400  1
  F  F25  1  0.40771800  0.74210300  0.40699300  1
  F  F26  1  0.50000000  0.94726400  0.75000000  1
  F  F27  1  0.50000000  0.05273600  0.25000000  1
  F  F28  1  0.59228200  0.25789700  0.59300700  1
  F  F29  1  0.30235200  0.91813600  0.93391600  1
  F  F30  1  0.30235200  0.08186400  0.43391600  1
  F  F31  1  0.40771800  0.25789700  0.90699300  1
  F  F32  1  0.09960650  0.90462050  0.14414100  1
  F  F33  1  0.09960650  0.09537950  0.64414100  1
  F  F34  1  0.40039350  0.40462050  0.35585900  1
  F  F35  1  0.40039350  0.59537950  0.85585900  1
  F  F36  1  0.09228200  0.24210300  0.09300700  1
  F  F37  1  0.19764800  0.41813600  0.56608400  1
  F  F38  1  0.19764800  0.58186400  0.06608400  1
  F  F39  1  0.90771800  0.24210300  0.40699300  1
  F  F40  1  0.00000000  0.44726400  0.75000000  1
  F  F41  1  0.00000000  0.55273600  0.25000000  1
  F  F42  1  0.09228200  0.75789700  0.59300700  1
  F  F43  1  0.80235200  0.41813600  0.93391600  1
  F  F44  1  0.80235200  0.58186400  0.43391600  1
  F  F45  1  0.90771800  0.75789700  0.90699300  1
  F  F46  1  0.59960650  0.40462050  0.14414100  1
  F  F47  1  0.59960650  0.59537950  0.64414100  1
