# generated using pymatgen
data_HfSnO3
_symmetry_space_group_name_H-M   'P 1'
_cell_length_a   5.45012613
_cell_length_b   5.45012613
_cell_length_c   20.28003795
_cell_angle_alpha   90.00000000
_cell_angle_beta   90.00000000
_cell_angle_gamma   120.00000000
_symmetry_Int_Tables_number   1
_chemical_formula_structural   HfSnO3
_chemical_formula_sum   'Hf6 Sn6 O18'
_cell_volume   521.68998772
_cell_formula_units_Z   6
loop_
 _symmetry_equiv_pos_site_id
 _symmetry_equiv_pos_as_xyz
  1  'x, y, z'
loop_
 _atom_site_type_symbol
 _atom_site_label
 _atom_site_symmetry_multiplicity
 _atom_site_fract_x
 _atom_site_fract_y
 _atom_site_fract_z
 _atom_site_occupancy
  Hf  Hf0  1  0.66666667  0.33333333  0.00028533  1
  Hf  Hf1  1  0.00000000  0.00000000  0.33304800  1
  Hf  Hf2  1  0.33333333  0.66666667  0.33361867  1
  Hf  Hf3  1  0.66666667  0.33333333  0.66638133  1
  Hf  Hf4  1  0.00000000  0.00000000  0.66695200  1
  Hf  Hf5  1  0.33333333  0.66666667  0.99971467  1
  Sn  Sn6  1  0.66666667  0.33333333  0.22435233  1
  Sn  Sn7  1  0.00000000  0.00000000  0.10898100  1
  Sn  Sn8  1  0.33333333  0.66666667  0.55768567  1
  Sn  Sn9  1  0.66666667  0.33333333  0.44231433  1
  Sn  Sn10  1  0.00000000  0.00000000  0.89101900  1
  Sn  Sn11  1  0.33333333  0.66666667  0.77564767  1
  O  O12  1  0.01579233  0.33402967  0.27850067  1
  O  O13  1  0.66597033  0.68176267  0.27850067  1
  O  O14  1  0.34842933  0.34912567  0.05483267  1
  O  O15  1  0.31823733  0.98420767  0.27850067  1
  O  O16  1  0.00069633  0.65157067  0.05483267  1
  O  O17  1  0.65087433  0.99930367  0.05483267  1
  O  O18  1  0.68245900  0.66736300  0.61183400  1
  O  O19  1  0.33263700  0.01509600  0.61183400  1
  O  O20  1  0.01509600  0.68245900  0.38816600  1
  O  O21  1  0.98490400  0.31754100  0.61183400  1
  O  O22  1  0.66736300  0.98490400  0.38816600  1
  O  O23  1  0.31754100  0.33263700  0.38816600  1
  O  O24  1  0.34912567  0.00069633  0.94516733  1
  O  O25  1  0.99930367  0.34842933  0.94516733  1
  O  O26  1  0.68176267  0.01579233  0.72149933  1
  O  O27  1  0.65157067  0.65087433  0.94516733  1
  O  O28  1  0.33402967  0.31823733  0.72149933  1
  O  O29  1  0.98420767  0.66597033  0.72149933  1
