# generated using pymatgen
data_Li4V5Cr3O16
_symmetry_space_group_name_H-M   'P 1'
_cell_length_a   10.13125000
_cell_length_b   5.96487200
_cell_length_c   9.57075341
_cell_angle_alpha   90.00000000
_cell_angle_beta   90.89299571
_cell_angle_gamma   90.00000000
_symmetry_Int_Tables_number   1
_chemical_formula_structural   Li4V5Cr3O16
_chemical_formula_sum   'Li8 V10 Cr6 O32'
_cell_volume   578.30578591
_cell_formula_units_Z   2
loop_
 _symmetry_equiv_pos_site_id
 _symmetry_equiv_pos_as_xyz
  1  'x, y, z'
loop_
 _atom_site_type_symbol
 _atom_site_label
 _atom_site_symmetry_multiplicity
 _atom_site_fract_x
 _atom_site_fract_y
 _atom_site_fract_z
 _atom_site_occupancy
  Li  Li0  1  0.33250200  0.00000000  0.89609800  1
  Li  Li1  1  0.00051100  0.00000000  0.99798200  1
  Li  Li2  1  0.00131000  0.00000000  0.49378900  1
  Li  Li3  1  0.66530200  0.00000000  0.39153800  1
  Li  Li4  1  0.83250200  0.50000000  0.89609800  1
  Li  Li5  1  0.50051100  0.50000000  0.99798200  1
  Li  Li6  1  0.50131000  0.50000000  0.49378900  1
  Li  Li7  1  0.16530200  0.50000000  0.39153800  1
  V  V8  1  0.58693150  0.75194050  0.71513800  1
  V  V9  1  0.33694200  0.00000000  0.48591400  1
  V  V10  1  0.17360800  0.00000000  0.21734000  1
  V  V11  1  0.66548500  0.00000000  0.99238800  1
  V  V12  1  0.58693150  0.24805950  0.71513800  1
  V  V13  1  0.08693150  0.25194050  0.71513800  1
  V  V14  1  0.83694200  0.50000000  0.48591400  1
  V  V15  1  0.67360800  0.50000000  0.21734000  1
  V  V16  1  0.16548500  0.50000000  0.99238800  1
  V  V17  1  0.08693150  0.74805950  0.71513800  1
  Cr  Cr18  1  0.41624400  0.75752300  0.21246600  1
  Cr  Cr19  1  0.41624400  0.24247700  0.21246600  1
  Cr  Cr20  1  0.83071400  0.00000000  0.71346300  1
  Cr  Cr21  1  0.91624400  0.25752300  0.21246600  1
  Cr  Cr22  1  0.91624400  0.74247700  0.21246600  1
  Cr  Cr23  1  0.33071400  0.50000000  0.71346300  1
  O  O24  1  0.42576850  0.74751450  0.60402000  1
  O  O25  1  0.48086900  0.00000000  0.33653200  1
  O  O26  1  0.32338600  0.00000000  0.10329700  1
  O  O27  1  0.00546300  0.00000000  0.30589300  1
  O  O28  1  0.00313100  0.00000000  0.81271100  1
  O  O29  1  0.42576850  0.25248550  0.60402000  1
  O  O30  1  0.25695700  0.77963000  0.34007200  1
  O  O31  1  0.25695700  0.22037000  0.34007200  1
  O  O32  1  0.82702100  0.00000000  0.09099400  1
  O  O33  1  0.16649800  0.00000000  0.60772600  1
  O  O34  1  0.73644750  0.77647850  0.83946500  1
  O  O35  1  0.73644750  0.22352150  0.83946500  1
  O  O36  1  0.66056000  0.00000000  0.60367900  1
  O  O37  1  0.58307300  0.75162000  0.09540000  1
  O  O38  1  0.52167300  0.00000000  0.84423100  1
  O  O39  1  0.58307300  0.24838000  0.09540000  1
  O  O40  1  0.92576850  0.24751450  0.60402000  1
  O  O41  1  0.98086900  0.50000000  0.33653200  1
  O  O42  1  0.82338600  0.50000000  0.10329700  1
  O  O43  1  0.50546300  0.50000000  0.30589300  1
  O  O44  1  0.50313100  0.50000000  0.81271100  1
  O  O45  1  0.92576850  0.75248550  0.60402000  1
  O  O46  1  0.75695700  0.27963000  0.34007200  1
  O  O47  1  0.75695700  0.72037000  0.34007200  1
  O  O48  1  0.32702100  0.50000000  0.09099400  1
  O  O49  1  0.66649800  0.50000000  0.60772600  1
  O  O50  1  0.23644750  0.27647850  0.83946500  1
  O  O51  1  0.23644750  0.72352150  0.83946500  1
  O  O52  1  0.16056000  0.50000000  0.60367900  1
  O  O53  1  0.08307300  0.25162000  0.09540000  1
  O  O54  1  0.02167300  0.50000000  0.84423100  1
  O  O55  1  0.08307300  0.74838000  0.09540000  1
