# generated using pymatgen
data_Y11Tm5O24
_symmetry_space_group_name_H-M   'P 1'
_cell_length_a   9.19847100
_cell_length_b   9.19800990
_cell_length_c   9.19807416
_cell_angle_alpha   109.43128641
_cell_angle_beta   109.45670762
_cell_angle_gamma   109.46060153
_symmetry_Int_Tables_number   1
_chemical_formula_structural   Y11Tm5O24
_chemical_formula_sum   'Y11 Tm5 O24'
_cell_volume   599.56014915
_cell_formula_units_Z   1
loop_
 _symmetry_equiv_pos_site_id
 _symmetry_equiv_pos_as_xyz
  1  'x, y, z'
loop_
 _atom_site_type_symbol
 _atom_site_label
 _atom_site_symmetry_multiplicity
 _atom_site_fract_x
 _atom_site_fract_y
 _atom_site_fract_z
 _atom_site_occupancy
  Y  Y0  1  0.75026100  0.78230400  0.03256400  1
  Y  Y1  1  0.49758300  0.99949200  0.99938700  1
  Y  Y2  1  0.03409600  0.24952700  0.28185100  1
  Y  Y3  1  0.21830500  0.46732300  0.75134000  1
  Y  Y4  1  0.71818500  0.96788400  0.74918600  1
  Y  Y5  1  0.00159500  0.99997600  0.50124600  1
  Y  Y6  1  0.25046300  0.71923400  0.46698700  1
  Y  Y7  1  0.00050800  0.50132400  0.99982500  1
  Y  Y8  1  0.74865400  0.28202100  0.53250700  1
  Y  Y9  1  0.50028200  0.49920600  0.49858100  1
  Y  Y10  1  0.78024600  0.53202900  0.24950600  1
  Tm  Tm11  1  0.46583700  0.74975800  0.21607400  1
  Tm  Tm12  1  0.28335500  0.03274100  0.24906000  1
  Tm  Tm13  1  0.53190200  0.24956200  0.78246800  1
  Tm  Tm14  1  0.96809600  0.75125000  0.71865300  1
  Tm  Tm15  1  0.25049500  0.21631200  0.96695000  1
  O  O16  1  0.27318800  0.51209700  0.54304600  1
  O  O17  1  0.46800200  0.72958500  0.95988200  1
  O  O18  1  0.72677100  0.76172900  0.27218600  1
  O  O19  1  0.22587800  0.95731600  0.96847100  1
  O  O20  1  0.01201800  0.54606100  0.77204300  1
  O  O21  1  0.51108000  0.73970000  0.46517500  1
  O  O22  1  0.23015200  0.77324300  0.23783100  1
  O  O23  1  0.03492400  0.98776300  0.26061700  1
  O  O24  1  0.74244200  0.72858000  0.77022300  1
  O  O25  1  0.95749200  0.22753500  0.48879900  1
  O  O26  1  0.24241100  0.46821900  0.01432700  1
  O  O27  1  0.45770900  0.97189000  0.72888500  1
  O  O28  1  0.75614200  0.52762800  0.98539500  1
  O  O29  1  0.04171600  0.77087800  0.51422100  1
  O  O30  1  0.53916500  0.02892300  0.27027500  1
  O  O31  1  0.26231100  0.26909300  0.22646500  1
  O  O32  1  0.77046000  0.23033200  0.76149500  1
  O  O33  1  0.97248700  0.01266500  0.74301600  1
  O  O34  1  0.98903600  0.45819200  0.22823800  1
  O  O35  1  0.48462100  0.25634800  0.53063400  1
  O  O36  1  0.27363500  0.23894000  0.73105400  1
  O  O37  1  0.77033500  0.04246500  0.03145300  1
  O  O38  1  0.73013800  0.49074200  0.45984700  1
  O  O39  1  0.52802300  0.27013100  0.04023900  1
