# generated using pymatgen
data_Hf3N4
_symmetry_space_group_name_H-M   'P 1'
_cell_length_a   3.40918975
_cell_length_b   3.40918975
_cell_length_c   25.23477736
_cell_angle_alpha   90.00000000
_cell_angle_beta   90.00000000
_cell_angle_gamma   120.00000000
_symmetry_Int_Tables_number   1
_chemical_formula_structural   Hf3N4
_chemical_formula_sum   'Hf9 N12'
_cell_volume   253.99926292
_cell_formula_units_Z   3
loop_
 _symmetry_equiv_pos_site_id
 _symmetry_equiv_pos_as_xyz
  1  'x, y, z'
loop_
 _atom_site_type_symbol
 _atom_site_label
 _atom_site_symmetry_multiplicity
 _atom_site_fract_x
 _atom_site_fract_y
 _atom_site_fract_z
 _atom_site_occupancy
  Hf  Hf0  1  0.00000000  0.00000000  0.22199100  1
  Hf  Hf1  1  0.66666667  0.33333333  0.11134233  1
  Hf  Hf2  1  0.00000000  0.00000000  0.00000000  1
  Hf  Hf3  1  0.66666667  0.33333333  0.55532433  1
  Hf  Hf4  1  0.33333333  0.66666667  0.44467567  1
  Hf  Hf5  1  0.66666667  0.33333333  0.33333333  1
  Hf  Hf6  1  0.33333333  0.66666667  0.88865767  1
  Hf  Hf7  1  0.00000000  0.00000000  0.77800900  1
  Hf  Hf8  1  0.33333333  0.66666667  0.66666667  1
  N  N9  1  0.33333333  0.66666667  0.28855167  1
  N  N10  1  0.66666667  0.33333333  0.20107033  1
  N  N11  1  0.00000000  0.00000000  0.13226300  1
  N  N12  1  0.33333333  0.66666667  0.04478167  1
  N  N13  1  0.00000000  0.00000000  0.62188500  1
  N  N14  1  0.33333333  0.66666667  0.53440367  1
  N  N15  1  0.66666667  0.33333333  0.46559633  1
  N  N16  1  0.00000000  0.00000000  0.37811500  1
  N  N17  1  0.66666667  0.33333333  0.95521833  1
  N  N18  1  0.00000000  0.00000000  0.86773700  1
  N  N19  1  0.33333333  0.66666667  0.79892967  1
  N  N20  1  0.66666667  0.33333333  0.71144833  1
