# generated using pymatgen
data_BaLu2O4
_symmetry_space_group_name_H-M   'P 1'
_cell_length_a   3.39558500
_cell_length_b   10.34690300
_cell_length_c   11.95993400
_cell_angle_alpha   90.00000000
_cell_angle_beta   90.00000000
_cell_angle_gamma   90.00000000
_symmetry_Int_Tables_number   1
_chemical_formula_structural   BaLu2O4
_chemical_formula_sum   'Ba4 Lu8 O16'
_cell_volume   420.19779310
_cell_formula_units_Z   4
loop_
 _symmetry_equiv_pos_site_id
 _symmetry_equiv_pos_as_xyz
  1  'x, y, z'
loop_
 _atom_site_type_symbol
 _atom_site_label
 _atom_site_symmetry_multiplicity
 _atom_site_fract_x
 _atom_site_fract_y
 _atom_site_fract_z
 _atom_site_occupancy
  Ba  Ba0  1  0.75000000  0.74787200  0.85136000  1
  Ba  Ba1  1  0.25000000  0.75212800  0.35136000  1
  Ba  Ba2  1  0.75000000  0.24787200  0.64864000  1
  Ba  Ba3  1  0.25000000  0.25212800  0.14864000  1
  Lu  Lu4  1  0.75000000  0.57609000  0.10842800  1
  Lu  Lu5  1  0.75000000  0.57361500  0.61042600  1
  Lu  Lu6  1  0.25000000  0.92638500  0.11042600  1
  Lu  Lu7  1  0.25000000  0.92391000  0.60842800  1
  Lu  Lu8  1  0.75000000  0.07609000  0.39157200  1
  Lu  Lu9  1  0.75000000  0.07361500  0.88957400  1
  Lu  Lu10  1  0.25000000  0.42638500  0.38957400  1
  Lu  Lu11  1  0.25000000  0.42391000  0.89157200  1
  O  O12  1  0.25000000  0.51622900  0.21737600  1
  O  O13  1  0.75000000  0.56669700  0.42625800  1
  O  O14  1  0.25000000  0.61242200  0.98446700  1
  O  O15  1  0.25000000  0.71114100  0.65429400  1
  O  O16  1  0.75000000  0.78885900  0.15429400  1
  O  O17  1  0.75000000  0.88757800  0.48446700  1
  O  O18  1  0.25000000  0.93330300  0.92625800  1
  O  O19  1  0.75000000  0.98377100  0.71737600  1
  O  O20  1  0.25000000  0.01622900  0.28262400  1
  O  O21  1  0.75000000  0.06669700  0.07374200  1
  O  O22  1  0.25000000  0.11242200  0.51553300  1
  O  O23  1  0.25000000  0.21114100  0.84570600  1
  O  O24  1  0.75000000  0.28885900  0.34570600  1
  O  O25  1  0.75000000  0.38757800  0.01553300  1
  O  O26  1  0.25000000  0.43330300  0.57374200  1
  O  O27  1  0.75000000  0.48377100  0.78262400  1
