# generated using pymatgen
data_BaYBr5
_symmetry_space_group_name_H-M   'P 1'
_cell_length_a   12.91324300
_cell_length_b   10.79210900
_cell_length_c   18.96767198
_cell_angle_alpha   90.00000000
_cell_angle_beta   128.98065063
_cell_angle_gamma   90.00000000
_symmetry_Int_Tables_number   1
_chemical_formula_structural   BaYBr5
_chemical_formula_sum   'Ba8 Y8 Br40'
_cell_volume   2054.83520730
_cell_formula_units_Z   8
loop_
 _symmetry_equiv_pos_site_id
 _symmetry_equiv_pos_as_xyz
  1  'x, y, z'
loop_
 _atom_site_type_symbol
 _atom_site_label
 _atom_site_symmetry_multiplicity
 _atom_site_fract_x
 _atom_site_fract_y
 _atom_site_fract_z
 _atom_site_occupancy
  Ba  Ba0  1  0.33224400  0.28266100  0.14249200  1
  Ba  Ba1  1  0.79157900  0.27011400  0.54351200  1
  Ba  Ba2  1  0.66775600  0.78266100  0.35750800  1
  Ba  Ba3  1  0.20842100  0.77011400  0.95648800  1
  Ba  Ba4  1  0.79157900  0.22988600  0.04351200  1
  Ba  Ba5  1  0.33224400  0.21733900  0.64249200  1
  Ba  Ba6  1  0.20842100  0.72988600  0.45648800  1
  Ba  Ba7  1  0.66775600  0.71733900  0.85750800  1
  Y  Y8  1  0.20732500  0.80491500  0.19003400  1
  Y  Y9  1  0.78535400  0.77962000  0.65985800  1
  Y  Y10  1  0.21464600  0.27962000  0.84014200  1
  Y  Y11  1  0.79267500  0.30491500  0.30996600  1
  Y  Y12  1  0.20732500  0.69508500  0.69003400  1
  Y  Y13  1  0.78535400  0.72038000  0.15985800  1
  Y  Y14  1  0.21464600  0.22038000  0.34014200  1
  Y  Y15  1  0.79267500  0.19508500  0.80996600  1
  Br  Br16  1  0.41254200  0.76978200  0.37133300  1
  Br  Br17  1  0.00835700  0.18487000  0.99485300  1
  Br  Br18  1  0.44685700  0.22042500  0.36229600  1
  Br  Br19  1  0.28690400  0.60082600  0.14520900  1
  Br  Br20  1  0.90045900  0.63662200  0.81390900  1
  Br  Br21  1  0.88922300  0.97641200  0.79085500  1
  Br  Br22  1  0.36766500  0.94807500  0.16942700  1
  Br  Br23  1  0.73089800  0.59029800  0.54363700  1
  Br  Br24  1  0.72512300  0.95805500  0.53181000  1
  Br  Br25  1  0.94050000  0.31805800  0.76783100  1
  Br  Br26  1  0.63233500  0.44807500  0.33057300  1
  Br  Br27  1  0.05950000  0.81805800  0.73216900  1
  Br  Br28  1  0.27487700  0.45805500  0.96819000  1
  Br  Br29  1  0.26910200  0.09029800  0.95636300  1
  Br  Br30  1  0.71309600  0.10082600  0.35479100  1
  Br  Br31  1  0.55314300  0.72042500  0.13770400  1
  Br  Br32  1  0.11077700  0.47641200  0.70914500  1
  Br  Br33  1  0.09954100  0.13662200  0.68609100  1
  Br  Br34  1  0.58745800  0.26978200  0.12866700  1
  Br  Br35  1  0.99164300  0.68487000  0.50514700  1
  Br  Br36  1  0.00835700  0.31513000  0.49485300  1
  Br  Br37  1  0.41254200  0.73021800  0.87133300  1
  Br  Br38  1  0.90045900  0.86337800  0.31390900  1
  Br  Br39  1  0.88922300  0.52358800  0.29085500  1
  Br  Br40  1  0.44685700  0.27957500  0.86229600  1
  Br  Br41  1  0.28690400  0.89917400  0.64520900  1
  Br  Br42  1  0.73089800  0.90970200  0.04363700  1
  Br  Br43  1  0.72512300  0.54194500  0.03181000  1
  Br  Br44  1  0.94050000  0.18194200  0.26783100  1
  Br  Br45  1  0.36766500  0.55192500  0.66942700  1
  Br  Br46  1  0.05950000  0.68194200  0.23216900  1
  Br  Br47  1  0.27487700  0.04194500  0.46819000  1
  Br  Br48  1  0.26910200  0.40970200  0.45636300  1
  Br  Br49  1  0.63233500  0.05192500  0.83057300  1
  Br  Br50  1  0.11077700  0.02358800  0.20914500  1
  Br  Br51  1  0.09954100  0.36337800  0.18609100  1
  Br  Br52  1  0.71309600  0.39917400  0.85479100  1
  Br  Br53  1  0.55314300  0.77957500  0.63770400  1
  Br  Br54  1  0.99164300  0.81513000  0.00514700  1
  Br  Br55  1  0.58745800  0.23021800  0.62866700  1
