# generated using pymatgen
data_Li2P2H2O7
_symmetry_space_group_name_H-M   'P 1'
_cell_length_a   15.96031462
_cell_length_b   15.96031462
_cell_length_c   12.67148545
_cell_angle_alpha   90.00000000
_cell_angle_beta   90.00000000
_cell_angle_gamma   120.00000000
_symmetry_Int_Tables_number   1
_chemical_formula_structural   Li2P2H2O7
_chemical_formula_sum   'Li36 P36 H36 O126'
_cell_volume   2795.38130864
_cell_formula_units_Z   18
loop_
 _symmetry_equiv_pos_site_id
 _symmetry_equiv_pos_as_xyz
  1  'x, y, z'
loop_
 _atom_site_type_symbol
 _atom_site_label
 _atom_site_symmetry_multiplicity
 _atom_site_fract_x
 _atom_site_fract_y
 _atom_site_fract_z
 _atom_site_occupancy
  Li  Li0  1  0.30746100  0.30746100  0.50000000  1
  Li  Li1  1  0.69253900  0.00000000  0.50000000  1
  Li  Li2  1  0.00000000  0.69253900  0.50000000  1
  Li  Li3  1  0.30746100  0.00000000  0.50000000  1
  Li  Li4  1  0.00000000  0.30746100  0.50000000  1
  Li  Li5  1  0.69253900  0.69253900  0.50000000  1
  Li  Li6  1  0.37217333  0.18608667  0.42572667  1
  Li  Li7  1  0.81391333  0.18608667  0.42572667  1
  Li  Li8  1  0.81391333  0.62782667  0.42572667  1
  Li  Li9  1  0.62782667  0.81391333  0.57427333  1
  Li  Li10  1  0.18608667  0.81391333  0.57427333  1
  Li  Li11  1  0.18608667  0.37217333  0.57427333  1
  Li  Li12  1  0.97412767  0.64079433  0.83333333  1
  Li  Li13  1  0.35920567  0.33333333  0.83333333  1
  Li  Li14  1  0.66666667  0.02587233  0.83333333  1
  Li  Li15  1  0.97412767  0.33333333  0.83333333  1
  Li  Li16  1  0.66666667  0.64079433  0.83333333  1
  Li  Li17  1  0.35920567  0.02587233  0.83333333  1
  Li  Li18  1  0.03884000  0.51942000  0.75906000  1
  Li  Li19  1  0.48058000  0.51942000  0.75906000  1
  Li  Li20  1  0.48058000  0.96116000  0.75906000  1
  Li  Li21  1  0.29449333  0.14724667  0.90760667  1
  Li  Li22  1  0.85275333  0.14724667  0.90760667  1
  Li  Li23  1  0.85275333  0.70550667  0.90760667  1
  Li  Li24  1  0.64079433  0.97412767  0.16666667  1
  Li  Li25  1  0.02587233  0.66666667  0.16666667  1
  Li  Li26  1  0.33333333  0.35920567  0.16666667  1
  Li  Li27  1  0.64079433  0.66666667  0.16666667  1
  Li  Li28  1  0.33333333  0.97412767  0.16666667  1
  Li  Li29  1  0.02587233  0.35920567  0.16666667  1
  Li  Li30  1  0.70550667  0.85275333  0.09239333  1
  Li  Li31  1  0.14724667  0.85275333  0.09239333  1
  Li  Li32  1  0.14724667  0.29449333  0.09239333  1
  Li  Li33  1  0.96116000  0.48058000  0.24094000  1
  Li  Li34  1  0.51942000  0.48058000  0.24094000  1
  Li  Li35  1  0.51942000  0.03884000  0.24094000  1
  P  P36  1  0.81370967  0.81315633  0.29728033  1
  P  P37  1  0.18684367  0.00055333  0.29728033  1
  P  P38  1  0.99944667  0.18629033  0.29728033  1
  P  P39  1  0.81370967  0.00055333  0.29728033  1
  P  P40  1  0.99944667  0.81315633  0.29728033  1
  P  P41  1  0.18684367  0.18629033  0.29728033  1
  P  P42  1  0.18629033  0.18684367  0.70271967  1
  P  P43  1  0.81315633  0.99944667  0.70271967  1
  P  P44  1  0.00055333  0.81370967  0.70271967  1
  P  P45  1  0.18629033  0.99944667  0.70271967  1
  P  P46  1  0.00055333  0.18684367  0.70271967  1
  P  P47  1  0.81315633  0.81370967  0.70271967  1
  P  P48  1  0.48037633  0.14648967  0.63061367  1
  P  P49  1  0.85351033  0.33388667  0.63061367  1
  P  P50  1  0.66611333  0.51962367  0.63061367  1
  P  P51  1  0.48037633  0.33388667  0.63061367  1
  P  P52  1  0.66611333  0.14648967  0.63061367  1
  P  P53  1  0.85351033  0.51962367  0.63061367  1
  P  P54  1  0.85295700  0.52017700  0.03605300  1
  P  P55  1  0.47982300  0.33278000  0.03605300  1
  P  P56  1  0.66722000  0.14704300  0.03605300  1
  P  P57  1  0.85295700  0.33278000  0.03605300  1
  P  P58  1  0.66722000  0.52017700  0.03605300  1
  P  P59  1  0.47982300  0.14704300  0.03605300  1
  P  P60  1  0.14704300  0.47982300  0.96394700  1
  P  P61  1  0.52017700  0.66722000  0.96394700  1
  P  P62  1  0.33278000  0.85295700  0.96394700  1
  P  P63  1  0.14704300  0.66722000  0.96394700  1
  P  P64  1  0.33278000  0.47982300  0.96394700  1
  P  P65  1  0.52017700  0.85295700  0.96394700  1
  P  P66  1  0.51962367  0.85351033  0.36938633  1
  P  P67  1  0.14648967  0.66611333  0.36938633  1
  P  P68  1  0.33388667  0.48037633  0.36938633  1
  P  P69  1  0.51962367  0.66611333  0.36938633  1
  P  P70  1  0.33388667  0.85351033  0.36938633  1
  P  P71  1  0.14648967  0.48037633  0.36938633  1
  H  H72  1  0.12406167  0.51378033  0.58892933  1
  H  H73  1  0.48621967  0.61028133  0.58892933  1
  H  H74  1  0.38971867  0.87593833  0.58892933  1
  H  H75  1  0.12406167  0.61028133  0.58892933  1
  H  H76  1  0.38971867  0.51378033  0.58892933  1
  H  H77  1  0.48621967  0.87593833  0.58892933  1
  H  H78  1  0.87593833  0.48621967  0.41107067  1
  H  H79  1  0.51378033  0.38971867  0.41107067  1
  H  H80  1  0.61028133  0.12406167  0.41107067  1
  H  H81  1  0.87593833  0.38971867  0.41107067  1
  H  H82  1  0.61028133  0.48621967  0.41107067  1
  H  H83  1  0.51378033  0.12406167  0.41107067  1
  H  H84  1  0.79072833  0.84711367  0.92226267  1
  H  H85  1  0.15288633  0.94361467  0.92226267  1
  H  H86  1  0.05638533  0.20927167  0.92226267  1
  H  H87  1  0.79072833  0.94361467  0.92226267  1
  H  H88  1  0.05638533  0.84711367  0.92226267  1
  H  H89  1  0.15288633  0.20927167  0.92226267  1
  H  H90  1  0.54260500  0.81955300  0.74440400  1
  H  H91  1  0.18044700  0.72305200  0.74440400  1
  H  H92  1  0.27694800  0.45739500  0.74440400  1
  H  H93  1  0.54260500  0.72305200  0.74440400  1
  H  H94  1  0.27694800  0.81955300  0.74440400  1
  H  H95  1  0.18044700  0.45739500  0.74440400  1
  H  H96  1  0.45739500  0.18044700  0.25559600  1
  H  H97  1  0.81955300  0.27694800  0.25559600  1
  H  H98  1  0.72305200  0.54260500  0.25559600  1
  H  H99  1  0.45739500  0.27694800  0.25559600  1
  H  H100  1  0.72305200  0.18044700  0.25559600  1
  H  H101  1  0.81955300  0.54260500  0.25559600  1
  H  H102  1  0.20927167  0.15288633  0.07773733  1
  H  H103  1  0.84711367  0.05638533  0.07773733  1
  H  H104  1  0.94361467  0.79072833  0.07773733  1
  H  H105  1  0.20927167  0.05638533  0.07773733  1
  H  H106  1  0.94361467  0.15288633  0.07773733  1
  H  H107  1  0.84711367  0.79072833  0.07773733  1
  O  O108  1  0.42885967  0.12130333  0.52575033  1
  O  O109  1  0.87869667  0.30755633  0.52575033  1
  O  O110  1  0.69244367  0.57114033  0.52575033  1
  O  O111  1  0.42885967  0.30755633  0.52575033  1
  O  O112  1  0.69244367  0.12130333  0.52575033  1
  O  O113  1  0.87869667  0.57114033  0.52575033  1
  O  O114  1  0.57114033  0.87869667  0.47424967  1
  O  O115  1  0.12130333  0.69244367  0.47424967  1
  O  O116  1  0.30755633  0.42885967  0.47424967  1
  O  O117  1  0.57114033  0.69244367  0.47424967  1
  O  O118  1  0.30755633  0.87869667  0.47424967  1
  O  O119  1  0.12130333  0.42885967  0.47424967  1
  O  O120  1  0.77834467  0.04174633  0.38072033  1
  O  O121  1  0.95825367  0.73659833  0.38072033  1
  O  O122  1  0.26340167  0.22165533  0.38072033  1
  O  O123  1  0.77834467  0.73659833  0.38072033  1
  O  O124  1  0.26340167  0.04174633  0.38072033  1
  O  O125  1  0.95825367  0.22165533  0.38072033  1
  O  O126  1  0.22165533  0.95825367  0.61927967  1
  O  O127  1  0.04174633  0.26340167  0.61927967  1
  O  O128  1  0.73659833  0.77834467  0.61927967  1
  O  O129  1  0.22165533  0.26340167  0.61927967  1
  O  O130  1  0.73659833  0.95825367  0.61927967  1
  O  O131  1  0.04174633  0.77834467  0.61927967  1
  O  O132  1  0.81483600  0.90741800  0.34659300  1
  O  O133  1  0.09258200  0.90741800  0.34659300  1
  O  O134  1  0.09258200  0.18516400  0.34659300  1
  O  O135  1  0.18516400  0.09258200  0.65340700  1
  O  O136  1  0.90741800  0.09258200  0.65340700  1
  O  O137  1  0.90741800  0.81483600  0.65340700  1
  O  O138  1  0.85606133  0.92803067  0.72458867  1
  O  O139  1  0.07196933  0.92803067  0.72458867  1
  O  O140  1  0.07196933  0.14393867  0.72458867  1
  O  O141  1  0.14393867  0.07196933  0.27541133  1
  O  O142  1  0.92803067  0.07196933  0.27541133  1
  O  O143  1  0.92803067  0.85606133  0.27541133  1
  O  O144  1  0.45649533  0.22824767  0.30347667  1
  O  O145  1  0.77175233  0.22824767  0.30347667  1
  O  O146  1  0.77175233  0.54350467  0.30347667  1
  O  O147  1  0.54350467  0.77175233  0.69652333  1
  O  O148  1  0.22824767  0.77175233  0.69652333  1
  O  O149  1  0.22824767  0.45649533  0.69652333  1
  O  O150  1  0.09552633  0.45463667  0.85908367  1
  O  O151  1  0.54536333  0.64088967  0.85908367  1
  O  O152  1  0.35911033  0.90447367  0.85908367  1
  O  O153  1  0.09552633  0.64088967  0.85908367  1
  O  O154  1  0.35911033  0.45463667  0.85908367  1
  O  O155  1  0.54536333  0.90447367  0.85908367  1
  O  O156  1  0.23780700  0.21203000  0.80758300  1
  O  O157  1  0.78797000  0.02577700  0.80758300  1
  O  O158  1  0.97422300  0.76219300  0.80758300  1
  O  O159  1  0.23780700  0.02577700  0.80758300  1
  O  O160  1  0.97422300  0.21203000  0.80758300  1
  O  O161  1  0.78797000  0.76219300  0.80758300  1
  O  O162  1  0.44501133  0.37507967  0.71405367  1
  O  O163  1  0.62492033  0.06993167  0.71405367  1
  O  O164  1  0.93006833  0.55498867  0.71405367  1
  O  O165  1  0.44501133  0.06993167  0.71405367  1
  O  O166  1  0.93006833  0.37507967  0.71405367  1
  O  O167  1  0.62492033  0.55498867  0.71405367  1
  O  O168  1  0.88832200  0.29158700  0.95261300  1
  O  O169  1  0.70841300  0.59673500  0.95261300  1
  O  O170  1  0.40326500  0.11167800  0.95261300  1
  O  O171  1  0.88832200  0.59673500  0.95261300  1
  O  O172  1  0.40326500  0.29158700  0.95261300  1
  O  O173  1  0.70841300  0.11167800  0.95261300  1
  O  O174  1  0.48150267  0.24075133  0.67992633  1
  O  O175  1  0.75924867  0.24075133  0.67992633  1
  O  O176  1  0.75924867  0.51849733  0.67992633  1
  O  O177  1  0.85183067  0.42591533  0.98674033  1
  O  O178  1  0.57408467  0.42591533  0.98674033  1
  O  O179  1  0.57408467  0.14816933  0.98674033  1
  O  O180  1  0.52272800  0.26136400  0.05792200  1
  O  O181  1  0.73863600  0.26136400  0.05792200  1
  O  O182  1  0.73863600  0.47727200  0.05792200  1
  O  O183  1  0.81060533  0.40530267  0.60874467  1
  O  O184  1  0.59469733  0.40530267  0.60874467  1
  O  O185  1  0.59469733  0.18939467  0.60874467  1
  O  O186  1  0.12316200  0.56158100  0.63681000  1
  O  O187  1  0.43841900  0.56158100  0.63681000  1
  O  O188  1  0.43841900  0.87683800  0.63681000  1
  O  O189  1  0.21017133  0.10508567  0.02985667  1
  O  O190  1  0.89491433  0.10508567  0.02985667  1
  O  O191  1  0.89491433  0.78982867  0.02985667  1
  O  O192  1  0.76219300  0.78797000  0.19241700  1
  O  O193  1  0.21203000  0.97422300  0.19241700  1
  O  O194  1  0.02577700  0.23780700  0.19241700  1
  O  O195  1  0.76219300  0.97422300  0.19241700  1
  O  O196  1  0.02577700  0.78797000  0.19241700  1
  O  O197  1  0.21203000  0.23780700  0.19241700  1
  O  O198  1  0.90447367  0.54536333  0.14091633  1
  O  O199  1  0.45463667  0.35911033  0.14091633  1
  O  O200  1  0.64088967  0.09552633  0.14091633  1
  O  O201  1  0.90447367  0.35911033  0.14091633  1
  O  O202  1  0.64088967  0.54536333  0.14091633  1
  O  O203  1  0.45463667  0.09552633  0.14091633  1
  O  O204  1  0.11167800  0.70841300  0.04738700  1
  O  O205  1  0.29158700  0.40326500  0.04738700  1
  O  O206  1  0.59673500  0.88832200  0.04738700  1
  O  O207  1  0.11167800  0.40326500  0.04738700  1
  O  O208  1  0.59673500  0.70841300  0.04738700  1
  O  O209  1  0.29158700  0.88832200  0.04738700  1
  O  O210  1  0.55498867  0.62492033  0.28594633  1
  O  O211  1  0.37507967  0.93006833  0.28594633  1
  O  O212  1  0.06993167  0.44501133  0.28594633  1
  O  O213  1  0.55498867  0.93006833  0.28594633  1
  O  O214  1  0.06993167  0.62492033  0.28594633  1
  O  O215  1  0.37507967  0.44501133  0.28594633  1
  O  O216  1  0.14816933  0.57408467  0.01325967  1
  O  O217  1  0.42591533  0.57408467  0.01325967  1
  O  O218  1  0.42591533  0.85183067  0.01325967  1
  O  O219  1  0.51849733  0.75924867  0.32007367  1
  O  O220  1  0.24075133  0.75924867  0.32007367  1
  O  O221  1  0.24075133  0.48150267  0.32007367  1
  O  O222  1  0.18939467  0.59469733  0.39125533  1
  O  O223  1  0.40530267  0.59469733  0.39125533  1
  O  O224  1  0.40530267  0.81060533  0.39125533  1
  O  O225  1  0.47727200  0.73863600  0.94207800  1
  O  O226  1  0.26136400  0.73863600  0.94207800  1
  O  O227  1  0.26136400  0.52272800  0.94207800  1
  O  O228  1  0.78982867  0.89491433  0.97014333  1
  O  O229  1  0.10508567  0.89491433  0.97014333  1
  O  O230  1  0.10508567  0.21017133  0.97014333  1
  O  O231  1  0.87683800  0.43841900  0.36319000  1
  O  O232  1  0.56158100  0.43841900  0.36319000  1
  O  O233  1  0.56158100  0.12316200  0.36319000  1
