# generated using pymatgen
data_LiSbWO6
_symmetry_space_group_name_H-M   'P 1'
_cell_length_a   7.20867000
_cell_length_b   7.42591000
_cell_length_c   10.34561800
_cell_angle_alpha   90.00000000
_cell_angle_beta   90.00000000
_cell_angle_gamma   90.00000000
_symmetry_Int_Tables_number   1
_chemical_formula_structural   LiSbWO6
_chemical_formula_sum   'Li4 Sb4 W4 O24'
_cell_volume   553.81060097
_cell_formula_units_Z   4
loop_
 _symmetry_equiv_pos_site_id
 _symmetry_equiv_pos_as_xyz
  1  'x, y, z'
loop_
 _atom_site_type_symbol
 _atom_site_label
 _atom_site_symmetry_multiplicity
 _atom_site_fract_x
 _atom_site_fract_y
 _atom_site_fract_z
 _atom_site_occupancy
  Li  Li0  1  0.00000000  0.00000000  0.50000000  1
  Li  Li1  1  0.50000000  0.00000000  0.00000000  1
  Li  Li2  1  0.50000000  0.50000000  0.00000000  1
  Li  Li3  1  0.00000000  0.50000000  0.50000000  1
  Sb  Sb4  1  0.75000000  0.75000000  0.25000000  1
  Sb  Sb5  1  0.25000000  0.75000000  0.25000000  1
  Sb  Sb6  1  0.25000000  0.25000000  0.75000000  1
  Sb  Sb7  1  0.75000000  0.25000000  0.75000000  1
  W  W8  1  0.50000000  0.00000000  0.50000000  1
  W  W9  1  0.00000000  0.00000000  0.00000000  1
  W  W10  1  0.00000000  0.50000000  0.00000000  1
  W  W11  1  0.50000000  0.50000000  0.50000000  1
  O  O12  1  0.69407100  0.94367500  0.37770800  1
  O  O13  1  0.00000000  0.25000000  0.66563400  1
  O  O14  1  0.00000000  0.75000000  0.33436600  1
  O  O15  1  0.30592900  0.05632500  0.62229200  1
  O  O16  1  0.69407100  0.05632500  0.62229200  1
  O  O17  1  0.80592900  0.94367500  0.12229200  1
  O  O18  1  0.19407100  0.05632500  0.87770800  1
  O  O19  1  0.30592900  0.94367500  0.37770800  1
  O  O20  1  0.50000000  0.25000000  0.44512900  1
  O  O21  1  0.19407100  0.94367500  0.12229200  1
  O  O22  1  0.80592900  0.05632500  0.87770800  1
  O  O23  1  0.50000000  0.75000000  0.55487100  1
  O  O24  1  0.19407100  0.44367500  0.87770800  1
  O  O25  1  0.50000000  0.75000000  0.16563400  1
  O  O26  1  0.50000000  0.25000000  0.83436600  1
  O  O27  1  0.80592900  0.55632500  0.12229200  1
  O  O28  1  0.19407100  0.55632500  0.12229200  1
  O  O29  1  0.30592900  0.44367500  0.62229200  1
  O  O30  1  0.69407100  0.55632500  0.37770800  1
  O  O31  1  0.80592900  0.44367500  0.87770800  1
  O  O32  1  0.00000000  0.75000000  0.94512900  1
  O  O33  1  0.69407100  0.44367500  0.62229200  1
  O  O34  1  0.30592900  0.55632500  0.37770800  1
  O  O35  1  0.00000000  0.25000000  0.05487100  1
