# generated using pymatgen
data_LiVFeO4
_symmetry_space_group_name_H-M   'P 1'
_cell_length_a   5.95309050
_cell_length_b   5.95309050
_cell_length_c   8.32078700
_cell_angle_alpha   90.00000000
_cell_angle_beta   90.00000000
_cell_angle_gamma   90.00000000
_symmetry_Int_Tables_number   1
_chemical_formula_structural   LiVFeO4
_chemical_formula_sum   'Li4 V4 Fe4 O16'
_cell_volume   294.88275451
_cell_formula_units_Z   4
loop_
 _symmetry_equiv_pos_site_id
 _symmetry_equiv_pos_as_xyz
  1  'x, y, z'
loop_
 _atom_site_type_symbol
 _atom_site_label
 _atom_site_symmetry_multiplicity
 _atom_site_fract_x
 _atom_site_fract_y
 _atom_site_fract_z
 _atom_site_occupancy
  Li  Li0  1  0.50000000  0.73322650  0.00000000  1
  Li  Li1  1  0.50000000  0.26677350  0.50000000  1
  Li  Li2  1  0.73322650  0.50000000  0.25000000  1
  Li  Li3  1  0.26677350  0.50000000  0.75000000  1
  V  V4  1  0.72922350  0.00000000  0.25000000  1
  V  V5  1  0.00000000  0.72922350  0.00000000  1
  V  V6  1  0.00000000  0.27077650  0.50000000  1
  V  V7  1  0.27077650  0.00000000  0.75000000  1
  Fe  Fe8  1  0.75653100  0.75653100  0.62500000  1
  Fe  Fe9  1  0.75653100  0.24346900  0.87500000  1
  Fe  Fe10  1  0.24346900  0.75653100  0.37500000  1
  Fe  Fe11  1  0.24346900  0.24346900  0.12500000  1
  O  O12  1  0.51719550  0.76886750  0.25877500  1
  O  O13  1  0.51719550  0.23113250  0.24122500  1
  O  O14  1  0.76886750  0.51719550  0.99122500  1
  O  O15  1  0.76886750  0.48280450  0.50877500  1
  O  O16  1  0.76809950  0.98606250  0.01559100  1
  O  O17  1  0.76809950  0.01393750  0.48440900  1
  O  O18  1  0.98606250  0.76809950  0.23440900  1
  O  O19  1  0.98606250  0.23190050  0.26559100  1
  O  O20  1  0.01393750  0.76809950  0.76559100  1
  O  O21  1  0.01393750  0.23190050  0.73440900  1
  O  O22  1  0.23190050  0.01393750  0.51559100  1
  O  O23  1  0.23190050  0.98606250  0.98440900  1
  O  O24  1  0.23113250  0.51719550  0.00877500  1
  O  O25  1  0.23113250  0.48280450  0.49122500  1
  O  O26  1  0.48280450  0.76886750  0.74122500  1
  O  O27  1  0.48280450  0.23113250  0.75877500  1
