# generated using pymatgen
data_Fe3(OF2)2
_symmetry_space_group_name_H-M   'P 1'
_cell_length_a   4.75776100
_cell_length_b   9.47782200
_cell_length_c   4.78914770
_cell_angle_alpha   90.00000000
_cell_angle_beta   91.18236961
_cell_angle_gamma   90.00000000
_symmetry_Int_Tables_number   1
_chemical_formula_structural   Fe3(OF2)2
_chemical_formula_sum   'Fe6 O4 F8'
_cell_volume   215.91207040
_cell_formula_units_Z   2
loop_
 _symmetry_equiv_pos_site_id
 _symmetry_equiv_pos_as_xyz
  1  'x, y, z'
loop_
 _atom_site_type_symbol
 _atom_site_label
 _atom_site_symmetry_multiplicity
 _atom_site_fract_x
 _atom_site_fract_y
 _atom_site_fract_z
 _atom_site_occupancy
  Fe  Fe0  1  0.02488000  0.82553100  0.98912700  1
  Fe  Fe1  1  0.02488000  0.17446900  0.98912700  1
  Fe  Fe2  1  0.01776100  0.50000000  0.03235500  1
  Fe  Fe3  1  0.47959100  0.00000000  0.52980000  1
  Fe  Fe4  1  0.46866100  0.67677800  0.49175200  1
  Fe  Fe5  1  0.46866100  0.32322200  0.49175200  1
  O  O6  1  0.19625700  0.34351100  0.20169600  1
  O  O7  1  0.19625700  0.65648900  0.20169600  1
  O  O8  1  0.31818800  0.83353000  0.68677600  1
  O  O9  1  0.31818800  0.16647000  0.68677600  1
  F  F10  1  0.21356800  0.00000000  0.20314000  1
  F  F11  1  0.30275600  0.50000000  0.69701500  1
  F  F12  1  0.69782400  0.83502500  0.30341100  1
  F  F13  1  0.69782400  0.16497500  0.30341100  1
  F  F14  1  0.68937400  0.50000000  0.31135200  1
  F  F15  1  0.80523200  0.00000000  0.79808400  1
  F  F16  1  0.79001200  0.64973600  0.79113600  1
  F  F17  1  0.79001200  0.35026400  0.79113600  1
