# generated using pymatgen
data_Na2Ge2O5
_symmetry_space_group_name_H-M   'P 1'
_cell_length_a   5.74550000
_cell_length_b   8.69492000
_cell_length_c   9.96398000
_cell_angle_alpha   90.00000000
_cell_angle_beta   90.00000000
_cell_angle_gamma   90.00000000
_symmetry_Int_Tables_number   1
_chemical_formula_structural   Na2Ge2O5
_chemical_formula_sum   'Na8 Ge8 O20'
_cell_volume   497.76718960
_cell_formula_units_Z   4
loop_
 _symmetry_equiv_pos_site_id
 _symmetry_equiv_pos_as_xyz
  1  'x, y, z'
loop_
 _atom_site_type_symbol
 _atom_site_label
 _atom_site_symmetry_multiplicity
 _atom_site_fract_x
 _atom_site_fract_y
 _atom_site_fract_z
 _atom_site_occupancy
  Na  Na0  1  0.93604300  0.02304400  0.49024600  1
  Na  Na1  1  0.93604300  0.52304400  0.00975400  1
  Na  Na2  1  0.90786900  0.75042400  0.74315600  1
  Na  Na3  1  0.90786900  0.25042400  0.75684400  1
  Na  Na4  1  0.09213100  0.25042400  0.25684400  1
  Na  Na5  1  0.09213100  0.75042400  0.24315600  1
  Na  Na6  1  0.06395700  0.52304400  0.50975400  1
  Na  Na7  1  0.06395700  0.02304400  0.99024600  1
  Ge  Ge8  1  0.63359500  0.94659200  0.20085000  1
  Ge  Ge9  1  0.63359500  0.44659200  0.29915000  1
  Ge  Ge10  1  0.54581700  0.75039500  0.46146400  1
  Ge  Ge11  1  0.54581700  0.25039500  0.03853600  1
  Ge  Ge12  1  0.45418300  0.75039500  0.96146400  1
  Ge  Ge13  1  0.45418300  0.25039500  0.53853600  1
  Ge  Ge14  1  0.36640500  0.94659200  0.70085000  1
  Ge  Ge15  1  0.36640500  0.44659200  0.79915000  1
  O  O16  1  0.91099700  0.50292700  0.25892400  1
  O  O17  1  0.91099700  0.00292700  0.24107600  1
  O  O18  1  0.83476600  0.25473600  0.99700000  1
  O  O19  1  0.83476600  0.75473600  0.50300000  1
  O  O20  1  0.66164300  0.77773800  0.09398100  1
  O  O21  1  0.66164300  0.27773800  0.40601900  1
  O  O22  1  0.56216400  0.57171800  0.89064800  1
  O  O23  1  0.56216400  0.07171800  0.60935200  1
  O  O24  1  0.55467700  0.88681500  0.83579400  1
  O  O25  1  0.55467700  0.38681500  0.66420600  1
  O  O26  1  0.44532300  0.88681500  0.33579400  1
  O  O27  1  0.44532300  0.38681500  0.16420600  1
  O  O28  1  0.43783600  0.57171800  0.39064800  1
  O  O29  1  0.43783600  0.07171800  0.10935200  1
  O  O30  1  0.33835700  0.27773800  0.90601900  1
  O  O31  1  0.33835700  0.77773800  0.59398100  1
  O  O32  1  0.16523400  0.25473600  0.49700000  1
  O  O33  1  0.16523400  0.75473600  0.00300000  1
  O  O34  1  0.08900300  0.50292700  0.75892400  1
  O  O35  1  0.08900300  0.00292700  0.74107600  1
