# generated using pymatgen
data_Li2Cr4O13
_symmetry_space_group_name_H-M   'P 1'
_cell_length_a   8.51344300
_cell_length_b   9.60754200
_cell_length_c   14.87174384
_cell_angle_alpha   90.00000000
_cell_angle_beta   102.69042540
_cell_angle_gamma   90.00000000
_symmetry_Int_Tables_number   1
_chemical_formula_structural   Li2Cr4O13
_chemical_formula_sum   'Li8 Cr16 O52'
_cell_volume   1186.69311310
_cell_formula_units_Z   4
loop_
 _symmetry_equiv_pos_site_id
 _symmetry_equiv_pos_as_xyz
  1  'x, y, z'
loop_
 _atom_site_type_symbol
 _atom_site_label
 _atom_site_symmetry_multiplicity
 _atom_site_fract_x
 _atom_site_fract_y
 _atom_site_fract_z
 _atom_site_occupancy
  Li  Li0  1  0.68945000  0.99926900  0.01715500  1
  Li  Li1  1  0.80920300  0.99873400  0.49317400  1
  Li  Li2  1  0.68945000  0.50073100  0.51715500  1
  Li  Li3  1  0.80920300  0.50126600  0.99317400  1
  Li  Li4  1  0.19079700  0.49873400  0.00682600  1
  Li  Li5  1  0.31055000  0.49926900  0.48284500  1
  Li  Li6  1  0.19079700  0.00126600  0.50682600  1
  Li  Li7  1  0.31055000  0.00073100  0.98284500  1
  Cr  Cr8  1  0.95887900  0.28910900  0.40852900  1
  Cr  Cr9  1  0.86231100  0.24136400  0.18108500  1
  Cr  Cr10  1  0.74968000  0.72317500  0.32423800  1
  Cr  Cr11  1  0.95887900  0.21089100  0.90852900  1
  Cr  Cr12  1  0.86231100  0.25863600  0.68108500  1
  Cr  Cr13  1  0.52994900  0.71493000  0.09546400  1
  Cr  Cr14  1  0.74968000  0.77682500  0.82423800  1
  Cr  Cr15  1  0.47005100  0.21493000  0.40453600  1
  Cr  Cr16  1  0.52994900  0.78507000  0.59546400  1
  Cr  Cr17  1  0.25032000  0.22317500  0.17576200  1
  Cr  Cr18  1  0.47005100  0.28507000  0.90453600  1
  Cr  Cr19  1  0.13768900  0.74136400  0.31891500  1
  Cr  Cr20  1  0.04112100  0.78910900  0.09147100  1
  Cr  Cr21  1  0.25032000  0.27682500  0.67576200  1
  Cr  Cr22  1  0.13768900  0.75863600  0.81891500  1
  Cr  Cr23  1  0.04112100  0.71089100  0.59147100  1
  O  O24  1  0.94470600  0.66822600  0.31321100  1
  O  O25  1  0.86932000  0.86099000  0.09267800  1
  O  O26  1  0.99148100  0.12980500  0.44907900  1
  O  O27  1  0.84111500  0.37695600  0.11654200  1
  O  O28  1  0.84095800  0.28802000  0.28963200  1
  O  O29  1  0.86749600  0.37995400  0.47331100  1
  O  O30  1  0.72605900  0.12855500  0.13948900  1
  O  O31  1  0.94470600  0.83177400  0.81321100  1
  O  O32  1  0.86932000  0.63901000  0.59267800  1
  O  O33  1  0.99148100  0.37019500  0.94907900  1
  O  O34  1  0.64517600  0.62274800  0.04574000  1
  O  O35  1  0.76572200  0.87686700  0.36765900  1
  O  O36  1  0.84111500  0.12304400  0.61654200  1
  O  O37  1  0.84095800  0.21198000  0.78963200  1
  O  O38  1  0.68864000  0.61801900  0.39304900  1
  O  O39  1  0.61803500  0.72217800  0.21928100  1
  O  O40  1  0.86749600  0.12004600  0.97331100  1
  O  O41  1  0.64508500  0.14140600  0.41954100  1
  O  O42  1  0.50797200  0.87312400  0.05218500  1
  O  O43  1  0.72605900  0.37144500  0.63948900  1
  O  O44  1  0.64517600  0.87725200  0.54574000  1
  O  O45  1  0.76572200  0.62313300  0.86765900  1
  O  O46  1  0.68864000  0.88198100  0.89304900  1
  O  O47  1  0.61803500  0.77782200  0.71928100  1
  O  O48  1  0.49202800  0.37312400  0.44781500  1
  O  O49  1  0.35491500  0.64140600  0.08045900  1
  O  O50  1  0.64508500  0.35859400  0.91954100  1
  O  O51  1  0.50797200  0.62687600  0.55218500  1
  O  O52  1  0.38196500  0.22217800  0.28071900  1
  O  O53  1  0.31136000  0.11801900  0.10695100  1
  O  O54  1  0.23427800  0.37686700  0.13234100  1
  O  O55  1  0.35482400  0.12274800  0.45426000  1
  O  O56  1  0.27394100  0.62855500  0.36051100  1
  O  O57  1  0.49202800  0.12687600  0.94781500  1
  O  O58  1  0.35491500  0.85859400  0.58045900  1
  O  O59  1  0.13250400  0.87995400  0.02668900  1
  O  O60  1  0.38196500  0.27782200  0.78071900  1
  O  O61  1  0.31136000  0.38198100  0.60695100  1
  O  O62  1  0.15904200  0.78802000  0.21036800  1
  O  O63  1  0.15888500  0.87695600  0.38345800  1
  O  O64  1  0.23427800  0.12313300  0.63234100  1
  O  O65  1  0.35482400  0.37725200  0.95426000  1
  O  O66  1  0.00851900  0.62980500  0.05092100  1
  O  O67  1  0.13068000  0.36099000  0.40732200  1
  O  O68  1  0.05529400  0.16822600  0.18678900  1
  O  O69  1  0.27394100  0.87144500  0.86051100  1
  O  O70  1  0.13250400  0.62004600  0.52668900  1
  O  O71  1  0.15904200  0.71198000  0.71036800  1
  O  O72  1  0.15888500  0.62304400  0.88345800  1
  O  O73  1  0.00851900  0.87019500  0.55092100  1
  O  O74  1  0.13068000  0.13901000  0.90732200  1
  O  O75  1  0.05529400  0.33177400  0.68678900  1
