# generated using pymatgen
data_Ho2Sb2O7
_symmetry_space_group_name_H-M   'P 1'
_cell_length_a   7.39969000
_cell_length_b   7.70627400
_cell_length_c   10.63844200
_cell_angle_alpha   90.00000000
_cell_angle_beta   90.00000000
_cell_angle_gamma   90.00000000
_symmetry_Int_Tables_number   1
_chemical_formula_structural   Ho2Sb2O7
_chemical_formula_sum   'Ho8 Sb8 O28'
_cell_volume   606.64692784
_cell_formula_units_Z   4
loop_
 _symmetry_equiv_pos_site_id
 _symmetry_equiv_pos_as_xyz
  1  'x, y, z'
loop_
 _atom_site_type_symbol
 _atom_site_label
 _atom_site_symmetry_multiplicity
 _atom_site_fract_x
 _atom_site_fract_y
 _atom_site_fract_z
 _atom_site_occupancy
  Ho  Ho0  1  0.00000000  0.00000000  0.00000000  1
  Ho  Ho1  1  0.75000000  0.75000000  0.25000000  1
  Ho  Ho2  1  0.00000000  0.00000000  0.50000000  1
  Ho  Ho3  1  0.75000000  0.25000000  0.25000000  1
  Ho  Ho4  1  0.50000000  0.50000000  0.50000000  1
  Ho  Ho5  1  0.25000000  0.25000000  0.75000000  1
  Ho  Ho6  1  0.50000000  0.50000000  0.00000000  1
  Ho  Ho7  1  0.25000000  0.75000000  0.75000000  1
  Sb  Sb8  1  0.25000000  0.75000000  0.25000000  1
  Sb  Sb9  1  0.50000000  0.00000000  0.00000000  1
  Sb  Sb10  1  0.25000000  0.25000000  0.25000000  1
  Sb  Sb11  1  0.50000000  0.00000000  0.50000000  1
  Sb  Sb12  1  0.75000000  0.25000000  0.75000000  1
  Sb  Sb13  1  0.00000000  0.50000000  0.50000000  1
  Sb  Sb14  1  0.75000000  0.75000000  0.75000000  1
  Sb  Sb15  1  0.00000000  0.50000000  0.00000000  1
  O  O16  1  0.45123800  0.75188800  0.37695300  1
  O  O17  1  0.75313450  0.00000000  0.11903050  1
  O  O18  1  0.95123800  0.74811200  0.62304700  1
  O  O19  1  0.04876200  0.74811200  0.37695300  1
  O  O20  1  0.45123800  0.24811200  0.37695300  1
  O  O21  1  0.75313450  0.00000000  0.38096950  1
  O  O22  1  0.78159400  0.00000000  0.75000000  1
  O  O23  1  0.21840600  0.00000000  0.25000000  1
  O  O24  1  0.24686550  0.00000000  0.61903050  1
  O  O25  1  0.04876200  0.25188800  0.37695300  1
  O  O26  1  0.95123800  0.25188800  0.62304700  1
  O  O27  1  0.54876200  0.75188800  0.62304700  1
  O  O28  1  0.24686550  0.00000000  0.88096950  1
  O  O29  1  0.54876200  0.24811200  0.62304700  1
  O  O30  1  0.95123800  0.25188800  0.87695300  1
  O  O31  1  0.25313450  0.50000000  0.61903050  1
  O  O32  1  0.45123800  0.24811200  0.12304700  1
  O  O33  1  0.54876200  0.24811200  0.87695300  1
  O  O34  1  0.95123800  0.74811200  0.87695300  1
  O  O35  1  0.25313450  0.50000000  0.88096950  1
  O  O36  1  0.28159400  0.50000000  0.25000000  1
  O  O37  1  0.71840600  0.50000000  0.75000000  1
  O  O38  1  0.74686550  0.50000000  0.11903050  1
  O  O39  1  0.54876200  0.75188800  0.87695300  1
  O  O40  1  0.45123800  0.75188800  0.12304700  1
  O  O41  1  0.04876200  0.25188800  0.12304700  1
  O  O42  1  0.74686550  0.50000000  0.38096950  1
  O  O43  1  0.04876200  0.74811200  0.12304700  1
