# generated using pymatgen
data_Li17V16O32
_symmetry_space_group_name_H-M   'P 1'
_cell_length_a   12.02990000
_cell_length_b   12.04663200
_cell_length_c   10.39933279
_cell_angle_alpha   90.00000000
_cell_angle_beta   125.08717933
_cell_angle_gamma   90.00000000
_symmetry_Int_Tables_number   1
_chemical_formula_structural   Li17V16O32
_chemical_formula_sum   'Li34 V32 O64'
_cell_volume   1233.20195449
_cell_formula_units_Z   2
loop_
 _symmetry_equiv_pos_site_id
 _symmetry_equiv_pos_as_xyz
  1  'x, y, z'
loop_
 _atom_site_type_symbol
 _atom_site_label
 _atom_site_symmetry_multiplicity
 _atom_site_fract_x
 _atom_site_fract_y
 _atom_site_fract_z
 _atom_site_occupancy
  Li  Li0  1  0.49370150  0.74586550  0.99531500  1
  Li  Li1  1  0.49370150  0.25413450  0.99531500  1
  Li  Li2  1  0.25244600  0.24579500  0.99384300  1
  Li  Li3  1  0.25244600  0.75420500  0.99384300  1
  Li  Li4  1  0.25006000  0.11890700  0.25168400  1
  Li  Li5  1  0.73462900  0.15688500  0.21434900  1
  Li  Li6  1  0.73462900  0.84311500  0.21434900  1
  Li  Li7  1  0.25006000  0.88109300  0.25168400  1
  Li  Li8  1  0.81325000  0.00000000  0.37514500  1
  Li  Li9  1  0.49494200  0.00000000  0.49964400  1
  Li  Li10  1  0.05012200  0.00000000  0.53239100  1
  Li  Li11  1  0.73402200  0.00000000  0.53557800  1
  Li  Li12  1  0.25244200  0.00000000  0.49593000  1
  Li  Li13  1  0.75122850  0.12659050  0.75678800  1
  Li  Li14  1  0.25501150  0.87100550  0.75379800  1
  Li  Li15  1  0.75122850  0.87340950  0.75678800  1
  Li  Li16  1  0.25501150  0.12899450  0.75379800  1
  Li  Li17  1  0.99370150  0.24586550  0.99531500  1
  Li  Li18  1  0.99370150  0.75413450  0.99531500  1
  Li  Li19  1  0.75244600  0.74579500  0.99384300  1
  Li  Li20  1  0.75244600  0.25420500  0.99384300  1
  Li  Li21  1  0.75006000  0.61890700  0.25168400  1
  Li  Li22  1  0.23462900  0.65688500  0.21434900  1
  Li  Li23  1  0.23462900  0.34311500  0.21434900  1
  Li  Li24  1  0.75006000  0.38109300  0.25168400  1
  Li  Li25  1  0.31325000  0.50000000  0.37514500  1
  Li  Li26  1  0.99494200  0.50000000  0.49964400  1
  Li  Li27  1  0.55012200  0.50000000  0.53239100  1
  Li  Li28  1  0.23402200  0.50000000  0.53557800  1
  Li  Li29  1  0.75244200  0.50000000  0.49593000  1
  Li  Li30  1  0.25122850  0.62659050  0.75678800  1
  Li  Li31  1  0.75501150  0.37100550  0.75379800  1
  Li  Li32  1  0.25122850  0.37340950  0.75678800  1
  Li  Li33  1  0.75501150  0.62899450  0.75379800  1
  V  V34  1  0.50168500  0.00000000  0.99991600  1
  V  V35  1  0.25063400  0.00000000  0.00089000  1
  V  V36  1  0.00295700  0.00000000  0.00630400  1
  V  V37  1  0.74886500  0.00000000  0.00043300  1
  V  V38  1  0.50165750  0.87573950  0.25028600  1
  V  V39  1  0.50056050  0.37394850  0.24689700  1
  V  V40  1  0.50056050  0.62605150  0.24689700  1
  V  V41  1  0.50165750  0.12426050  0.25028600  1
  V  V42  1  0.49951500  0.74836400  0.49849700  1
  V  V43  1  0.25260750  0.74785250  0.50172300  1
  V  V44  1  0.49951500  0.25163600  0.49849700  1
  V  V45  1  0.25260750  0.25214750  0.50172300  1
  V  V46  1  0.50039550  0.37528250  0.75094400  1
  V  V47  1  0.49869600  0.12492700  0.74767500  1
  V  V48  1  0.49869600  0.87507300  0.74767500  1
  V  V49  1  0.50039550  0.62471750  0.75094400  1
  V  V50  1  0.00168500  0.50000000  0.99991600  1
  V  V51  1  0.75063400  0.50000000  0.00089000  1
  V  V52  1  0.50295700  0.50000000  0.00630400  1
  V  V53  1  0.24886500  0.50000000  0.00043300  1
  V  V54  1  0.00165750  0.37573950  0.25028600  1
  V  V55  1  0.00056050  0.87394850  0.24689700  1
  V  V56  1  0.00056050  0.12605150  0.24689700  1
  V  V57  1  0.00165750  0.62426050  0.25028600  1
  V  V58  1  0.99951500  0.24836400  0.49849700  1
  V  V59  1  0.75260750  0.24785250  0.50172300  1
  V  V60  1  0.99951500  0.75163600  0.49849700  1
  V  V61  1  0.75260750  0.75214750  0.50172300  1
  V  V62  1  0.00039550  0.87528250  0.75094400  1
  V  V63  1  0.99869600  0.62492700  0.74767500  1
  V  V64  1  0.99869600  0.37507300  0.74767500  1
  V  V65  1  0.00039550  0.12471750  0.75094400  1
  O  O66  1  0.87434500  0.11891000  0.00868200  1
  O  O67  1  0.38010950  0.11492350  0.00370600  1
  O  O68  1  0.87434500  0.88109000  0.00868200  1
  O  O69  1  0.38010950  0.88507650  0.00370600  1
  O  O70  1  0.61688000  0.00000000  0.24731300  1
  O  O71  1  0.11824200  0.00000000  0.25463500  1
  O  O72  1  0.38008300  0.00000000  0.24463400  1
  O  O73  1  0.87251400  0.00000000  0.23981700  1
  O  O74  1  0.38614450  0.75085450  0.25299200  1
  O  O75  1  0.62606250  0.24618050  0.26035900  1
  O  O76  1  0.38614450  0.24914550  0.25299200  1
  O  O77  1  0.62606250  0.75381950  0.26035900  1
  O  O78  1  0.62421500  0.36628600  0.49334400  1
  O  O79  1  0.61947200  0.86708100  0.49175500  1
  O  O80  1  0.62421500  0.63371400  0.49334400  1
  O  O81  1  0.61947200  0.13291900  0.49175500  1
  O  O82  1  0.38044500  0.36805100  0.50528000  1
  O  O83  1  0.38115950  0.86581350  0.50629900  1
  O  O84  1  0.38044500  0.63194900  0.50528000  1
  O  O85  1  0.38115950  0.13418650  0.50629900  1
  O  O86  1  0.61417900  0.74992100  0.74551400  1
  O  O87  1  0.37715200  0.74895300  0.74172500  1
  O  O88  1  0.61417900  0.25007900  0.74551400  1
  O  O89  1  0.37715200  0.25104700  0.74172500  1
  O  O90  1  0.12495600  0.00000000  0.75847000  1
  O  O91  1  0.62406800  0.00000000  0.75879100  1
  O  O92  1  0.38677100  0.00000000  0.75200700  1
  O  O93  1  0.88709800  0.00000000  0.75568900  1
  O  O94  1  0.61829250  0.88113450  0.99155800  1
  O  O95  1  0.12694450  0.87922550  0.99330600  1
  O  O96  1  0.12694450  0.12077450  0.99330600  1
  O  O97  1  0.61829250  0.11886550  0.99155800  1
  O  O98  1  0.37434500  0.61891000  0.00868200  1
  O  O99  1  0.88010950  0.61492350  0.00370600  1
  O  O100  1  0.37434500  0.38109000  0.00868200  1
  O  O101  1  0.88010950  0.38507650  0.00370600  1
  O  O102  1  0.11688000  0.50000000  0.24731300  1
  O  O103  1  0.61824200  0.50000000  0.25463500  1
  O  O104  1  0.88008300  0.50000000  0.24463400  1
  O  O105  1  0.37251400  0.50000000  0.23981700  1
  O  O106  1  0.88614450  0.25085450  0.25299200  1
  O  O107  1  0.12606250  0.74618050  0.26035900  1
  O  O108  1  0.88614450  0.74914550  0.25299200  1
  O  O109  1  0.12606250  0.25381950  0.26035900  1
  O  O110  1  0.12421500  0.86628600  0.49334400  1
  O  O111  1  0.11947200  0.36708100  0.49175500  1
  O  O112  1  0.12421500  0.13371400  0.49334400  1
  O  O113  1  0.11947200  0.63291900  0.49175500  1
  O  O114  1  0.88044500  0.86805100  0.50528000  1
  O  O115  1  0.88115950  0.36581350  0.50629900  1
  O  O116  1  0.88044500  0.13194900  0.50528000  1
  O  O117  1  0.88115950  0.63418650  0.50629900  1
  O  O118  1  0.11417900  0.24992100  0.74551400  1
  O  O119  1  0.87715200  0.24895300  0.74172500  1
  O  O120  1  0.11417900  0.75007900  0.74551400  1
  O  O121  1  0.87715200  0.75104700  0.74172500  1
  O  O122  1  0.62495600  0.50000000  0.75847000  1
  O  O123  1  0.12406800  0.50000000  0.75879100  1
  O  O124  1  0.88677100  0.50000000  0.75200700  1
  O  O125  1  0.38709800  0.50000000  0.75568900  1
  O  O126  1  0.11829250  0.38113450  0.99155800  1
  O  O127  1  0.62694450  0.37922550  0.99330600  1
  O  O128  1  0.62694450  0.62077450  0.99330600  1
  O  O129  1  0.11829250  0.61886550  0.99155800  1
