# generated using pymatgen
data_Ce4ThO8
_symmetry_space_group_name_H-M   'P 1'
_cell_length_a   3.92242600
_cell_length_b   3.96267000
_cell_length_c   27.80083000
_cell_angle_alpha   90.00000000
_cell_angle_beta   90.00000000
_cell_angle_gamma   90.00000000
_symmetry_Int_Tables_number   1
_chemical_formula_structural   Ce4ThO8
_chemical_formula_sum   'Ce8 Th2 O16'
_cell_volume   432.11608040
_cell_formula_units_Z   2
loop_
 _symmetry_equiv_pos_site_id
 _symmetry_equiv_pos_as_xyz
  1  'x, y, z'
loop_
 _atom_site_type_symbol
 _atom_site_label
 _atom_site_symmetry_multiplicity
 _atom_site_fract_x
 _atom_site_fract_y
 _atom_site_fract_z
 _atom_site_occupancy
  Ce  Ce0  1  0.00000000  0.50000000  0.90293100  1
  Ce  Ce1  1  0.50000000  0.00000000  0.79662000  1
  Ce  Ce2  1  0.00000000  0.50000000  0.70338000  1
  Ce  Ce3  1  0.50000000  0.00000000  0.59706900  1
  Ce  Ce4  1  0.50000000  0.00000000  0.40293100  1
  Ce  Ce5  1  0.00000000  0.50000000  0.29662000  1
  Ce  Ce6  1  0.50000000  0.00000000  0.20338000  1
  Ce  Ce7  1  0.00000000  0.50000000  0.09706900  1
  Th  Th8  1  0.50000000  0.00000000  0.00000000  1
  Th  Th9  1  0.00000000  0.50000000  0.50000000  1
  O  O10  1  0.50000000  0.50000000  0.94682500  1
  O  O11  1  0.00000000  0.00000000  0.95124000  1
  O  O12  1  0.00000000  0.00000000  0.84843000  1
  O  O13  1  0.50000000  0.50000000  0.75822200  1
  O  O14  1  0.00000000  0.00000000  0.74177800  1
  O  O15  1  0.50000000  0.50000000  0.65157000  1
  O  O16  1  0.50000000  0.50000000  0.54876000  1
  O  O17  1  0.00000000  0.00000000  0.55317500  1
  O  O18  1  0.00000000  0.00000000  0.44682500  1
  O  O19  1  0.50000000  0.50000000  0.45124000  1
  O  O20  1  0.50000000  0.50000000  0.34843000  1
  O  O21  1  0.00000000  0.00000000  0.25822200  1
  O  O22  1  0.50000000  0.50000000  0.24177800  1
  O  O23  1  0.00000000  0.00000000  0.15157000  1
  O  O24  1  0.00000000  0.00000000  0.04876000  1
  O  O25  1  0.50000000  0.50000000  0.05317500  1
