# generated using pymatgen
data_Nb9PO25
_symmetry_space_group_name_H-M   'P 1'
_cell_length_a   15.86840000
_cell_length_b   15.86840000
_cell_length_c   3.89810300
_cell_angle_alpha   90.00000000
_cell_angle_beta   90.00000000
_cell_angle_gamma   90.00000000
_symmetry_Int_Tables_number   1
_chemical_formula_structural   Nb9PO25
_chemical_formula_sum   'Nb18 P2 O50'
_cell_volume   981.56618618
_cell_formula_units_Z   2
loop_
 _symmetry_equiv_pos_site_id
 _symmetry_equiv_pos_as_xyz
  1  'x, y, z'
loop_
 _atom_site_type_symbol
 _atom_site_label
 _atom_site_symmetry_multiplicity
 _atom_site_fract_x
 _atom_site_fract_y
 _atom_site_fract_z
 _atom_site_occupancy
  Nb  Nb0  1  0.60887300  0.78132800  0.75067200  1
  Nb  Nb1  1  0.61379000  0.33052100  0.74406000  1
  Nb  Nb2  1  0.66947900  0.61379000  0.25594000  1
  Nb  Nb3  1  0.71867200  0.10887300  0.75067200  1
  Nb  Nb4  1  0.78132800  0.39112700  0.24932800  1
  Nb  Nb5  1  0.83052100  0.88621000  0.74406000  1
  Nb  Nb6  1  0.88621000  0.16947900  0.25594000  1
  Nb  Nb7  1  0.89112700  0.71867200  0.24932800  1
  Nb  Nb8  1  0.00000000  0.50000000  0.28776300  1
  Nb  Nb9  1  0.10887300  0.28132800  0.24932800  1
  Nb  Nb10  1  0.11379000  0.83052100  0.25594000  1
  Nb  Nb11  1  0.16947900  0.11379000  0.74406000  1
  Nb  Nb12  1  0.21867200  0.60887300  0.24932800  1
  Nb  Nb13  1  0.28132800  0.89112700  0.75067200  1
  Nb  Nb14  1  0.33052100  0.38621000  0.25594000  1
  Nb  Nb15  1  0.38621000  0.66947900  0.74406000  1
  Nb  Nb16  1  0.39112700  0.21867200  0.75067200  1
  Nb  Nb17  1  0.50000000  0.00000000  0.71223700  1
  P  P18  1  0.00000000  0.00000000  0.00000000  1
  P  P19  1  0.50000000  0.50000000  0.00000000  1
  O  O20  1  0.51025700  0.28294500  0.74914700  1
  O  O21  1  0.54863700  0.88194400  0.74899400  1
  O  O22  1  0.54921400  0.56544100  0.21775400  1
  O  O23  1  0.56544100  0.45078600  0.78224600  1
  O  O24  1  0.61250300  0.74792700  0.24957700  1
  O  O25  1  0.61805600  0.04863700  0.74899400  1
  O  O26  1  0.64515700  0.34439700  0.25453700  1
  O  O27  1  0.65560300  0.64515700  0.74546300  1
  O  O28  1  0.67322800  0.21871500  0.75402900  1
  O  O29  1  0.71705500  0.51025700  0.25085300  1
  O  O30  1  0.71871500  0.82677200  0.75402900  1
  O  O31  1  0.74792700  0.38749700  0.75042300  1
  O  O32  1  0.75207300  0.11250300  0.24957700  1
  O  O33  1  0.78128500  0.67322800  0.24597100  1
  O  O34  1  0.78294500  0.98974300  0.74914700  1
  O  O35  1  0.82677200  0.28128500  0.24597100  1
  O  O36  1  0.84439700  0.85484300  0.25453700  1
  O  O37  1  0.85484300  0.15560300  0.74546300  1
  O  O38  1  0.88194400  0.45136300  0.25100600  1
  O  O39  1  0.88749700  0.75207300  0.75042300  1
  O  O40  1  0.93455900  0.04921400  0.21775400  1
  O  O41  1  0.95078600  0.93455900  0.78224600  1
  O  O42  1  0.95136300  0.61805600  0.25100600  1
  O  O43  1  0.98974300  0.21705500  0.25085300  1
  O  O44  1  0.00000000  0.50000000  0.75679200  1
  O  O45  1  0.01025700  0.78294500  0.25085300  1
  O  O46  1  0.04863700  0.38194400  0.25100600  1
  O  O47  1  0.04921400  0.06544100  0.78224600  1
  O  O48  1  0.06544100  0.95078600  0.21775400  1
  O  O49  1  0.11250300  0.24792700  0.75042300  1
  O  O50  1  0.11805600  0.54863700  0.25100600  1
  O  O51  1  0.14515700  0.84439700  0.74546300  1
  O  O52  1  0.15560300  0.14515700  0.25453700  1
  O  O53  1  0.17322800  0.71871500  0.24597100  1
  O  O54  1  0.21705500  0.01025700  0.74914700  1
  O  O55  1  0.21871500  0.32677200  0.24597100  1
  O  O56  1  0.24792700  0.88749700  0.24957700  1
  O  O57  1  0.25207300  0.61250300  0.75042300  1
  O  O58  1  0.28128500  0.17322800  0.75402900  1
  O  O59  1  0.28294500  0.48974300  0.25085300  1
  O  O60  1  0.32677200  0.78128500  0.75402900  1
  O  O61  1  0.34439700  0.35484300  0.74546300  1
  O  O62  1  0.35484300  0.65560300  0.25453700  1
  O  O63  1  0.38194400  0.95136300  0.74899400  1
  O  O64  1  0.38749700  0.25207300  0.24957700  1
  O  O65  1  0.43455900  0.54921400  0.78224600  1
  O  O66  1  0.45078600  0.43455900  0.21775400  1
  O  O67  1  0.45136300  0.11805600  0.74899400  1
  O  O68  1  0.48974300  0.71705500  0.74914700  1
  O  O69  1  0.50000000  0.00000000  0.24320800  1
