# generated using pymatgen
data_Tm4(B2O5)3
_symmetry_space_group_name_H-M   'P 1'
_cell_length_a   11.62532600
_cell_length_b   4.38211200
_cell_length_c   18.77793937
_cell_angle_alpha   90.00000000
_cell_angle_beta   96.32919970
_cell_angle_gamma   90.00000000
_symmetry_Int_Tables_number   1
_chemical_formula_structural   Tm4(B2O5)3
_chemical_formula_sum   'Tm16 B24 O60'
_cell_volume   950.78293638
_cell_formula_units_Z   4
loop_
 _symmetry_equiv_pos_site_id
 _symmetry_equiv_pos_as_xyz
  1  'x, y, z'
loop_
 _atom_site_type_symbol
 _atom_site_label
 _atom_site_symmetry_multiplicity
 _atom_site_fract_x
 _atom_site_fract_y
 _atom_site_fract_z
 _atom_site_occupancy
  Tm  Tm0  1  0.86280650  0.20744550  0.69771600  1
  Tm  Tm1  1  0.86638200  0.19822400  0.90066400  1
  Tm  Tm2  1  0.86280650  0.79255450  0.19771600  1
  Tm  Tm3  1  0.86638200  0.80177600  0.40066400  1
  Tm  Tm4  1  0.63361800  0.69822400  0.59933600  1
  Tm  Tm5  1  0.63719350  0.70744550  0.80228400  1
  Tm  Tm6  1  0.63361800  0.30177600  0.09933600  1
  Tm  Tm7  1  0.63719350  0.29255450  0.30228400  1
  Tm  Tm8  1  0.36280650  0.70744550  0.69771600  1
  Tm  Tm9  1  0.36638200  0.69822400  0.90066400  1
  Tm  Tm10  1  0.36280650  0.29255450  0.19771600  1
  Tm  Tm11  1  0.36638200  0.30177600  0.40066400  1
  Tm  Tm12  1  0.13361800  0.19822400  0.59933600  1
  Tm  Tm13  1  0.13719350  0.20744550  0.80228400  1
  Tm  Tm14  1  0.13361800  0.80177600  0.09933600  1
  Tm  Tm15  1  0.13719350  0.79255450  0.30228400  1
  B  B16  1  0.90303600  0.70564600  0.58715500  1
  B  B17  1  0.93178850  0.72745550  0.80581000  1
  B  B18  1  0.83111950  0.18998550  0.52554400  1
  B  B19  1  0.90303600  0.29435400  0.08715500  1
  B  B20  1  0.93178850  0.27254450  0.30581000  1
  B  B21  1  0.83111950  0.81001450  0.02554400  1
  B  B22  1  0.66888050  0.68998550  0.97445600  1
  B  B23  1  0.56821150  0.22745550  0.69419000  1
  B  B24  1  0.59696400  0.20564600  0.91284500  1
  B  B25  1  0.66888050  0.31001450  0.47445600  1
  B  B26  1  0.56821150  0.77254450  0.19419000  1
  B  B27  1  0.59696400  0.79435400  0.41284500  1
  B  B28  1  0.40303600  0.20564600  0.58715500  1
  B  B29  1  0.43178850  0.22745550  0.80581000  1
  B  B30  1  0.33111950  0.68998550  0.52554400  1
  B  B31  1  0.40303600  0.79435400  0.08715500  1
  B  B32  1  0.43178850  0.77254450  0.30581000  1
  B  B33  1  0.33111950  0.31001450  0.02554400  1
  B  B34  1  0.16888050  0.18998550  0.97445600  1
  B  B35  1  0.06821150  0.72745550  0.69419000  1
  B  B36  1  0.09696400  0.70564600  0.91284500  1
  B  B37  1  0.16888050  0.81001450  0.47445600  1
  B  B38  1  0.06821150  0.27254450  0.19419000  1
  B  B39  1  0.09696400  0.29435400  0.41284500  1
  O  O40  1  0.98542300  0.82634200  0.87872400  1
  O  O41  1  0.91585400  0.37168800  0.57079400  1
  O  O42  1  0.93455950  0.39996750  0.80331500  1
  O  O43  1  0.87294450  0.87770650  0.51997800  1
  O  O44  1  0.98542300  0.17365800  0.37872400  1
  O  O45  1  0.91585400  0.62831200  0.07079400  1
  O  O46  1  0.81837300  0.74393100  0.63860500  1
  O  O47  1  0.93455950  0.60003250  0.30331500  1
  O  O48  1  0.87294450  0.12229350  0.01997800  1
  O  O49  1  0.81720300  0.86753400  0.79607700  1
  O  O50  1  0.79173650  0.70195050  0.95031900  1
  O  O51  1  0.70826350  0.20195050  0.54968100  1
  O  O52  1  0.81837300  0.25606900  0.13860500  1
  O  O53  1  0.81720300  0.13246600  0.29607700  1
  O  O54  1  0.68279700  0.36753400  0.70392300  1
  O  O55  1  0.68162700  0.24393100  0.86139500  1
  O  O56  1  0.79173650  0.29804950  0.45031900  1
  O  O57  1  0.70826350  0.79804950  0.04968100  1
  O  O58  1  0.68279700  0.63246600  0.20392300  1
  O  O59  1  0.62705550  0.37770650  0.98002200  1
  O  O60  1  0.56544050  0.89996750  0.69668500  1
  O  O61  1  0.68162700  0.75606900  0.36139500  1
  O  O62  1  0.58414600  0.87168800  0.92920600  1
  O  O63  1  0.51457700  0.32634200  0.62127600  1
  O  O64  1  0.00000000  0.86891100  0.75000000  1
  O  O65  1  0.62705550  0.62229350  0.48002200  1
  O  O66  1  0.56544050  0.10003250  0.19668500  1
  O  O67  1  0.58414600  0.12831200  0.42920600  1
  O  O68  1  0.51457700  0.67365800  0.12127600  1
  O  O69  1  0.00000000  0.13108900  0.25000000  1
  O  O70  1  0.48542300  0.32634200  0.87872400  1
  O  O71  1  0.41585400  0.87168800  0.57079400  1
  O  O72  1  0.43455950  0.89996750  0.80331500  1
  O  O73  1  0.37294450  0.37770650  0.51997800  1
  O  O74  1  0.48542300  0.67365800  0.37872400  1
  O  O75  1  0.41585400  0.12831200  0.07079400  1
  O  O76  1  0.31837300  0.24393100  0.63860500  1
  O  O77  1  0.43455950  0.10003250  0.30331500  1
  O  O78  1  0.37294450  0.62229350  0.01997800  1
  O  O79  1  0.31720300  0.36753400  0.79607700  1
  O  O80  1  0.29173650  0.20195050  0.95031900  1
  O  O81  1  0.20826350  0.70195050  0.54968100  1
  O  O82  1  0.31837300  0.75606900  0.13860500  1
  O  O83  1  0.31720300  0.63246600  0.29607700  1
  O  O84  1  0.18279700  0.86753400  0.70392300  1
  O  O85  1  0.18162700  0.74393100  0.86139500  1
  O  O86  1  0.29173650  0.79804950  0.45031900  1
  O  O87  1  0.20826350  0.29804950  0.04968100  1
  O  O88  1  0.18279700  0.13246600  0.20392300  1
  O  O89  1  0.12705550  0.87770650  0.98002200  1
  O  O90  1  0.06544050  0.39996750  0.69668500  1
  O  O91  1  0.18162700  0.25606900  0.36139500  1
  O  O92  1  0.08414600  0.37168800  0.92920600  1
  O  O93  1  0.01457700  0.82634200  0.62127600  1
  O  O94  1  0.50000000  0.36891100  0.75000000  1
  O  O95  1  0.12705550  0.12229350  0.48002200  1
  O  O96  1  0.06544050  0.60003250  0.19668500  1
  O  O97  1  0.08414600  0.62831200  0.42920600  1
  O  O98  1  0.01457700  0.17365800  0.12127600  1
  O  O99  1  0.50000000  0.63108900  0.25000000  1
