# generated using pymatgen
data_Fe5O3F7
_symmetry_space_group_name_H-M   'P 1'
_cell_length_a   4.79232500
_cell_length_b   4.79612658
_cell_length_c   15.63097497
_cell_angle_alpha   89.50352567
_cell_angle_beta   89.97932642
_cell_angle_gamma   88.54820670
_symmetry_Int_Tables_number   1
_chemical_formula_structural   Fe5O3F7
_chemical_formula_sum   'Fe10 O6 F14'
_cell_volume   359.14285039
_cell_formula_units_Z   2
loop_
 _symmetry_equiv_pos_site_id
 _symmetry_equiv_pos_as_xyz
  1  'x, y, z'
loop_
 _atom_site_type_symbol
 _atom_site_label
 _atom_site_symmetry_multiplicity
 _atom_site_fract_x
 _atom_site_fract_y
 _atom_site_fract_z
 _atom_site_occupancy
  Fe  Fe0  1  0.99893800  0.00283100  0.99878100  1
  Fe  Fe1  1  0.00165700  0.00374600  0.80238100  1
  Fe  Fe2  1  0.95043300  0.96659000  0.60553800  1
  Fe  Fe3  1  0.03124600  0.03837700  0.39489300  1
  Fe  Fe4  1  0.97470500  0.02084100  0.19918200  1
  Fe  Fe5  1  0.46739900  0.53044400  0.90012600  1
  Fe  Fe6  1  0.49370200  0.50314900  0.49976200  1
  Fe  Fe7  1  0.53928400  0.47493100  0.69429700  1
  Fe  Fe8  1  0.51958000  0.46811400  0.30584100  1
  Fe  Fe9  1  0.52029000  0.48250400  0.10026000  1
  O  O10  1  0.80566600  0.18125300  0.69598200  1
  O  O11  1  0.80908900  0.20428000  0.29512800  1
  O  O12  1  0.81923300  0.17766000  0.09964100  1
  O  O13  1  0.32240900  0.32661400  0.40446300  1
  O  O14  1  0.68700000  0.67901300  0.59512500  1
  O  O15  1  0.17564600  0.82477700  0.90517900  1
  F  F16  1  0.77788100  0.22112600  0.90644300  1
  F  F17  1  0.79894400  0.19459500  0.50589300  1
  F  F18  1  0.28473400  0.30806700  0.00038800  1
  F  F19  1  0.30844700  0.32140700  0.78969100  1
  F  F20  1  0.30048600  0.29101300  0.59562300  1
  F  F21  1  0.30822000  0.29736900  0.20514000  1
  F  F22  1  0.69243100  0.71067900  0.00287200  1
  F  F23  1  0.68276600  0.69104900  0.79222400  1
  F  F24  1  0.70826400  0.70469600  0.40431900  1
  F  F25  1  0.70598200  0.69714200  0.20968300  1
  F  F26  1  0.19020600  0.80614500  0.50521300  1
  F  F27  1  0.20602200  0.77908300  0.68894400  1
  F  F28  1  0.19997400  0.79910800  0.10470400  1
  F  F29  1  0.21936200  0.79339800  0.29228200  1
