# generated using pymatgen
data_BaNa2O2
_symmetry_space_group_name_H-M   'P 1'
_cell_length_a   3.80499600
_cell_length_b   13.20285200
_cell_length_c   7.87332000
_cell_angle_alpha   90.00000000
_cell_angle_beta   90.00000000
_cell_angle_gamma   90.00000000
_symmetry_Int_Tables_number   1
_chemical_formula_structural   BaNa2O2
_chemical_formula_sum   'Ba4 Na8 O8'
_cell_volume   395.53039469
_cell_formula_units_Z   4
loop_
 _symmetry_equiv_pos_site_id
 _symmetry_equiv_pos_as_xyz
  1  'x, y, z'
loop_
 _atom_site_type_symbol
 _atom_site_label
 _atom_site_symmetry_multiplicity
 _atom_site_fract_x
 _atom_site_fract_y
 _atom_site_fract_z
 _atom_site_occupancy
  Ba  Ba0  1  0.00000000  0.19289100  0.93350000  1
  Ba  Ba1  1  0.50000000  0.30710900  0.43350000  1
  Ba  Ba2  1  0.50000000  0.69289100  0.93350000  1
  Ba  Ba3  1  0.00000000  0.80710900  0.43350000  1
  Na  Na4  1  0.00000000  0.05636000  0.38993800  1
  Na  Na5  1  0.00000000  0.42418000  0.14321400  1
  Na  Na6  1  0.50000000  0.44364000  0.88993800  1
  Na  Na7  1  0.50000000  0.07582000  0.64321400  1
  Na  Na8  1  0.50000000  0.55636000  0.38993800  1
  Na  Na9  1  0.50000000  0.92418000  0.14321400  1
  Na  Na10  1  0.00000000  0.94364000  0.88993800  1
  Na  Na11  1  0.00000000  0.57582000  0.64321400  1
  O  O12  1  0.00000000  0.18838800  0.58860200  1
  O  O13  1  0.00000000  0.45555000  0.42985500  1
  O  O14  1  0.50000000  0.04445000  0.92985500  1
  O  O15  1  0.50000000  0.31161200  0.08860200  1
  O  O16  1  0.50000000  0.68838800  0.58860200  1
  O  O17  1  0.50000000  0.95555000  0.42985500  1
  O  O18  1  0.00000000  0.54445000  0.92985500  1
  O  O19  1  0.00000000  0.81161200  0.08860200  1
