# generated using pymatgen
data_LiCrSnO4
_symmetry_space_group_name_H-M   'P 1'
_cell_length_a   6.09695000
_cell_length_b   6.09695000
_cell_length_c   8.55211701
_cell_angle_alpha   90.00000000
_cell_angle_beta   90.00000000
_cell_angle_gamma   90.00000000
_symmetry_Int_Tables_number   1
_chemical_formula_structural   LiCrSnO4
_chemical_formula_sum   'Li4 Cr4 Sn4 O16'
_cell_volume   317.90612978
_cell_formula_units_Z   4
loop_
 _symmetry_equiv_pos_site_id
 _symmetry_equiv_pos_as_xyz
  1  'x, y, z'
loop_
 _atom_site_type_symbol
 _atom_site_label
 _atom_site_symmetry_multiplicity
 _atom_site_fract_x
 _atom_site_fract_y
 _atom_site_fract_z
 _atom_site_occupancy
  Li  Li0  1  0.00000000  0.23259200  0.00000000  1
  Li  Li1  1  0.00000000  0.76740800  0.50000000  1
  Li  Li2  1  0.23259200  0.00000000  0.25000000  1
  Li  Li3  1  0.76740800  0.00000000  0.75000000  1
  Cr  Cr4  1  0.50000000  0.24309200  0.00000000  1
  Cr  Cr5  1  0.50000000  0.75690800  0.50000000  1
  Cr  Cr6  1  0.24309200  0.50000000  0.25000000  1
  Cr  Cr7  1  0.75690800  0.50000000  0.75000000  1
  Sn  Sn8  1  0.25173550  0.25173550  0.62500000  1
  Sn  Sn9  1  0.25173550  0.74826450  0.87500000  1
  Sn  Sn10  1  0.74826450  0.25173550  0.37500000  1
  Sn  Sn11  1  0.74826450  0.74826450  0.12500000  1
  O  O12  1  0.02023600  0.26192200  0.25100900  1
  O  O13  1  0.02023600  0.73807800  0.24899100  1
  O  O14  1  0.26192200  0.02023600  0.99899100  1
  O  O15  1  0.26192200  0.97976400  0.50100900  1
  O  O16  1  0.73807800  0.02023600  0.00100900  1
  O  O17  1  0.73807800  0.97976400  0.49899100  1
  O  O18  1  0.97976400  0.26192200  0.74899100  1
  O  O19  1  0.97976400  0.73807800  0.75100900  1
  O  O20  1  0.26254100  0.48153800  0.01377300  1
  O  O21  1  0.26254100  0.51846200  0.48622700  1
  O  O22  1  0.48153800  0.26254100  0.23622700  1
  O  O23  1  0.48153800  0.73745900  0.26377300  1
  O  O24  1  0.51846200  0.26254100  0.76377300  1
  O  O25  1  0.51846200  0.73745900  0.73622700  1
  O  O26  1  0.73745900  0.51846200  0.51377300  1
  O  O27  1  0.73745900  0.48153800  0.98622700  1
