# generated using pymatgen
data_RbVH4(OF2)2
_symmetry_space_group_name_H-M   'P 1'
_cell_length_a   12.02796390
_cell_length_b   6.48908623
_cell_length_c   9.29695133
_cell_angle_alpha   90.00000000
_cell_angle_beta   124.19523417
_cell_angle_gamma   90.00000000
_symmetry_Int_Tables_number   1
_chemical_formula_structural   RbVH4(OF2)2
_chemical_formula_sum   'Rb4 V4 H16 O8 F16'
_cell_volume   600.18976800
_cell_formula_units_Z   4
loop_
 _symmetry_equiv_pos_site_id
 _symmetry_equiv_pos_as_xyz
  1  'x, y, z'
loop_
 _atom_site_type_symbol
 _atom_site_label
 _atom_site_symmetry_multiplicity
 _atom_site_fract_x
 _atom_site_fract_y
 _atom_site_fract_z
 _atom_site_occupancy
  Rb  Rb0  1  0.00000000  0.77867400  0.75000000  1
  Rb  Rb1  1  0.00000000  0.22132600  0.25000000  1
  Rb  Rb2  1  0.50000000  0.27867400  0.75000000  1
  Rb  Rb3  1  0.50000000  0.72132600  0.25000000  1
  V  V4  1  0.25000000  0.25000000  0.00000000  1
  V  V5  1  0.25000000  0.75000000  0.50000000  1
  V  V6  1  0.75000000  0.75000000  0.00000000  1
  V  V7  1  0.75000000  0.25000000  0.50000000  1
  H  H8  1  0.05217225  0.28640675  0.65758300  1
  H  H9  1  0.94782775  0.28640675  0.84241700  1
  H  H10  1  0.94782775  0.71359325  0.34241700  1
  H  H11  1  0.05217225  0.71359325  0.15758300  1
  H  H12  1  0.68098575  0.90822825  0.68690000  1
  H  H13  1  0.81901425  0.40822825  0.81310000  1
  H  H14  1  0.31901425  0.09177175  0.31310000  1
  H  H15  1  0.18098575  0.59177175  0.18690000  1
  H  H16  1  0.55217225  0.78640675  0.65758300  1
  H  H17  1  0.44782775  0.78640675  0.84241700  1
  H  H18  1  0.44782775  0.21359325  0.34241700  1
  H  H19  1  0.55217225  0.21359325  0.15758300  1
  H  H20  1  0.18098575  0.40822825  0.68690000  1
  H  H21  1  0.31901425  0.90822825  0.81310000  1
  H  H22  1  0.81901425  0.59177175  0.31310000  1
  H  H23  1  0.68098575  0.09177175  0.18690000  1
  O  O24  1  0.63396700  0.86796100  0.74405800  1
  O  O25  1  0.86603300  0.36796100  0.75594200  1
  O  O26  1  0.36603300  0.13203900  0.25594200  1
  O  O27  1  0.13396700  0.63203900  0.24405800  1
  O  O28  1  0.13396700  0.36796100  0.74405800  1
  O  O29  1  0.36603300  0.86796100  0.75594200  1
  O  O30  1  0.86603300  0.63203900  0.25594200  1
  O  O31  1  0.63396700  0.13203900  0.24405800  1
  F  F32  1  0.08396325  0.17047825  0.97641500  1
  F  F33  1  0.91603675  0.17047825  0.52358500  1
  F  F34  1  0.91603675  0.82952175  0.02358500  1
  F  F35  1  0.08396325  0.82952175  0.47641500  1
  F  F36  1  0.74113900  0.97615050  0.58125300  1
  F  F37  1  0.75886100  0.47615050  0.91874700  1
  F  F38  1  0.25886100  0.02384950  0.41874700  1
  F  F39  1  0.24113900  0.52384950  0.08125300  1
  F  F40  1  0.58396325  0.67047825  0.97641500  1
  F  F41  1  0.41603675  0.67047825  0.52358500  1
  F  F42  1  0.41603675  0.32952175  0.02358500  1
  F  F43  1  0.58396325  0.32952175  0.47641500  1
  F  F44  1  0.24113900  0.47615050  0.58125300  1
  F  F45  1  0.25886100  0.97615050  0.91874700  1
  F  F46  1  0.75886100  0.52384950  0.41874700  1
  F  F47  1  0.74113900  0.02384950  0.08125300  1
