# generated using pymatgen
data_Li5SbS4
_symmetry_space_group_name_H-M   'P 1'
_cell_length_a   7.58802600
_cell_length_b   12.49585800
_cell_length_c   7.92020900
_cell_angle_alpha   90.00000000
_cell_angle_beta   90.00000000
_cell_angle_gamma   90.00000000
_symmetry_Int_Tables_number   1
_chemical_formula_structural   Li5SbS4
_chemical_formula_sum   'Li20 Sb4 S16'
_cell_volume   750.98546869
_cell_formula_units_Z   4
loop_
 _symmetry_equiv_pos_site_id
 _symmetry_equiv_pos_as_xyz
  1  'x, y, z'
loop_
 _atom_site_type_symbol
 _atom_site_label
 _atom_site_symmetry_multiplicity
 _atom_site_fract_x
 _atom_site_fract_y
 _atom_site_fract_z
 _atom_site_occupancy
  Li  Li0  1  0.18204100  0.93866500  0.69296700  1
  Li  Li1  1  0.18204100  0.06133500  0.19296700  1
  Li  Li2  1  0.28557150  0.87075650  0.98330200  1
  Li  Li3  1  0.28557150  0.12924350  0.48330200  1
  Li  Li4  1  0.50000000  0.35883000  0.30197500  1
  Li  Li5  1  0.50000000  0.64117000  0.80197500  1
  Li  Li6  1  0.71442850  0.12924350  0.48330200  1
  Li  Li7  1  0.71442850  0.87075650  0.98330200  1
  Li  Li8  1  0.81795900  0.06133500  0.19296700  1
  Li  Li9  1  0.81795900  0.93866500  0.69296700  1
  Li  Li10  1  0.68204100  0.43866500  0.69296700  1
  Li  Li11  1  0.68204100  0.56133500  0.19296700  1
  Li  Li12  1  0.78557150  0.37075650  0.98330200  1
  Li  Li13  1  0.78557150  0.62924350  0.48330200  1
  Li  Li14  1  0.00000000  0.85883000  0.30197500  1
  Li  Li15  1  0.00000000  0.14117000  0.80197500  1
  Li  Li16  1  0.21442850  0.62924350  0.48330200  1
  Li  Li17  1  0.21442850  0.37075650  0.98330200  1
  Li  Li18  1  0.31795900  0.56133500  0.19296700  1
  Li  Li19  1  0.31795900  0.43866500  0.69296700  1
  Sb  Sb20  1  0.50000000  0.16603400  0.90516800  1
  Sb  Sb21  1  0.50000000  0.83396600  0.40516800  1
  Sb  Sb22  1  0.00000000  0.66603400  0.90516800  1
  Sb  Sb23  1  0.00000000  0.33396600  0.40516800  1
  S  S24  1  0.25961150  0.75627150  0.23351900  1
  S  S25  1  0.25961150  0.24372850  0.73351900  1
  S  S26  1  0.50000000  0.47833700  0.97006300  1
  S  S27  1  0.50000000  0.52166300  0.47006300  1
  S  S28  1  0.50000000  0.01896000  0.28751500  1
  S  S29  1  0.50000000  0.98104000  0.78751500  1
  S  S30  1  0.74038850  0.24372850  0.73351900  1
  S  S31  1  0.74038850  0.75627150  0.23351900  1
  S  S32  1  0.75961150  0.25627150  0.23351900  1
  S  S33  1  0.75961150  0.74372850  0.73351900  1
  S  S34  1  0.00000000  0.97833700  0.97006300  1
  S  S35  1  0.00000000  0.02166300  0.47006300  1
  S  S36  1  0.00000000  0.51896000  0.28751500  1
  S  S37  1  0.00000000  0.48104000  0.78751500  1
  S  S38  1  0.24038850  0.74372850  0.73351900  1
  S  S39  1  0.24038850  0.25627150  0.23351900  1
