# generated using pymatgen
data_Li2MnNb3O8
_symmetry_space_group_name_H-M   'P 1'
_cell_length_a   6.15165837
_cell_length_b   6.15165837
_cell_length_c   15.39007554
_cell_angle_alpha   90.00000000
_cell_angle_beta   90.00000000
_cell_angle_gamma   120.00000000
_symmetry_Int_Tables_number   1
_chemical_formula_structural   Li2MnNb3O8
_chemical_formula_sum   'Li6 Mn3 Nb9 O24'
_cell_volume   504.37761219
_cell_formula_units_Z   3
loop_
 _symmetry_equiv_pos_site_id
 _symmetry_equiv_pos_as_xyz
  1  'x, y, z'
loop_
 _atom_site_type_symbol
 _atom_site_label
 _atom_site_symmetry_multiplicity
 _atom_site_fract_x
 _atom_site_fract_y
 _atom_site_fract_z
 _atom_site_occupancy
  Li  Li0  1  0.00000000  0.00000000  0.88115467  1
  Li  Li1  1  0.66666667  0.33333333  0.82916500  1
  Li  Li2  1  0.66666667  0.33333333  0.21448800  1
  Li  Li3  1  0.33333333  0.66666667  0.16249833  1
  Li  Li4  1  0.33333333  0.66666667  0.54782133  1
  Li  Li5  1  0.00000000  0.00000000  0.49583167  1
  Mn  Mn6  1  0.33333333  0.66666667  0.79174367  1
  Mn  Mn7  1  0.00000000  0.00000000  0.12507700  1
  Mn  Mn8  1  0.66666667  0.33333333  0.45841033  1
  Nb  Nb9  1  0.97849467  0.48924733  0.99997533  1
  Nb  Nb10  1  0.51075267  0.02150533  0.99997533  1
  Nb  Nb11  1  0.51075267  0.48924733  0.99997533  1
  Nb  Nb12  1  0.64516133  0.82258067  0.33330867  1
  Nb  Nb13  1  0.17741933  0.35483867  0.33330867  1
  Nb  Nb14  1  0.17741933  0.82258067  0.33330867  1
  Nb  Nb15  1  0.31182800  0.15591400  0.66664200  1
  Nb  Nb16  1  0.84408600  0.68817200  0.66664200  1
  Nb  Nb17  1  0.84408600  0.15591400  0.66664200  1
  O  O18  1  0.00000000  0.00000000  0.75295000  1
  O  O19  1  0.82322983  0.17677017  0.92259467  1
  O  O20  1  0.82322983  0.64645967  0.92259467  1
  O  O21  1  0.35354033  0.17677017  0.92259467  1
  O  O22  1  0.97390867  0.48695433  0.73870933  1
  O  O23  1  0.51304567  0.02609133  0.73870933  1
  O  O24  1  0.51304567  0.48695433  0.73870933  1
  O  O25  1  0.33333333  0.66666667  0.92778367  1
  O  O26  1  0.66666667  0.33333333  0.08628333  1
  O  O27  1  0.48989650  0.51010350  0.25592800  1
  O  O28  1  0.48989650  0.97979300  0.25592800  1
  O  O29  1  0.02020700  0.51010350  0.25592800  1
  O  O30  1  0.64057533  0.82028767  0.07204267  1
  O  O31  1  0.17971233  0.35942467  0.07204267  1
  O  O32  1  0.17971233  0.82028767  0.07204267  1
  O  O33  1  0.00000000  0.00000000  0.26111700  1
  O  O34  1  0.33333333  0.66666667  0.41961667  1
  O  O35  1  0.15656317  0.84343683  0.58926133  1
  O  O36  1  0.15656317  0.31312633  0.58926133  1
  O  O37  1  0.68687367  0.84343683  0.58926133  1
  O  O38  1  0.30724200  0.15362100  0.40537600  1
  O  O39  1  0.84637900  0.69275800  0.40537600  1
  O  O40  1  0.84637900  0.15362100  0.40537600  1
  O  O41  1  0.66666667  0.33333333  0.59445033  1
