# generated using pymatgen
data_ErBO3
_symmetry_space_group_name_H-M   'P 1'
_cell_length_a   4.07193400
_cell_length_b   6.68948000
_cell_length_c   8.60604500
_cell_angle_alpha   90.00000000
_cell_angle_beta   90.00000000
_cell_angle_gamma   90.00000000
_symmetry_Int_Tables_number   1
_chemical_formula_structural   ErBO3
_chemical_formula_sum   'Er4 B4 O12'
_cell_volume   234.42110155
_cell_formula_units_Z   4
loop_
 _symmetry_equiv_pos_site_id
 _symmetry_equiv_pos_as_xyz
  1  'x, y, z'
loop_
 _atom_site_type_symbol
 _atom_site_label
 _atom_site_symmetry_multiplicity
 _atom_site_fract_x
 _atom_site_fract_y
 _atom_site_fract_z
 _atom_site_occupancy
  Er  Er0  1  0.05137900  0.00000000  0.00000000  1
  Er  Er1  1  0.05137900  0.00000000  0.50000000  1
  Er  Er2  1  0.55137900  0.50000000  0.00000000  1
  Er  Er3  1  0.55137900  0.50000000  0.50000000  1
  B  B4  1  0.63113950  0.12867850  0.75000000  1
  B  B5  1  0.63113950  0.87132150  0.25000000  1
  B  B6  1  0.13113950  0.62867850  0.75000000  1
  B  B7  1  0.13113950  0.37132150  0.25000000  1
  O  O8  1  0.50454050  0.17071150  0.89738300  1
  O  O9  1  0.50454050  0.17071150  0.60261700  1
  O  O10  1  0.92900950  0.03310850  0.75000000  1
  O  O11  1  0.50454050  0.82928850  0.39738300  1
  O  O12  1  0.50454050  0.82928850  0.10261700  1
  O  O13  1  0.92900950  0.96689150  0.25000000  1
  O  O14  1  0.00454050  0.67071150  0.89738300  1
  O  O15  1  0.00454050  0.67071150  0.60261700  1
  O  O16  1  0.42900950  0.53310850  0.75000000  1
  O  O17  1  0.00454050  0.32928850  0.39738300  1
  O  O18  1  0.00454050  0.32928850  0.10261700  1
  O  O19  1  0.42900950  0.46689150  0.25000000  1
