# generated using pymatgen
data_Li3SbS3
_symmetry_space_group_name_H-M   'P 1'
_cell_length_a   7.13692835
_cell_length_b   7.13692835
_cell_length_c   19.49238405
_cell_angle_alpha   90.00000000
_cell_angle_beta   90.00000000
_cell_angle_gamma   120.00000000
_symmetry_Int_Tables_number   1
_chemical_formula_structural   Li3SbS3
_chemical_formula_sum   'Li18 Sb6 S18'
_cell_volume   859.84122655
_cell_formula_units_Z   6
loop_
 _symmetry_equiv_pos_site_id
 _symmetry_equiv_pos_as_xyz
  1  'x, y, z'
loop_
 _atom_site_type_symbol
 _atom_site_label
 _atom_site_symmetry_multiplicity
 _atom_site_fract_x
 _atom_site_fract_y
 _atom_site_fract_z
 _atom_site_occupancy
  Li  Li0  1  0.02809733  0.65114067  0.28498967  1
  Li  Li1  1  0.31780733  0.95637667  0.04834367  1
  Li  Li2  1  0.62304333  0.97190267  0.28498967  1
  Li  Li3  1  0.04362333  0.36143067  0.04834367  1
  Li  Li4  1  0.34885933  0.37695667  0.28498967  1
  Li  Li5  1  0.63856933  0.68219267  0.04834367  1
  Li  Li6  1  0.69476400  0.98447400  0.61832300  1
  Li  Li7  1  0.98447400  0.28971000  0.38167700  1
  Li  Li8  1  0.28971000  0.30523600  0.61832300  1
  Li  Li9  1  0.71029000  0.69476400  0.38167700  1
  Li  Li10  1  0.01552600  0.71029000  0.61832300  1
  Li  Li11  1  0.30523600  0.01552600  0.38167700  1
  Li  Li12  1  0.36143067  0.31780733  0.95165633  1
  Li  Li13  1  0.65114067  0.62304333  0.71501033  1
  Li  Li14  1  0.95637667  0.63856933  0.95165633  1
  Li  Li15  1  0.37695667  0.02809733  0.71501033  1
  Li  Li16  1  0.68219267  0.04362333  0.95165633  1
  Li  Li17  1  0.97190267  0.34885933  0.71501033  1
  Sb  Sb18  1  0.66666667  0.33333333  0.15179333  1
  Sb  Sb19  1  0.00000000  0.00000000  0.18154000  1
  Sb  Sb20  1  0.33333333  0.66666667  0.48512667  1
  Sb  Sb21  1  0.66666667  0.33333333  0.51487333  1
  Sb  Sb22  1  0.00000000  0.00000000  0.81846000  1
  Sb  Sb23  1  0.33333333  0.66666667  0.84820667  1
  S  S24  1  0.31264333  0.02284467  0.25385167  1
  S  S25  1  0.95646533  0.64597667  0.07948167  1
  S  S26  1  0.97715533  0.28979867  0.25385167  1
  S  S27  1  0.68951133  0.04353467  0.07948167  1
  S  S28  1  0.71020133  0.68735667  0.25385167  1
  S  S29  1  0.35402333  0.31048867  0.07948167  1
  S  S30  1  0.97931000  0.35617800  0.58718500  1
  S  S31  1  0.62313200  0.97931000  0.41281500  1
  S  S32  1  0.64382200  0.62313200  0.58718500  1
  S  S33  1  0.35617800  0.37686800  0.41281500  1
  S  S34  1  0.37686800  0.02069000  0.58718500  1
  S  S35  1  0.02069000  0.64382200  0.41281500  1
  S  S36  1  0.64597667  0.68951133  0.92051833  1
  S  S37  1  0.28979867  0.31264333  0.74614833  1
  S  S38  1  0.31048867  0.95646533  0.92051833  1
  S  S39  1  0.02284467  0.71020133  0.74614833  1
  S  S40  1  0.04353467  0.35402333  0.92051833  1
  S  S41  1  0.68735667  0.97715533  0.74614833  1
