# generated using pymatgen
data_Fe4OF7
_symmetry_space_group_name_H-M   'P 1'
_cell_length_a   14.40791600
_cell_length_b   6.87535800
_cell_length_c   6.68426465
_cell_angle_alpha   90.00000000
_cell_angle_beta   117.60799639
_cell_angle_gamma   90.00000000
_symmetry_Int_Tables_number   1
_chemical_formula_structural   Fe4OF7
_chemical_formula_sum   'Fe16 O4 F28'
_cell_volume   586.74841964
_cell_formula_units_Z   4
loop_
 _symmetry_equiv_pos_site_id
 _symmetry_equiv_pos_as_xyz
  1  'x, y, z'
loop_
 _atom_site_type_symbol
 _atom_site_label
 _atom_site_symmetry_multiplicity
 _atom_site_fract_x
 _atom_site_fract_y
 _atom_site_fract_z
 _atom_site_occupancy
  Fe  Fe0  1  0.37843800  0.50000000  0.84915500  1
  Fe  Fe1  1  0.37237300  0.00000000  0.37027900  1
  Fe  Fe2  1  0.12762700  0.50000000  0.62972100  1
  Fe  Fe3  1  0.00000000  0.00000000  0.50000000  1
  Fe  Fe4  1  0.00000000  0.50000000  0.00000000  1
  Fe  Fe5  1  0.24001200  0.00000000  0.73218700  1
  Fe  Fe6  1  0.25998800  0.50000000  0.26781300  1
  Fe  Fe7  1  0.12156200  0.00000000  0.15084500  1
  Fe  Fe8  1  0.87843800  0.00000000  0.84915500  1
  Fe  Fe9  1  0.87237300  0.50000000  0.37027900  1
  Fe  Fe10  1  0.62762700  0.00000000  0.62972100  1
  Fe  Fe11  1  0.50000000  0.50000000  0.50000000  1
  Fe  Fe12  1  0.50000000  0.00000000  0.00000000  1
  Fe  Fe13  1  0.74001200  0.50000000  0.73218700  1
  Fe  Fe14  1  0.75998800  0.00000000  0.26781300  1
  Fe  Fe15  1  0.62156200  0.50000000  0.15084500  1
  O  O16  1  0.38259600  0.50000000  0.55614600  1
  O  O17  1  0.11740400  0.00000000  0.44385400  1
  O  O18  1  0.88259600  0.00000000  0.55614600  1
  O  O19  1  0.61740400  0.50000000  0.44385400  1
  F  F20  1  0.37969700  0.50000000  0.16667800  1
  F  F21  1  0.36651800  0.00000000  0.06109000  1
  F  F22  1  0.00000000  0.30507800  0.50000000  1
  F  F23  1  0.00000000  0.69492200  0.50000000  1
  F  F24  1  0.25067800  0.70130200  0.75386900  1
  F  F25  1  0.00000000  0.20522200  0.00000000  1
  F  F26  1  0.13348200  0.50000000  0.93891000  1
  F  F27  1  0.36767800  0.00000000  0.66906500  1
  F  F28  1  0.12030300  0.00000000  0.83332200  1
  F  F29  1  0.13232200  0.50000000  0.33093500  1
  F  F30  1  0.25067800  0.29869800  0.75386900  1
  F  F31  1  0.00000000  0.79477800  0.00000000  1
  F  F32  1  0.24932200  0.79869800  0.24613100  1
  F  F33  1  0.24932200  0.20130200  0.24613100  1
  F  F34  1  0.87969700  0.00000000  0.16667800  1
  F  F35  1  0.86651800  0.50000000  0.06109000  1
  F  F36  1  0.50000000  0.80507800  0.50000000  1
  F  F37  1  0.50000000  0.19492200  0.50000000  1
  F  F38  1  0.75067800  0.20130200  0.75386900  1
  F  F39  1  0.50000000  0.70522200  0.00000000  1
  F  F40  1  0.63348200  0.00000000  0.93891000  1
  F  F41  1  0.86767800  0.50000000  0.66906500  1
  F  F42  1  0.62030300  0.50000000  0.83332200  1
  F  F43  1  0.63232200  0.00000000  0.33093500  1
  F  F44  1  0.75067800  0.79869800  0.75386900  1
  F  F45  1  0.50000000  0.29477800  0.00000000  1
  F  F46  1  0.74932200  0.29869800  0.24613100  1
  F  F47  1  0.74932200  0.70130200  0.24613100  1
