# generated using pymatgen
data_Y2W2O9
_symmetry_space_group_name_H-M   'P 1'
_cell_length_a   11.79791800
_cell_length_b   15.66524000
_cell_length_c   7.21316800
_cell_angle_alpha   90.00000000
_cell_angle_beta   90.00000000
_cell_angle_gamma   90.00000000
_symmetry_Int_Tables_number   1
_chemical_formula_structural   Y2W2O9
_chemical_formula_sum   'Y16 W16 O72'
_cell_volume   1333.11763530
_cell_formula_units_Z   8
loop_
 _symmetry_equiv_pos_site_id
 _symmetry_equiv_pos_as_xyz
  1  'x, y, z'
loop_
 _atom_site_type_symbol
 _atom_site_label
 _atom_site_symmetry_multiplicity
 _atom_site_fract_x
 _atom_site_fract_y
 _atom_site_fract_z
 _atom_site_occupancy
  Y  Y0  1  0.26438600  0.14457900  0.49774700  1
  Y  Y1  1  0.26438600  0.85542100  0.50225300  1
  Y  Y2  1  0.50000000  0.72870700  0.25000000  1
  Y  Y3  1  0.50000000  0.72758600  0.75000000  1
  Y  Y4  1  0.50000000  0.27241400  0.25000000  1
  Y  Y5  1  0.50000000  0.27129300  0.75000000  1
  Y  Y6  1  0.73561400  0.14457900  0.00225300  1
  Y  Y7  1  0.73561400  0.85542100  0.99774700  1
  Y  Y8  1  0.76438600  0.64457900  0.49774700  1
  Y  Y9  1  0.76438600  0.35542100  0.50225300  1
  Y  Y10  1  0.00000000  0.22870700  0.25000000  1
  Y  Y11  1  0.00000000  0.22758600  0.75000000  1
  Y  Y12  1  0.00000000  0.77241400  0.25000000  1
  Y  Y13  1  0.00000000  0.77129300  0.75000000  1
  Y  Y14  1  0.23561400  0.64457900  0.00225300  1
  Y  Y15  1  0.23561400  0.35542100  0.99774700  1
  W  W16  1  0.95310700  0.00000000  0.00000000  1
  W  W17  1  0.27001250  0.12284950  0.99658200  1
  W  W18  1  0.27001250  0.87715050  0.00341800  1
  W  W19  1  0.50000000  0.00087800  0.25000000  1
  W  W20  1  0.50000000  0.99912200  0.75000000  1
  W  W21  1  0.72998750  0.12284950  0.50341800  1
  W  W22  1  0.72998750  0.87715050  0.49658200  1
  W  W23  1  0.04689300  0.00000000  0.50000000  1
  W  W24  1  0.45310700  0.50000000  0.00000000  1
  W  W25  1  0.77001250  0.62284950  0.99658200  1
  W  W26  1  0.77001250  0.37715050  0.00341800  1
  W  W27  1  0.00000000  0.50087800  0.25000000  1
  W  W28  1  0.00000000  0.49912200  0.75000000  1
  W  W29  1  0.22998750  0.62284950  0.50341800  1
  W  W30  1  0.22998750  0.37715050  0.49658200  1
  W  W31  1  0.54689300  0.50000000  0.50000000  1
  O  O32  1  0.17855550  0.85037050  0.20626700  1
  O  O33  1  0.17855550  0.14962950  0.79373300  1
  O  O34  1  0.20181600  0.00000000  0.50000000  1
  O  O35  1  0.18115600  0.84975900  0.79860000  1
  O  O36  1  0.18115600  0.15024100  0.20140000  1
  O  O37  1  0.22342800  0.00000000  0.00000000  1
  O  O38  1  0.34456200  0.23236700  0.99546400  1
  O  O39  1  0.34456200  0.76763300  0.00453600  1
  O  O40  1  0.38982500  0.08648400  0.18710800  1
  O  O41  1  0.38982500  0.91351600  0.81289200  1
  O  O42  1  0.38859150  0.08592650  0.80737300  1
  O  O43  1  0.38859150  0.91407350  0.19262700  1
  O  O44  1  0.41971950  0.78929250  0.50183800  1
  O  O45  1  0.41971950  0.21070750  0.49816200  1
  O  O46  1  0.44155200  0.00000000  0.50000000  1
  O  O47  1  0.46791900  0.37939800  0.99442500  1
  O  O48  1  0.46791900  0.62060200  0.00557500  1
  O  O49  1  0.50000000  0.50300500  0.75000000  1
  O  O50  1  0.50000000  0.49699500  0.25000000  1
  O  O51  1  0.53208100  0.37939800  0.50557500  1
  O  O52  1  0.53208100  0.62060200  0.49442500  1
  O  O53  1  0.55844800  0.00000000  0.00000000  1
  O  O54  1  0.58028050  0.21070750  0.00183800  1
  O  O55  1  0.58028050  0.78929250  0.99816200  1
  O  O56  1  0.61140850  0.08592650  0.69262700  1
  O  O57  1  0.61140850  0.91407350  0.30737300  1
  O  O58  1  0.61017500  0.08648400  0.31289200  1
  O  O59  1  0.61017500  0.91351600  0.68710800  1
  O  O60  1  0.65543800  0.76763300  0.49546400  1
  O  O61  1  0.65543800  0.23236700  0.50453600  1
  O  O62  1  0.77657200  0.00000000  0.50000000  1
  O  O63  1  0.81884400  0.84975900  0.70140000  1
  O  O64  1  0.81884400  0.15024100  0.29860000  1
  O  O65  1  0.79818400  0.00000000  0.00000000  1
  O  O66  1  0.82144450  0.85037050  0.29373300  1
  O  O67  1  0.82144450  0.14962950  0.70626700  1
  O  O68  1  0.67855550  0.35037050  0.20626700  1
  O  O69  1  0.67855550  0.64962950  0.79373300  1
  O  O70  1  0.70181600  0.50000000  0.50000000  1
  O  O71  1  0.68115600  0.34975900  0.79860000  1
  O  O72  1  0.68115600  0.65024100  0.20140000  1
  O  O73  1  0.72342800  0.50000000  0.00000000  1
  O  O74  1  0.84456200  0.73236700  0.99546400  1
  O  O75  1  0.84456200  0.26763300  0.00453600  1
  O  O76  1  0.88982500  0.58648400  0.18710800  1
  O  O77  1  0.88982500  0.41351600  0.81289200  1
  O  O78  1  0.88859150  0.58592650  0.80737300  1
  O  O79  1  0.88859150  0.41407350  0.19262700  1
  O  O80  1  0.91971950  0.28929250  0.50183800  1
  O  O81  1  0.91971950  0.71070750  0.49816200  1
  O  O82  1  0.94155200  0.50000000  0.50000000  1
  O  O83  1  0.96791900  0.87939800  0.99442500  1
  O  O84  1  0.96791900  0.12060200  0.00557500  1
  O  O85  1  0.00000000  0.00300500  0.75000000  1
  O  O86  1  0.00000000  0.99699500  0.25000000  1
  O  O87  1  0.03208100  0.87939800  0.50557500  1
  O  O88  1  0.03208100  0.12060200  0.49442500  1
  O  O89  1  0.05844800  0.50000000  0.00000000  1
  O  O90  1  0.08028050  0.71070750  0.00183800  1
  O  O91  1  0.08028050  0.28929250  0.99816200  1
  O  O92  1  0.11140850  0.58592650  0.69262700  1
  O  O93  1  0.11140850  0.41407350  0.30737300  1
  O  O94  1  0.11017500  0.58648400  0.31289200  1
  O  O95  1  0.11017500  0.41351600  0.68710800  1
  O  O96  1  0.15543800  0.26763300  0.49546400  1
  O  O97  1  0.15543800  0.73236700  0.50453600  1
  O  O98  1  0.27657200  0.50000000  0.50000000  1
  O  O99  1  0.31884400  0.34975900  0.70140000  1
  O  O100  1  0.31884400  0.65024100  0.29860000  1
  O  O101  1  0.29818400  0.50000000  0.00000000  1
  O  O102  1  0.32144450  0.35037050  0.29373300  1
  O  O103  1  0.32144450  0.64962950  0.70626700  1
