# generated using pymatgen
data_FeCo(PO4)2
_symmetry_space_group_name_H-M   'P 1'
_cell_length_a   8.63470768
_cell_length_b   8.63470768
_cell_length_c   20.18211182
_cell_angle_alpha   90.00000000
_cell_angle_beta   90.00000000
_cell_angle_gamma   120.00000000
_symmetry_Int_Tables_number   1
_chemical_formula_structural   FeCo(PO4)2
_chemical_formula_sum   'Fe9 Co9 P18 O72'
_cell_volume   1303.14432874
_cell_formula_units_Z   9
loop_
 _symmetry_equiv_pos_site_id
 _symmetry_equiv_pos_as_xyz
  1  'x, y, z'
loop_
 _atom_site_type_symbol
 _atom_site_label
 _atom_site_symmetry_multiplicity
 _atom_site_fract_x
 _atom_site_fract_y
 _atom_site_fract_z
 _atom_site_occupancy
  Fe  Fe0  1  0.33333333  0.66666667  0.02149367  1
  Fe  Fe1  1  0.33333333  0.66666667  0.81151167  1
  Fe  Fe2  1  0.33333333  0.66666667  0.31186267  1
  Fe  Fe3  1  0.00000000  0.00000000  0.35482700  1
  Fe  Fe4  1  0.00000000  0.00000000  0.14484500  1
  Fe  Fe5  1  0.00000000  0.00000000  0.64519600  1
  Fe  Fe6  1  0.66666667  0.33333333  0.68816033  1
  Fe  Fe7  1  0.66666667  0.33333333  0.47817833  1
  Fe  Fe8  1  0.66666667  0.33333333  0.97852933  1
  Co  Co9  1  0.33333333  0.66666667  0.66506567  1
  Co  Co10  1  0.33333333  0.66666667  0.52030667  1
  Co  Co11  1  0.33333333  0.66666667  0.16700467  1
  Co  Co12  1  0.00000000  0.00000000  0.99839900  1
  Co  Co13  1  0.00000000  0.00000000  0.85364000  1
  Co  Co14  1  0.00000000  0.00000000  0.50033800  1
  Co  Co15  1  0.66666667  0.33333333  0.33173233  1
  Co  Co16  1  0.66666667  0.33333333  0.18697333  1
  Co  Co17  1  0.66666667  0.33333333  0.83367133  1
  P  P18  1  0.36950167  0.03635733  0.08360533  1
  P  P19  1  0.66685567  0.63049833  0.08360533  1
  P  P20  1  0.96364267  0.33314433  0.08360533  1
  P  P21  1  0.70234633  0.00093767  0.24983967  1
  P  P22  1  0.99906233  0.70140867  0.24983967  1
  P  P23  1  0.29859133  0.29765367  0.24983967  1
  P  P24  1  0.03616833  0.36969067  0.41693867  1
  P  P25  1  0.33352233  0.96383167  0.41693867  1
  P  P26  1  0.63030933  0.66647767  0.41693867  1
  P  P27  1  0.36901300  0.33427100  0.58317300  1
  P  P28  1  0.66572900  0.03474200  0.58317300  1
  P  P29  1  0.96525800  0.63098700  0.58317300  1
  P  P30  1  0.70283500  0.70302400  0.75027200  1
  P  P31  1  0.00018900  0.29716500  0.75027200  1
  P  P32  1  0.29697600  0.99981100  0.75027200  1
  P  P33  1  0.03567967  0.66760433  0.91650633  1
  P  P34  1  0.33239567  0.36807533  0.91650633  1
  P  P35  1  0.63192467  0.96432033  0.91650633  1
  O  O36  1  0.32060033  0.85851467  0.35484067  1
  O  O37  1  0.53791433  0.67939967  0.35484067  1
  O  O38  1  0.14148533  0.46208567  0.35484067  1
  O  O39  1  0.17828033  0.01010667  0.07207767  1
  O  O40  1  0.46319867  0.14191633  0.14599033  1
  O  O41  1  0.34457200  0.84538800  0.09516700  1
  O  O42  1  0.83182633  0.82171967  0.07207767  1
  O  O43  1  0.50081600  0.65542800  0.09516700  1
  O  O44  1  0.80764400  0.01268600  0.18792600  1
  O  O45  1  0.15461200  0.49918400  0.09516700  1
  O  O46  1  0.67625467  0.16636433  0.26069933  1
  O  O47  1  0.98731400  0.79495800  0.18792600  1
  O  O48  1  0.67871767  0.53680133  0.14599033  1
  O  O49  1  0.98989333  0.16817367  0.07207767  1
  O  O50  1  0.51057333  0.83553167  0.23878367  1
  O  O51  1  0.85808367  0.32128233  0.14599033  1
  O  O52  1  0.16446833  0.67504167  0.23878367  1
  O  O53  1  0.83363567  0.50989033  0.26069933  1
  O  O54  1  0.32495833  0.48942667  0.23878367  1
  O  O55  1  0.20504200  0.19235600  0.18792600  1
  O  O56  1  0.49010967  0.32374533  0.26069933  1
  O  O57  1  0.52736633  0.87084867  0.97866367  1
  O  O58  1  0.12915133  0.65651767  0.97866367  1
  O  O59  1  0.34348233  0.47263367  0.97866367  1
  O  O60  1  0.98726700  0.19184800  0.68817400  1
  O  O61  1  0.20458100  0.01273300  0.68817400  1
  O  O62  1  0.80815200  0.79541900  0.68817400  1
  O  O63  1  0.84494700  0.34344000  0.40541100  1
  O  O64  1  0.12986533  0.47524967  0.47932367  1
  O  O65  1  0.01123867  0.17872133  0.42850033  1
  O  O66  1  0.49849300  0.15505300  0.40541100  1
  O  O67  1  0.16748267  0.98876133  0.42850033  1
  O  O68  1  0.47431067  0.34601933  0.52125933  1
  O  O69  1  0.82127867  0.83251733  0.42850033  1
  O  O70  1  0.34292133  0.49969767  0.59403267  1
  O  O71  1  0.65398067  0.12829133  0.52125933  1
  O  O72  1  0.34538433  0.87013467  0.47932367  1
  O  O73  1  0.65656000  0.50150700  0.40541100  1
  O  O74  1  0.17724000  0.16886500  0.57211700  1
  O  O75  1  0.52475033  0.65461567  0.47932367  1
  O  O76  1  0.83113500  0.00837500  0.57211700  1
  O  O77  1  0.50030233  0.84322367  0.59403267  1
  O  O78  1  0.99162500  0.82276000  0.57211700  1
  O  O79  1  0.87170867  0.52568933  0.52125933  1
  O  O80  1  0.15677633  0.65707867  0.59403267  1
  O  O81  1  0.19403300  0.20418200  0.31199700  1
  O  O82  1  0.79581800  0.98985100  0.31199700  1
  O  O83  1  0.01014900  0.80596700  0.31199700  1
  O  O84  1  0.65393367  0.52518133  0.02150733  1
  O  O85  1  0.87124767  0.34606633  0.02150733  1
  O  O86  1  0.47481867  0.12875233  0.02150733  1
  O  O87  1  0.51161367  0.67677333  0.73874433  1
  O  O88  1  0.79653200  0.80858300  0.81265700  1
  O  O89  1  0.67790533  0.51205467  0.76183367  1
  O  O90  1  0.16515967  0.48838633  0.73874433  1
  O  O91  1  0.83414933  0.32209467  0.76183367  1
  O  O92  1  0.14097733  0.67935267  0.85459267  1
  O  O93  1  0.48794533  0.16585067  0.76183367  1
  O  O94  1  0.00958800  0.83303100  0.92736600  1
  O  O95  1  0.32064733  0.46162467  0.85459267  1
  O  O96  1  0.01205100  0.20346800  0.81265700  1
  O  O97  1  0.32322667  0.83484033  0.73874433  1
  O  O98  1  0.84390667  0.50219833  0.90545033  1
  O  O99  1  0.19141700  0.98794900  0.81265700  1
  O  O100  1  0.49780167  0.34170833  0.90545033  1
  O  O101  1  0.16696900  0.17655700  0.92736600  1
  O  O102  1  0.65829167  0.15609333  0.90545033  1
  O  O103  1  0.53837533  0.85902267  0.85459267  1
  O  O104  1  0.82344300  0.99041200  0.92736600  1
  O  O105  1  0.86069967  0.53751533  0.64533033  1
  O  O106  1  0.46248467  0.32318433  0.64533033  1
  O  O107  1  0.67681567  0.13930033  0.64533033  1
