# generated using pymatgen
data_Mg3As2
_symmetry_space_group_name_H-M   'P 1'
_cell_length_a   4.30047287
_cell_length_b   4.30047287
_cell_length_c   6.76977500
_cell_angle_alpha   90.00000000
_cell_angle_beta   90.00000000
_cell_angle_gamma   120.00000000
_symmetry_Int_Tables_number   1
_chemical_formula_structural   Mg3As2
_chemical_formula_sum   'Mg3 As2'
_cell_volume   108.42696213
_cell_formula_units_Z   1
loop_
 _symmetry_equiv_pos_site_id
 _symmetry_equiv_pos_as_xyz
  1  'x, y, z'
loop_
 _atom_site_type_symbol
 _atom_site_label
 _atom_site_symmetry_multiplicity
 _atom_site_fract_x
 _atom_site_fract_y
 _atom_site_fract_z
 _atom_site_occupancy
  Mg  Mg0  1  0.66666667  0.33333333  0.35873100  1
  Mg  Mg1  1  0.33333333  0.66666667  0.64126900  1
  Mg  Mg2  1  0.00000000  0.00000000  0.00000000  1
  As  As3  1  0.66666667  0.33333333  0.76957900  1
  As  As4  1  0.33333333  0.66666667  0.23042100  1
