# generated using pymatgen
data_Na2FePCO7
_symmetry_space_group_name_H-M   'P 1'
_cell_length_a   5.24545500
_cell_length_b   6.55081638
_cell_length_c   17.90402385
_cell_angle_alpha   90.71157534
_cell_angle_beta   90.46350694
_cell_angle_gamma   90.16565623
_symmetry_Int_Tables_number   1
_chemical_formula_structural   Na2FePCO7
_chemical_formula_sum   'Na8 Fe4 P4 C4 O28'
_cell_volume   615.14796412
_cell_formula_units_Z   4
loop_
 _symmetry_equiv_pos_site_id
 _symmetry_equiv_pos_as_xyz
  1  'x, y, z'
loop_
 _atom_site_type_symbol
 _atom_site_label
 _atom_site_symmetry_multiplicity
 _atom_site_fract_x
 _atom_site_fract_y
 _atom_site_fract_z
 _atom_site_occupancy
  Na  Na0  1  0.76222700  0.71957800  0.95929200  1
  Na  Na1  1  0.25109000  0.98886000  0.86822000  1
  Na  Na2  1  0.74863800  0.01305200  0.63210900  1
  Na  Na3  1  0.23724900  0.25773700  0.54091900  1
  Na  Na4  1  0.76372100  0.75899800  0.45890700  1
  Na  Na5  1  0.25238800  0.51288600  0.36815900  1
  Na  Na6  1  0.75049100  0.01036800  0.13159200  1
  Na  Na7  1  0.23800800  0.28055000  0.04006200  1
  Fe  Fe8  1  0.78372100  0.26321400  0.82718600  1
  Fe  Fe9  1  0.21621200  0.73852200  0.67280800  1
  Fe  Fe10  1  0.78351900  0.23693000  0.32734200  1
  Fe  Fe11  1  0.21575600  0.73323800  0.17275700  1
  P  P12  1  0.71064200  0.75489400  0.78769600  1
  P  P13  1  0.28924200  0.24703300  0.71237000  1
  P  P14  1  0.71060900  0.74659100  0.28771700  1
  P  P15  1  0.28888600  0.24446700  0.21218900  1
  C  C16  1  0.72983800  0.23729900  0.96750900  1
  C  C17  1  0.27040800  0.75254000  0.53254100  1
  C  C18  1  0.72981000  0.25499600  0.46766800  1
  C  C19  1  0.27012400  0.76318700  0.03241200  1
  O  O20  1  0.29908000  0.76963000  0.96240100  1
  O  O21  1  0.95606100  0.24429600  0.93620100  1
  O  O22  1  0.53646800  0.24591500  0.92057100  1
  O  O23  1  0.77351300  0.93929100  0.84035300  1
  O  O24  1  0.76280200  0.56350100  0.83526100  1
  O  O25  1  0.12763800  0.24234200  0.78409100  1
  O  O26  1  0.42382900  0.76579900  0.76467900  1
  O  O27  1  0.57605400  0.23507400  0.73537200  1
  O  O28  1  0.87242300  0.75948200  0.71601600  1
  O  O29  1  0.23774400  0.43788600  0.66454100  1
  O  O30  1  0.22569700  0.06226800  0.65989100  1
  O  O31  1  0.46391900  0.75755900  0.57953400  1
  O  O32  1  0.04416500  0.75777300  0.56387800  1
  O  O33  1  0.70211900  0.23397000  0.53742300  1
  O  O34  1  0.29874300  0.73938800  0.46247800  1
  O  O35  1  0.95572800  0.26438900  0.43633000  1
  O  O36  1  0.53594400  0.26380000  0.42100400  1
  O  O37  1  0.76110400  0.93543300  0.33903000  1
  O  O38  1  0.77585200  0.55947100  0.33675000  1
  O  O39  1  0.12752100  0.25757500  0.28388000  1
  O  O40  1  0.42339800  0.73553100  0.26493900  1
  O  O41  1  0.57585300  0.23495700  0.23512500  1
  O  O42  1  0.87143500  0.75648600  0.21591600  1
  O  O43  1  0.23926500  0.43139000  0.16154000  1
  O  O44  1  0.22291900  0.05525200  0.16270300  1
  O  O45  1  0.46332300  0.75604900  0.07945400  1
  O  O46  1  0.04375400  0.75593600  0.06365700  1
  O  O47  1  0.70106300  0.22954600  0.03752800  1
