# generated using pymatgen
data_LiBi4B3O11
_symmetry_space_group_name_H-M   'P 1'
_cell_length_a   9.33179200
_cell_length_b   9.14488800
_cell_length_c   12.40333754
_cell_angle_alpha   90.00000000
_cell_angle_beta   99.69939243
_cell_angle_gamma   90.00000000
_symmetry_Int_Tables_number   1
_chemical_formula_structural   LiBi4B3O11
_chemical_formula_sum   'Li4 Bi16 B12 O44'
_cell_volume   1043.34773053
_cell_formula_units_Z   4
loop_
 _symmetry_equiv_pos_site_id
 _symmetry_equiv_pos_as_xyz
  1  'x, y, z'
loop_
 _atom_site_type_symbol
 _atom_site_label
 _atom_site_symmetry_multiplicity
 _atom_site_fract_x
 _atom_site_fract_y
 _atom_site_fract_z
 _atom_site_occupancy
  Li  Li0  1  0.00000000  0.88788200  0.75000000  1
  Li  Li1  1  0.00000000  0.11211800  0.25000000  1
  Li  Li2  1  0.50000000  0.38788200  0.75000000  1
  Li  Li3  1  0.50000000  0.61211800  0.25000000  1
  Bi  Bi4  1  0.73954950  0.65967450  0.83241900  1
  Bi  Bi5  1  0.73954950  0.34032550  0.33241900  1
  Bi  Bi6  1  0.88715300  0.28680100  0.92126000  1
  Bi  Bi7  1  0.88715300  0.71319900  0.42126000  1
  Bi  Bi8  1  0.11284700  0.28680100  0.57874000  1
  Bi  Bi9  1  0.11284700  0.71319900  0.07874000  1
  Bi  Bi10  1  0.26045050  0.65967450  0.66758100  1
  Bi  Bi11  1  0.26045050  0.34032550  0.16758100  1
  Bi  Bi12  1  0.23954950  0.15967450  0.83241900  1
  Bi  Bi13  1  0.23954950  0.84032550  0.33241900  1
  Bi  Bi14  1  0.38715300  0.78680100  0.92126000  1
  Bi  Bi15  1  0.38715300  0.21319900  0.42126000  1
  Bi  Bi16  1  0.61284700  0.78680100  0.57874000  1
  Bi  Bi17  1  0.61284700  0.21319900  0.07874000  1
  Bi  Bi18  1  0.76045050  0.15967450  0.66758100  1
  Bi  Bi19  1  0.76045050  0.84032550  0.16758100  1
  B  B20  1  0.65572500  0.48264000  0.57377500  1
  B  B21  1  0.65572500  0.51736000  0.07377500  1
  B  B22  1  0.00000000  0.46793600  0.75000000  1
  B  B23  1  0.00000000  0.53206400  0.25000000  1
  B  B24  1  0.34427500  0.48264000  0.92622500  1
  B  B25  1  0.34427500  0.51736000  0.42622500  1
  B  B26  1  0.15572500  0.98264000  0.57377500  1
  B  B27  1  0.15572500  0.01736000  0.07377500  1
  B  B28  1  0.50000000  0.96793600  0.75000000  1
  B  B29  1  0.50000000  0.03206400  0.25000000  1
  B  B30  1  0.84427500  0.98264000  0.92622500  1
  B  B31  1  0.84427500  0.01736000  0.42622500  1
  O  O32  1  0.59170600  0.54539800  0.65593700  1
  O  O33  1  0.59170600  0.45460200  0.15593700  1
  O  O34  1  0.71446300  0.58170500  0.50643600  1
  O  O35  1  0.71446300  0.41829500  0.00643600  1
  O  O36  1  0.79891900  0.79229300  0.70544600  1
  O  O37  1  0.84529200  0.83468400  0.94797100  1
  O  O38  1  0.79891900  0.20770700  0.20544600  1
  O  O39  1  0.84529200  0.16531600  0.44797100  1
  O  O40  1  0.94723500  0.53435700  0.83537400  1
  O  O41  1  0.00000000  0.31339800  0.75000000  1
  O  O42  1  0.94723500  0.46564300  0.33537400  1
  O  O43  1  0.05276500  0.53435700  0.66462600  1
  O  O44  1  0.00000000  0.68660200  0.25000000  1
  O  O45  1  0.05276500  0.46564300  0.16462600  1
  O  O46  1  0.15470800  0.83468400  0.55202900  1
  O  O47  1  0.20108100  0.79229300  0.79455400  1
  O  O48  1  0.15470800  0.16531600  0.05202900  1
  O  O49  1  0.20108100  0.20770700  0.29455400  1
  O  O50  1  0.28553700  0.58170500  0.99356400  1
  O  O51  1  0.28553700  0.41829500  0.49356400  1
  O  O52  1  0.40829400  0.54539800  0.84406300  1
  O  O53  1  0.40829400  0.45460200  0.34406300  1
  O  O54  1  0.09170600  0.04539800  0.65593700  1
  O  O55  1  0.09170600  0.95460200  0.15593700  1
  O  O56  1  0.21446300  0.08170500  0.50643600  1
  O  O57  1  0.21446300  0.91829500  0.00643600  1
  O  O58  1  0.29891900  0.29229300  0.70544600  1
  O  O59  1  0.34529200  0.33468400  0.94797100  1
  O  O60  1  0.29891900  0.70770700  0.20544600  1
  O  O61  1  0.34529200  0.66531600  0.44797100  1
  O  O62  1  0.44723500  0.03435700  0.83537400  1
  O  O63  1  0.50000000  0.81339800  0.75000000  1
  O  O64  1  0.44723500  0.96564300  0.33537400  1
  O  O65  1  0.55276500  0.03435700  0.66462600  1
  O  O66  1  0.50000000  0.18660200  0.25000000  1
  O  O67  1  0.55276500  0.96564300  0.16462600  1
  O  O68  1  0.65470800  0.33468400  0.55202900  1
  O  O69  1  0.70108100  0.29229300  0.79455400  1
  O  O70  1  0.65470800  0.66531600  0.05202900  1
  O  O71  1  0.70108100  0.70770700  0.29455400  1
  O  O72  1  0.78553700  0.08170500  0.99356400  1
  O  O73  1  0.78553700  0.91829500  0.49356400  1
  O  O74  1  0.90829400  0.04539800  0.84406300  1
  O  O75  1  0.90829400  0.95460200  0.34406300  1
