# generated using pymatgen
data_Zr2N2O
_symmetry_space_group_name_H-M   'P 1'
_cell_length_a   8.85125470
_cell_length_b   8.87132013
_cell_length_c   8.89195700
_cell_angle_alpha   109.58615696
_cell_angle_beta   109.33020771
_cell_angle_gamma   109.32674432
_symmetry_Int_Tables_number   1
_chemical_formula_structural   Zr2N2O
_chemical_formula_sum   'Zr16 N16 O8'
_cell_volume   538.61336134
_cell_formula_units_Z   8
loop_
 _symmetry_equiv_pos_site_id
 _symmetry_equiv_pos_as_xyz
  1  'x, y, z'
loop_
 _atom_site_type_symbol
 _atom_site_label
 _atom_site_symmetry_multiplicity
 _atom_site_fract_x
 _atom_site_fract_y
 _atom_site_fract_z
 _atom_site_occupancy
  Zr  Zr0  1  0.51247900  0.50028500  0.49987000  1
  Zr  Zr1  1  0.21325200  0.45535700  0.25158900  1
  Zr  Zr2  1  0.96766500  0.25489200  0.78357200  1
  Zr  Zr3  1  0.47144100  0.24788500  0.28089500  1
  Zr  Zr4  1  0.28866700  0.03152300  0.75755400  1
  Zr  Zr5  1  0.00383300  0.49999400  0.98977100  1
  Zr  Zr6  1  0.24130000  0.78550200  0.46495300  1
  Zr  Zr7  1  0.49168000  0.00039600  0.00289000  1
  Zr  Zr8  1  0.99264600  0.00249600  0.49775500  1
  Zr  Zr9  1  0.75763300  0.71108800  0.02952400  1
  Zr  Zr10  1  0.74341300  0.20480800  0.53859900  1
  Zr  Zr11  1  0.25119900  0.28945800  0.97131100  1
  Zr  Zr12  1  0.71824800  0.96964600  0.24756400  1
  Zr  Zr13  1  0.02956300  0.75600100  0.21020600  1
  Zr  Zr14  1  0.53538700  0.74696700  0.71886200  1
  Zr  Zr15  1  0.78547600  0.54510000  0.74827600  1
  N  N16  1  0.76841200  0.73790900  0.27164800  1
  N  N17  1  0.54615100  0.27596600  0.48637000  1
  N  N18  1  0.24224400  0.22801200  0.22973100  1
  N  N19  1  0.50685100  0.03851500  0.23067800  1
  N  N20  1  0.00885500  0.23965400  0.53585900  1
  N  N21  1  0.03536200  0.77374000  0.95070600  1
  N  N22  1  0.96646600  0.22562700  0.04248300  1
  N  N23  1  0.72600600  0.45563500  0.03604000  1
  N  N24  1  0.04900100  0.53293400  0.72457600  1
  N  N25  1  0.99397600  0.76457500  0.46294700  1
  N  N26  1  0.76136000  0.77504400  0.77257500  1
  N  N27  1  0.77011600  0.01156400  0.45399100  1
  N  N28  1  0.26174400  0.03287400  0.01191400  1
  N  N29  1  0.49099500  0.95779300  0.77472300  1
  N  N30  1  0.27196600  0.54614500  0.96984800  1
  N  N31  1  0.53609400  0.48780400  0.73339500  1
  O  O32  1  0.27617200  0.72634800  0.23573500  1
  O  O33  1  0.22735500  0.26289600  0.72505000  1
  O  O34  1  0.46034100  0.51486400  0.26473600  1
  O  O35  1  0.22715100  0.98399300  0.54902500  1
  O  O36  1  0.72377300  0.26660300  0.77250600  1
  O  O37  1  0.95791300  0.47011200  0.27418600  1
  O  O38  1  0.73709100  0.96686700  0.98565400  1
  O  O39  1  0.45072600  0.72312500  0.51243200  1
