# generated using pymatgen
data_KNb2PO8
_symmetry_space_group_name_H-M   'P 1'
_cell_length_a   13.44341858
_cell_length_b   13.44341858
_cell_length_c   10.55933879
_cell_angle_alpha   90.00000000
_cell_angle_beta   90.00000000
_cell_angle_gamma   120.00000000
_symmetry_Int_Tables_number   1
_chemical_formula_structural   KNb2PO8
_chemical_formula_sum   'K9 Nb18 P9 O72'
_cell_volume   1652.67249153
_cell_formula_units_Z   9
loop_
 _symmetry_equiv_pos_site_id
 _symmetry_equiv_pos_as_xyz
  1  'x, y, z'
loop_
 _atom_site_type_symbol
 _atom_site_label
 _atom_site_symmetry_multiplicity
 _atom_site_fract_x
 _atom_site_fract_y
 _atom_site_fract_z
 _atom_site_occupancy
  K  K0  1  0.69639267  0.99047633  0.39495533  1
  K  K1  1  0.29408367  0.30360733  0.39495533  1
  K  K2  1  0.00952367  0.70591633  0.39495533  1
  K  K3  1  0.36305933  0.32380967  0.72828867  1
  K  K4  1  0.96075033  0.63694067  0.72828867  1
  K  K5  1  0.67619033  0.03924967  0.72828867  1
  K  K6  1  0.02972600  0.65714300  0.06162200  1
  K  K7  1  0.62741700  0.97027400  0.06162200  1
  K  K8  1  0.34285700  0.37258300  0.06162200  1
  Nb  Nb9  1  0.02346500  0.17024200  0.81703600  1
  Nb  Nb10  1  0.82975800  0.85322300  0.81703600  1
  Nb  Nb11  1  0.97754167  0.14717033  0.18060933  1
  Nb  Nb12  1  0.14677700  0.97653500  0.81703600  1
  Nb  Nb13  1  0.85282967  0.83037133  0.18060933  1
  Nb  Nb14  1  0.16962867  0.02245833  0.18060933  1
  Nb  Nb15  1  0.69013167  0.50357533  0.15036933  1
  Nb  Nb16  1  0.49642467  0.18655633  0.15036933  1
  Nb  Nb17  1  0.64420833  0.48050367  0.51394267  1
  Nb  Nb18  1  0.81344367  0.30986833  0.15036933  1
  Nb  Nb19  1  0.51949633  0.16370467  0.51394267  1
  Nb  Nb20  1  0.83629533  0.35579167  0.51394267  1
  Nb  Nb21  1  0.35679833  0.83690867  0.48370267  1
  Nb  Nb22  1  0.16309133  0.51988967  0.48370267  1
  Nb  Nb23  1  0.31087500  0.81383700  0.84727600  1
  Nb  Nb24  1  0.48011033  0.64320167  0.48370267  1
  Nb  Nb25  1  0.18616300  0.49703800  0.84727600  1
  Nb  Nb26  1  0.50296200  0.68912500  0.84727600  1
  P  P27  1  0.99948533  0.22373767  0.50022067  1
  P  P28  1  0.77626233  0.77574767  0.50022067  1
  P  P29  1  0.22425233  0.00051467  0.50022067  1
  P  P30  1  0.66615200  0.55707100  0.83355400  1
  P  P31  1  0.44292900  0.10908100  0.83355400  1
  P  P32  1  0.89091900  0.33384800  0.83355400  1
  P  P33  1  0.33281867  0.89040433  0.16688733  1
  P  P34  1  0.10959567  0.44241433  0.16688733  1
  P  P35  1  0.55758567  0.66718133  0.16688733  1
  O  O36  1  0.00007200  0.47515200  0.50074700  1
  O  O37  1  0.51333300  0.18000000  0.33345000  1
  O  O38  1  0.89059833  0.23297267  0.52528067  1
  O  O39  1  0.87953033  0.01137967  0.80514767  1
  O  O40  1  0.82000000  0.33333300  0.33345000  1
  O  O41  1  0.10828633  0.34182667  0.47465967  1
  O  O42  1  0.02363867  0.17135733  0.61844833  1
  O  O43  1  0.97538833  0.14679267  0.38244567  1
  O  O44  1  0.13184933  0.12046967  0.80514767  1
  O  O45  1  0.65817333  0.76645967  0.47465967  1
  O  O46  1  0.82864267  0.85228133  0.61844833  1
  O  O47  1  0.98862033  0.86815067  0.80514767  1
  O  O48  1  0.52484800  0.52492000  0.50074700  1
  O  O49  1  0.86754600  0.98882000  0.19587200  1
  O  O50  1  0.85320733  0.82859567  0.38244567  1
  O  O51  1  0.76702733  0.65762567  0.52528067  1
  O  O52  1  0.12127400  0.13245400  0.19587200  1
  O  O53  1  0.14771867  0.97636133  0.61844833  1
  O  O54  1  0.17140433  0.02461167  0.38244567  1
  O  O55  1  0.34237433  0.10940167  0.52528067  1
  O  O56  1  0.01118000  0.87872600  0.19587200  1
  O  O57  1  0.23354033  0.89171367  0.47465967  1
  O  O58  1  0.66666700  0.48666700  0.33345000  1
  O  O59  1  0.47508000  0.99992800  0.50074700  1
  O  O60  1  0.66673867  0.80848533  0.83408033  1
  O  O61  1  0.17999967  0.51333333  0.66678333  1
  O  O62  1  0.55726500  0.56630600  0.85861400  1
  O  O63  1  0.54619700  0.34471300  0.13848100  1
  O  O64  1  0.48666667  0.66666633  0.66678333  1
  O  O65  1  0.77495300  0.67516000  0.80799300  1
  O  O66  1  0.69030533  0.50469067  0.95178167  1
  O  O67  1  0.64205500  0.48012600  0.71577900  1
  O  O68  1  0.79851600  0.45380300  0.13848100  1
  O  O69  1  0.32484000  0.09979300  0.80799300  1
  O  O70  1  0.49530933  0.18561467  0.95178167  1
  O  O71  1  0.65528700  0.20148400  0.13848100  1
  O  O72  1  0.19151467  0.85825333  0.83408033  1
  O  O73  1  0.53421267  0.32215333  0.52920533  1
  O  O74  1  0.51987400  0.16192900  0.71577900  1
  O  O75  1  0.43369400  0.99095900  0.85861400  1
  O  O76  1  0.78794067  0.46578733  0.52920533  1
  O  O77  1  0.81438533  0.30969467  0.95178167  1
  O  O78  1  0.83807100  0.35794500  0.71577900  1
  O  O79  1  0.00904100  0.44273500  0.85861400  1
  O  O80  1  0.67784667  0.21205933  0.52920533  1
  O  O81  1  0.90020700  0.22504700  0.80799300  1
  O  O82  1  0.33333367  0.82000033  0.66678333  1
  O  O83  1  0.14174667  0.33326133  0.83408033  1
  O  O84  1  0.33340533  0.14181867  0.16741367  1
  O  O85  1  0.84666633  0.84666667  0.00011667  1
  O  O86  1  0.22393167  0.89963933  0.19194733  1
  O  O87  1  0.21286367  0.67804633  0.47181433  1
  O  O88  1  0.15333333  0.99999967  0.00011667  1
  O  O89  1  0.44161967  0.00849333  0.14132633  1
  O  O90  1  0.35697200  0.83802400  0.28511500  1
  O  O91  1  0.30872167  0.81345933  0.04911233  1
  O  O92  1  0.46518267  0.78713633  0.47181433  1
  O  O93  1  0.99150667  0.43312633  0.14132633  1
  O  O94  1  0.16197600  0.51894800  0.28511500  1
  O  O95  1  0.32195367  0.53481733  0.47181433  1
  O  O96  1  0.85818133  0.19158667  0.16741367  1
  O  O97  1  0.20087933  0.65548667  0.86253867  1
  O  O98  1  0.18654067  0.49526233  0.04911233  1
  O  O99  1  0.10036067  0.32429233  0.19194733  1
  O  O100  1  0.45460733  0.79912067  0.86253867  1
  O  O101  1  0.48105200  0.64302800  0.28511500  1
  O  O102  1  0.50473767  0.69127833  0.04911233  1
  O  O103  1  0.67570767  0.77606833  0.19194733  1
  O  O104  1  0.34451333  0.54539267  0.86253867  1
  O  O105  1  0.56687367  0.55838033  0.14132633  1
  O  O106  1  0.00000033  0.15333367  0.00011667  1
  O  O107  1  0.80841333  0.66659467  0.16741367  1
