# generated using pymatgen
data_LiBiB2O5
_symmetry_space_group_name_H-M   'P 1'
_cell_length_a   10.80808600
_cell_length_b   10.84457000
_cell_length_c   10.57426132
_cell_angle_alpha   90.00000000
_cell_angle_beta   119.92478187
_cell_angle_gamma   90.00000000
_symmetry_Int_Tables_number   1
_chemical_formula_structural   LiBiB2O5
_chemical_formula_sum   'Li8 Bi8 B16 O40'
_cell_volume   1074.16370118
_cell_formula_units_Z   8
loop_
 _symmetry_equiv_pos_site_id
 _symmetry_equiv_pos_as_xyz
  1  'x, y, z'
loop_
 _atom_site_type_symbol
 _atom_site_label
 _atom_site_symmetry_multiplicity
 _atom_site_fract_x
 _atom_site_fract_y
 _atom_site_fract_z
 _atom_site_occupancy
  Li  Li0  1  0.50000000  0.60884400  0.25000000  1
  Li  Li1  1  0.50000000  0.14322800  0.25000000  1
  Li  Li2  1  0.50000000  0.85677200  0.75000000  1
  Li  Li3  1  0.50000000  0.39115600  0.75000000  1
  Li  Li4  1  0.00000000  0.10884400  0.25000000  1
  Li  Li5  1  0.00000000  0.64322800  0.25000000  1
  Li  Li6  1  0.00000000  0.35677200  0.75000000  1
  Li  Li7  1  0.00000000  0.89115600  0.75000000  1
  Bi  Bi8  1  0.82255300  0.93374000  0.35701700  1
  Bi  Bi9  1  0.82255300  0.06626000  0.85701700  1
  Bi  Bi10  1  0.17744700  0.93374000  0.14298300  1
  Bi  Bi11  1  0.17744700  0.06626000  0.64298300  1
  Bi  Bi12  1  0.32255300  0.43374000  0.35701700  1
  Bi  Bi13  1  0.32255300  0.56626000  0.85701700  1
  Bi  Bi14  1  0.67744700  0.43374000  0.14298300  1
  Bi  Bi15  1  0.67744700  0.56626000  0.64298300  1
  B  B16  1  0.60170900  0.74760600  0.12122500  1
  B  B17  1  0.69633350  0.90996350  0.01325200  1
  B  B18  1  0.60170900  0.25239400  0.62122500  1
  B  B19  1  0.69633350  0.09003650  0.51325200  1
  B  B20  1  0.30366650  0.90996350  0.48674800  1
  B  B21  1  0.39829100  0.74760600  0.37877500  1
  B  B22  1  0.30366650  0.09003650  0.98674800  1
  B  B23  1  0.39829100  0.25239400  0.87877500  1
  B  B24  1  0.10170900  0.24760600  0.12122500  1
  B  B25  1  0.19633350  0.40996350  0.01325200  1
  B  B26  1  0.10170900  0.75239400  0.62122500  1
  B  B27  1  0.19633350  0.59003650  0.51325200  1
  B  B28  1  0.80366650  0.40996350  0.48674800  1
  B  B29  1  0.89829100  0.24760600  0.37877500  1
  B  B30  1  0.80366650  0.59003650  0.98674800  1
  B  B31  1  0.89829100  0.75239400  0.87877500  1
  O  O32  1  0.52248750  0.64030950  0.08375500  1
  O  O33  1  0.67767950  0.77798150  0.26560100  1
  O  O34  1  0.52248750  0.35969050  0.58375500  1
  O  O35  1  0.80762150  0.95889950  0.13714100  1
  O  O36  1  0.33391150  0.05568250  0.12492900  1
  O  O37  1  0.67767950  0.22201850  0.76560100  1
  O  O38  1  0.59993200  0.18127200  0.50832600  1
  O  O39  1  0.40006800  0.18127200  0.99167400  1
  O  O40  1  0.80762150  0.04110050  0.63714100  1
  O  O41  1  0.33391150  0.94431750  0.62492900  1
  O  O42  1  0.66608850  0.05568250  0.37507100  1
  O  O43  1  0.19237850  0.95889950  0.36285900  1
  O  O44  1  0.59993200  0.81872800  0.00832600  1
  O  O45  1  0.40006800  0.81872800  0.49167400  1
  O  O46  1  0.32232050  0.77798150  0.23439900  1
  O  O47  1  0.66608850  0.94431750  0.87507100  1
  O  O48  1  0.19237850  0.04110050  0.86285900  1
  O  O49  1  0.47751250  0.64030950  0.41624500  1
  O  O50  1  0.32232050  0.22201850  0.73439900  1
  O  O51  1  0.47751250  0.35969050  0.91624500  1
  O  O52  1  0.02248750  0.14030950  0.08375500  1
  O  O53  1  0.17767950  0.27798150  0.26560100  1
  O  O54  1  0.02248750  0.85969050  0.58375500  1
  O  O55  1  0.30762150  0.45889950  0.13714100  1
  O  O56  1  0.83391150  0.55568250  0.12492900  1
  O  O57  1  0.17767950  0.72201850  0.76560100  1
  O  O58  1  0.09993200  0.68127200  0.50832600  1
  O  O59  1  0.90006800  0.68127200  0.99167400  1
  O  O60  1  0.30762150  0.54110050  0.63714100  1
  O  O61  1  0.83391150  0.44431750  0.62492900  1
  O  O62  1  0.16608850  0.55568250  0.37507100  1
  O  O63  1  0.69237850  0.45889950  0.36285900  1
  O  O64  1  0.09993200  0.31872800  0.00832600  1
  O  O65  1  0.90006800  0.31872800  0.49167400  1
  O  O66  1  0.82232050  0.27798150  0.23439900  1
  O  O67  1  0.16608850  0.44431750  0.87507100  1
  O  O68  1  0.69237850  0.54110050  0.86285900  1
  O  O69  1  0.97751250  0.14030950  0.41624500  1
  O  O70  1  0.82232050  0.72201850  0.73439900  1
  O  O71  1  0.97751250  0.85969050  0.91624500  1
