# generated using pymatgen
data_Li4Mn3NbO8
_symmetry_space_group_name_H-M   'P 1'
_cell_length_a   6.21859713
_cell_length_b   6.21859713
_cell_length_c   14.77243793
_cell_angle_alpha   90.00000000
_cell_angle_beta   90.00000000
_cell_angle_gamma   120.00000000
_symmetry_Int_Tables_number   1
_chemical_formula_structural   Li4Mn3NbO8
_chemical_formula_sum   'Li12 Mn9 Nb3 O24'
_cell_volume   494.72932025
_cell_formula_units_Z   3
loop_
 _symmetry_equiv_pos_site_id
 _symmetry_equiv_pos_as_xyz
  1  'x, y, z'
loop_
 _atom_site_type_symbol
 _atom_site_label
 _atom_site_symmetry_multiplicity
 _atom_site_fract_x
 _atom_site_fract_y
 _atom_site_fract_z
 _atom_site_occupancy
  Li  Li0  1  0.33333333  0.66666667  0.16996550  1
  Li  Li1  1  0.17020567  0.34041133  0.83570883  1
  Li  Li2  1  0.65958867  0.82979433  0.83570883  1
  Li  Li3  1  0.49646100  0.50353900  0.49762450  1
  Li  Li4  1  0.00000000  0.00000000  0.50329883  1
  Li  Li5  1  0.83687233  0.67374467  0.16904217  1
  Li  Li6  1  0.32625533  0.16312767  0.16904217  1
  Li  Li7  1  0.16312767  0.83687233  0.83095783  1
  Li  Li8  1  0.66666667  0.33333333  0.83663217  1
  Li  Li9  1  0.50353900  0.00707800  0.50237550  1
  Li  Li10  1  0.99292200  0.49646100  0.50237550  1
  Li  Li11  1  0.82979433  0.17020567  0.16429117  1
  Mn  Mn12  1  0.50000000  0.00000000  0.00000000  1
  Mn  Mn13  1  0.66666667  0.83333333  0.33333333  1
  Mn  Mn14  1  0.50000000  0.50000000  0.00000000  1
  Mn  Mn15  1  0.16666667  0.33333333  0.33333333  1
  Mn  Mn16  1  0.33333333  0.16666667  0.66666667  1
  Mn  Mn17  1  0.16666667  0.83333333  0.33333333  1
  Mn  Mn18  1  0.83333333  0.66666667  0.66666667  1
  Mn  Mn19  1  0.00000000  0.50000000  0.00000000  1
  Mn  Mn20  1  0.83333333  0.16666667  0.66666667  1
  Nb  Nb21  1  0.00000000  0.00000000  0.00000000  1
  Nb  Nb22  1  0.66666667  0.33333333  0.33333333  1
  Nb  Nb23  1  0.33333333  0.66666667  0.66666667  1
  O  O24  1  0.33333333  0.66666667  0.40406717  1
  O  O25  1  0.33333333  0.66666667  0.92926617  1
  O  O26  1  0.15443000  0.30886000  0.08158550  1
  O  O27  1  0.69114000  0.84557000  0.08158550  1
  O  O28  1  0.15443000  0.84557000  0.08158550  1
  O  O29  1  0.51223667  0.02447333  0.25174783  1
  O  O30  1  0.97552667  0.48776333  0.25174783  1
  O  O31  1  0.51223667  0.48776333  0.25174783  1
  O  O32  1  0.00000000  0.00000000  0.73740050  1
  O  O33  1  0.00000000  0.00000000  0.26259950  1
  O  O34  1  0.82109667  0.64219333  0.41491883  1
  O  O35  1  0.35780667  0.17890333  0.41491883  1
  O  O36  1  0.82109667  0.17890333  0.41491883  1
  O  O37  1  0.17890333  0.35780667  0.58508117  1
  O  O38  1  0.64219333  0.82109667  0.58508117  1
  O  O39  1  0.17890333  0.82109667  0.58508117  1
  O  O40  1  0.66666667  0.33333333  0.07073383  1
  O  O41  1  0.66666667  0.33333333  0.59593283  1
  O  O42  1  0.48776333  0.97552667  0.74825217  1
  O  O43  1  0.02447333  0.51223667  0.74825217  1
  O  O44  1  0.48776333  0.51223667  0.74825217  1
  O  O45  1  0.84557000  0.69114000  0.91841450  1
  O  O46  1  0.30886000  0.15443000  0.91841450  1
  O  O47  1  0.84557000  0.15443000  0.91841450  1
