# generated using pymatgen
data_Rb2MgO2
_symmetry_space_group_name_H-M   'P 1'
_cell_length_a   5.63648100
_cell_length_b   6.52831300
_cell_length_c   10.93176600
_cell_angle_alpha   90.00000000
_cell_angle_beta   90.00000000
_cell_angle_gamma   90.00000000
_symmetry_Int_Tables_number   1
_chemical_formula_structural   Rb2MgO2
_chemical_formula_sum   'Rb8 Mg4 O8'
_cell_volume   402.25304719
_cell_formula_units_Z   4
loop_
 _symmetry_equiv_pos_site_id
 _symmetry_equiv_pos_as_xyz
  1  'x, y, z'
loop_
 _atom_site_type_symbol
 _atom_site_label
 _atom_site_symmetry_multiplicity
 _atom_site_fract_x
 _atom_site_fract_y
 _atom_site_fract_z
 _atom_site_occupancy
  Rb  Rb0  1  0.56171400  0.36226500  0.84443300  1
  Rb  Rb1  1  0.06171400  0.63773500  0.84443300  1
  Rb  Rb2  1  0.06171400  0.13773500  0.65556700  1
  Rb  Rb3  1  0.56171400  0.86226500  0.65556700  1
  Rb  Rb4  1  0.43828600  0.13773500  0.34443300  1
  Rb  Rb5  1  0.93828600  0.86226500  0.34443300  1
  Rb  Rb6  1  0.93828600  0.36226500  0.15556700  1
  Rb  Rb7  1  0.43828600  0.63773500  0.15556700  1
  Mg  Mg8  1  0.25000000  0.01275700  0.00000000  1
  Mg  Mg9  1  0.75000000  0.98724300  0.00000000  1
  Mg  Mg10  1  0.75000000  0.48724300  0.50000000  1
  Mg  Mg11  1  0.25000000  0.51275700  0.50000000  1
  O  O12  1  0.99425500  0.16554600  0.90933000  1
  O  O13  1  0.49425500  0.83445400  0.90933000  1
  O  O14  1  0.49425500  0.33445400  0.59067000  1
  O  O15  1  0.99425500  0.66554600  0.59067000  1
  O  O16  1  0.00574500  0.33445400  0.40933000  1
  O  O17  1  0.50574500  0.66554600  0.40933000  1
  O  O18  1  0.50574500  0.16554600  0.09067000  1
  O  O19  1  0.00574500  0.83445400  0.09067000  1
