# generated using pymatgen
data_Al2(SeO4)3
_symmetry_space_group_name_H-M   'P 1'
_cell_length_a   8.48272567
_cell_length_b   8.48272567
_cell_length_c   22.55383370
_cell_angle_alpha   90.00000000
_cell_angle_beta   90.00000000
_cell_angle_gamma   120.00000000
_symmetry_Int_Tables_number   1
_chemical_formula_structural   Al2(SeO4)3
_chemical_formula_sum   'Al12 Se18 O72'
_cell_volume   1405.47087492
_cell_formula_units_Z   6
loop_
 _symmetry_equiv_pos_site_id
 _symmetry_equiv_pos_as_xyz
  1  'x, y, z'
loop_
 _atom_site_type_symbol
 _atom_site_label
 _atom_site_symmetry_multiplicity
 _atom_site_fract_x
 _atom_site_fract_y
 _atom_site_fract_z
 _atom_site_occupancy
  Al  Al0  1  0.33333333  0.66666667  0.31481267  1
  Al  Al1  1  0.66666667  0.33333333  0.18981633  1
  Al  Al2  1  0.00000000  0.00000000  0.14351700  1
  Al  Al3  1  0.33333333  0.66666667  0.01852067  1
  Al  Al4  1  0.00000000  0.00000000  0.64814600  1
  Al  Al5  1  0.33333333  0.66666667  0.52314967  1
  Al  Al6  1  0.66666667  0.33333333  0.47685033  1
  Al  Al7  1  0.00000000  0.00000000  0.35185400  1
  Al  Al8  1  0.66666667  0.33333333  0.98147933  1
  Al  Al9  1  0.00000000  0.00000000  0.85648300  1
  Al  Al10  1  0.33333333  0.66666667  0.81018367  1
  Al  Al11  1  0.66666667  0.33333333  0.68518733  1
  Se  Se12  1  0.28901833  0.28677067  0.25102267  1
  Se  Se13  1  0.99775233  0.71098167  0.25102267  1
  Se  Se14  1  0.71322933  0.00224767  0.25102267  1
  Se  Se15  1  0.95343733  0.33108567  0.08231067  1
  Se  Se16  1  0.66891433  0.62235167  0.08231067  1
  Se  Se17  1  0.37764833  0.04656267  0.08231067  1
  Se  Se18  1  0.95568500  0.62010400  0.58435600  1
  Se  Se19  1  0.66441900  0.04431500  0.58435600  1
  Se  Se20  1  0.37989600  0.33558100  0.58435600  1
  Se  Se21  1  0.62010400  0.66441900  0.41564400  1
  Se  Se22  1  0.33558100  0.95568500  0.41564400  1
  Se  Se23  1  0.04431500  0.37989600  0.41564400  1
  Se  Se24  1  0.62235167  0.95343733  0.91768933  1
  Se  Se25  1  0.33108567  0.37764833  0.91768933  1
  Se  Se26  1  0.04656267  0.66891433  0.91768933  1
  Se  Se27  1  0.28677067  0.99775233  0.74897733  1
  Se  Se28  1  0.00224767  0.28901833  0.74897733  1
  Se  Se29  1  0.71098167  0.71322933  0.74897733  1
  O  O30  1  0.25316733  0.45933667  0.26408167  1
  O  O31  1  0.50962600  0.36246100  0.24429700  1
  O  O32  1  0.18178200  0.19758500  0.18752100  1
  O  O33  1  0.91590767  0.78406933  0.30554833  1
  O  O34  1  0.85283500  0.49037400  0.24429700  1
  O  O35  1  0.20616933  0.74683267  0.26408167  1
  O  O36  1  0.54066333  0.79383067  0.26408167  1
  O  O37  1  0.86816167  0.08409233  0.30554833  1
  O  O38  1  0.86425167  0.34913633  0.14581233  1
  O  O39  1  0.21593067  0.13183833  0.30554833  1
  O  O40  1  0.02912767  0.18616833  0.08903633  1
  O  O41  1  0.65086367  0.51511533  0.14581233  1
  O  O42  1  0.01580300  0.81821800  0.18752100  1
  O  O43  1  0.63753900  0.14716500  0.24429700  1
  O  O44  1  0.45073600  0.20149500  0.02778500  1
  O  O45  1  0.80241500  0.98419700  0.18752100  1
  O  O46  1  0.79850500  0.24924100  0.02778500  1
  O  O47  1  0.12600333  0.53950267  0.06925167  1
  O  O48  1  0.46049733  0.58650067  0.06925167  1
  O  O49  1  0.81383167  0.84295933  0.08903633  1
  O  O50  1  0.75075900  0.54926400  0.02778500  1
  O  O51  1  0.48488467  0.13574833  0.14581233  1
  O  O52  1  0.15704067  0.97087233  0.08903633  1
  O  O53  1  0.41349933  0.87399667  0.06925167  1
  O  O54  1  0.91983400  0.79267000  0.59741500  1
  O  O55  1  0.17629267  0.69579433  0.57763033  1
  O  O56  1  0.84844867  0.53091833  0.52085433  1
  O  O57  1  0.58257433  0.11740267  0.63888167  1
  O  O58  1  0.51950167  0.82370733  0.57763033  1
  O  O59  1  0.87283600  0.08016600  0.59741500  1
  O  O60  1  0.20733000  0.12716400  0.59741500  1
  O  O61  1  0.53482833  0.41742567  0.63888167  1
  O  O62  1  0.53091833  0.68246967  0.47914567  1
  O  O63  1  0.88259733  0.46517167  0.63888167  1
  O  O64  1  0.69579433  0.51950167  0.42236967  1
  O  O65  1  0.31753033  0.84844867  0.47914567  1
  O  O66  1  0.68246967  0.15155133  0.52085433  1
  O  O67  1  0.30420567  0.48049833  0.57763033  1
  O  O68  1  0.11740267  0.53482833  0.36111833  1
  O  O69  1  0.46908167  0.31753033  0.52085433  1
  O  O70  1  0.46517167  0.58257433  0.36111833  1
  O  O71  1  0.79267000  0.87283600  0.40258500  1
  O  O72  1  0.12716400  0.91983400  0.40258500  1
  O  O73  1  0.48049833  0.17629267  0.42236967  1
  O  O74  1  0.41742567  0.88259733  0.36111833  1
  O  O75  1  0.15155133  0.46908167  0.47914567  1
  O  O76  1  0.82370733  0.30420567  0.42236967  1
  O  O77  1  0.08016600  0.20733000  0.40258500  1
  O  O78  1  0.58650067  0.12600333  0.93074833  1
  O  O79  1  0.84295933  0.02912767  0.91096367  1
  O  O80  1  0.51511533  0.86425167  0.85418767  1
  O  O81  1  0.24924100  0.45073600  0.97221500  1
  O  O82  1  0.18616833  0.15704067  0.91096367  1
  O  O83  1  0.53950267  0.41349933  0.93074833  1
  O  O84  1  0.87399667  0.46049733  0.93074833  1
  O  O85  1  0.20149500  0.75075900  0.97221500  1
  O  O86  1  0.19758500  0.01580300  0.81247900  1
  O  O87  1  0.54926400  0.79850500  0.97221500  1
  O  O88  1  0.36246100  0.85283500  0.75570300  1
  O  O89  1  0.98419700  0.18178200  0.81247900  1
  O  O90  1  0.34913633  0.48488467  0.85418767  1
  O  O91  1  0.97087233  0.81383167  0.91096367  1
  O  O92  1  0.78406933  0.86816167  0.69445167  1
  O  O93  1  0.13574833  0.65086367  0.85418767  1
  O  O94  1  0.13183833  0.91590767  0.69445167  1
  O  O95  1  0.45933667  0.20616933  0.73591833  1
  O  O96  1  0.79383067  0.25316733  0.73591833  1
  O  O97  1  0.14716500  0.50962600  0.75570300  1
  O  O98  1  0.08409233  0.21593067  0.69445167  1
  O  O99  1  0.81821800  0.80241500  0.81247900  1
  O  O100  1  0.49037400  0.63753900  0.75570300  1
  O  O101  1  0.74683267  0.54066333  0.73591833  1
