# generated using pymatgen
data_LiZn2Fe9O16
_symmetry_space_group_name_H-M   'P 1'
_cell_length_a   10.48823600
_cell_length_b   6.04340000
_cell_length_c   10.47543555
_cell_angle_alpha   90.00000000
_cell_angle_beta   109.82573570
_cell_angle_gamma   90.00000000
_symmetry_Int_Tables_number   1
_chemical_formula_structural   LiZn2Fe9O16
_chemical_formula_sum   'Li2 Zn4 Fe18 O32'
_cell_volume   624.62619310
_cell_formula_units_Z   2
loop_
 _symmetry_equiv_pos_site_id
 _symmetry_equiv_pos_as_xyz
  1  'x, y, z'
loop_
 _atom_site_type_symbol
 _atom_site_label
 _atom_site_symmetry_multiplicity
 _atom_site_fract_x
 _atom_site_fract_y
 _atom_site_fract_z
 _atom_site_occupancy
  Li  Li0  1  0.62436900  0.50000000  0.37569600  1
  Li  Li1  1  0.12436900  0.00000000  0.37569600  1
  Zn  Zn2  1  0.56407100  0.50000000  0.68591900  1
  Zn  Zn3  1  0.81159000  0.50000000  0.93725700  1
  Zn  Zn4  1  0.06407100  0.00000000  0.68591900  1
  Zn  Zn5  1  0.31159000  0.00000000  0.93725700  1
  Fe  Fe6  1  0.50047500  0.50000000  0.00380600  1
  Fe  Fe7  1  0.62826900  0.00000000  0.87067000  1
  Fe  Fe8  1  0.49663900  0.00000000  0.50116100  1
  Fe  Fe9  1  0.81144350  0.25507250  0.68663800  1
  Fe  Fe10  1  0.81144350  0.74492750  0.68663800  1
  Fe  Fe11  1  0.56475100  0.00000000  0.18937500  1
  Fe  Fe12  1  0.30887300  0.50000000  0.43077500  1
  Fe  Fe13  1  0.31184150  0.25312750  0.19053100  1
  Fe  Fe14  1  0.31184150  0.74687250  0.19053100  1
  Fe  Fe15  1  0.00047500  0.00000000  0.00380600  1
  Fe  Fe16  1  0.12826900  0.50000000  0.87067000  1
  Fe  Fe17  1  0.99663900  0.50000000  0.50116100  1
  Fe  Fe18  1  0.31144350  0.75507250  0.68663800  1
  Fe  Fe19  1  0.31144350  0.24492750  0.68663800  1
  Fe  Fe20  1  0.06475100  0.50000000  0.18937500  1
  Fe  Fe21  1  0.80887300  0.00000000  0.43077500  1
  Fe  Fe22  1  0.81184150  0.75312750  0.19053100  1
  Fe  Fe23  1  0.81184150  0.24687250  0.19053100  1
  O  O24  1  0.69529250  0.25421050  0.80872300  1
  O  O25  1  0.69529250  0.74578950  0.80872300  1
  O  O26  1  0.43165200  0.00000000  0.80519800  1
  O  O27  1  0.70010900  0.50000000  0.58317800  1
  O  O28  1  0.43223000  0.50000000  0.80525500  1
  O  O29  1  0.69682000  0.00000000  0.56486800  1
  O  O30  1  0.42759550  0.73957450  0.56147800  1
  O  O31  1  0.42759550  0.26042550  0.56147800  1
  O  O32  1  0.19126350  0.27423650  0.30312000  1
  O  O33  1  0.19126350  0.72576350  0.30312000  1
  O  O34  1  0.41808100  0.50000000  0.30631800  1
  O  O35  1  0.19209100  0.50000000  0.06997100  1
  O  O36  1  0.43231400  0.00000000  0.30224200  1
  O  O37  1  0.19755200  0.00000000  0.07109600  1
  O  O38  1  0.43762200  0.76125700  0.07311600  1
  O  O39  1  0.43762200  0.23874300  0.07311600  1
  O  O40  1  0.19529250  0.75421050  0.80872300  1
  O  O41  1  0.19529250  0.24578950  0.80872300  1
  O  O42  1  0.93165200  0.50000000  0.80519800  1
  O  O43  1  0.20010900  0.00000000  0.58317800  1
  O  O44  1  0.93223000  0.00000000  0.80525500  1
  O  O45  1  0.19682000  0.50000000  0.56486800  1
  O  O46  1  0.92759550  0.23957450  0.56147800  1
  O  O47  1  0.92759550  0.76042550  0.56147800  1
  O  O48  1  0.69126350  0.77423650  0.30312000  1
  O  O49  1  0.69126350  0.22576350  0.30312000  1
  O  O50  1  0.91808100  0.00000000  0.30631800  1
  O  O51  1  0.69209100  0.00000000  0.06997100  1
  O  O52  1  0.93231400  0.50000000  0.30224200  1
  O  O53  1  0.69755200  0.50000000  0.07109600  1
  O  O54  1  0.93762200  0.26125700  0.07311600  1
  O  O55  1  0.93762200  0.73874300  0.07311600  1
