# generated using pymatgen
data_Cd(GaO2)2
_symmetry_space_group_name_H-M   'P 1'
_cell_length_a   3.00851100
_cell_length_b   9.25103200
_cell_length_c   10.76849400
_cell_angle_alpha   90.00000000
_cell_angle_beta   90.00000000
_cell_angle_gamma   90.00000000
_symmetry_Int_Tables_number   1
_chemical_formula_structural   Cd(GaO2)2
_chemical_formula_sum   'Cd4 Ga8 O16'
_cell_volume   299.70691088
_cell_formula_units_Z   4
loop_
 _symmetry_equiv_pos_site_id
 _symmetry_equiv_pos_as_xyz
  1  'x, y, z'
loop_
 _atom_site_type_symbol
 _atom_site_label
 _atom_site_symmetry_multiplicity
 _atom_site_fract_x
 _atom_site_fract_y
 _atom_site_fract_z
 _atom_site_occupancy
  Cd  Cd0  1  0.75000000  0.74199900  0.84505100  1
  Cd  Cd1  1  0.25000000  0.75800100  0.34505100  1
  Cd  Cd2  1  0.75000000  0.24199900  0.65494900  1
  Cd  Cd3  1  0.25000000  0.25800100  0.15494900  1
  Ga  Ga4  1  0.75000000  0.58337900  0.10467100  1
  Ga  Ga5  1  0.75000000  0.56363600  0.61270900  1
  Ga  Ga6  1  0.25000000  0.93636400  0.11270900  1
  Ga  Ga7  1  0.25000000  0.91662100  0.60467100  1
  Ga  Ga8  1  0.75000000  0.08337900  0.39532900  1
  Ga  Ga9  1  0.75000000  0.06363600  0.88729100  1
  Ga  Ga10  1  0.25000000  0.43636400  0.38729100  1
  Ga  Ga11  1  0.25000000  0.41662100  0.89532900  1
  O  O12  1  0.25000000  0.52980500  0.21584500  1
  O  O13  1  0.75000000  0.58120000  0.42923900  1
  O  O14  1  0.25000000  0.61576900  0.97664100  1
  O  O15  1  0.25000000  0.70363900  0.65864000  1
  O  O16  1  0.75000000  0.79636100  0.15864000  1
  O  O17  1  0.75000000  0.88423100  0.47664100  1
  O  O18  1  0.25000000  0.91880000  0.92923900  1
  O  O19  1  0.75000000  0.97019500  0.71584500  1
  O  O20  1  0.25000000  0.02980500  0.28415500  1
  O  O21  1  0.75000000  0.08120000  0.07076100  1
  O  O22  1  0.25000000  0.11576900  0.52335900  1
  O  O23  1  0.25000000  0.20363900  0.84136000  1
  O  O24  1  0.75000000  0.29636100  0.34136000  1
  O  O25  1  0.75000000  0.38423100  0.02335900  1
  O  O26  1  0.25000000  0.41880000  0.57076100  1
  O  O27  1  0.75000000  0.47019500  0.78415500  1
