# generated using pymatgen
data_Ba2Ti6N2O11
_symmetry_space_group_name_H-M   'P 1'
_cell_length_a   15.35938600
_cell_length_b   3.95550400
_cell_length_c   9.20173873
_cell_angle_alpha   90.00000000
_cell_angle_beta   98.64286173
_cell_angle_gamma   90.00000000
_symmetry_Int_Tables_number   1
_chemical_formula_structural   Ba2Ti6N2O11
_chemical_formula_sum   'Ba4 Ti12 N4 O22'
_cell_volume   552.69510929
_cell_formula_units_Z   2
loop_
 _symmetry_equiv_pos_site_id
 _symmetry_equiv_pos_as_xyz
  1  'x, y, z'
loop_
 _atom_site_type_symbol
 _atom_site_label
 _atom_site_symmetry_multiplicity
 _atom_site_fract_x
 _atom_site_fract_y
 _atom_site_fract_z
 _atom_site_occupancy
  Ba  Ba0  1  0.95214800  0.50000000  0.23437200  1
  Ba  Ba1  1  0.54785200  0.00000000  0.76562800  1
  Ba  Ba2  1  0.45214800  0.00000000  0.23437200  1
  Ba  Ba3  1  0.04785200  0.50000000  0.76562800  1
  Ti  Ti4  1  0.88014300  0.00000000  0.90675000  1
  Ti  Ti5  1  0.82457500  0.00000000  0.55532100  1
  Ti  Ti6  1  0.75811600  0.00000000  0.23650600  1
  Ti  Ti7  1  0.74188400  0.50000000  0.76349400  1
  Ti  Ti8  1  0.67542500  0.50000000  0.44467900  1
  Ti  Ti9  1  0.61985700  0.50000000  0.09325000  1
  Ti  Ti10  1  0.38014300  0.50000000  0.90675000  1
  Ti  Ti11  1  0.32457500  0.50000000  0.55532100  1
  Ti  Ti12  1  0.25811600  0.50000000  0.23650600  1
  Ti  Ti13  1  0.24188400  0.00000000  0.76349400  1
  Ti  Ti14  1  0.17542500  0.00000000  0.44467900  1
  Ti  Ti15  1  0.11985700  0.00000000  0.09325000  1
  N  N16  1  0.79597700  0.50000000  0.57912100  1
  N  N17  1  0.70402300  0.00000000  0.42087900  1
  N  N18  1  0.29597700  0.00000000  0.57912100  1
  N  N19  1  0.20402300  0.50000000  0.42087900  1
  O  O20  1  0.92416800  0.00000000  0.71263400  1
  O  O21  1  0.87230500  0.00000000  0.38153100  1
  O  O22  1  0.83787700  0.00000000  0.09058700  1
  O  O23  1  0.86212600  0.50000000  0.89117400  1
  O  O24  1  0.74275900  0.50000000  0.22826200  1
  O  O25  1  0.75724100  0.00000000  0.77173800  1
  O  O26  1  0.63787400  0.00000000  0.10882600  1
  O  O27  1  0.66212300  0.50000000  0.90941300  1
  O  O28  1  0.62769500  0.50000000  0.61846900  1
  O  O29  1  0.57583200  0.50000000  0.28736600  1
  O  O30  1  0.00000000  0.00000000  0.00000000  1
  O  O31  1  0.42416800  0.50000000  0.71263400  1
  O  O32  1  0.37230500  0.50000000  0.38153100  1
  O  O33  1  0.33787700  0.50000000  0.09058700  1
  O  O34  1  0.36212600  0.00000000  0.89117400  1
  O  O35  1  0.24275900  0.00000000  0.22826200  1
  O  O36  1  0.25724100  0.50000000  0.77173800  1
  O  O37  1  0.13787400  0.50000000  0.10882600  1
  O  O38  1  0.16212300  0.00000000  0.90941300  1
  O  O39  1  0.12769500  0.00000000  0.61846900  1
  O  O40  1  0.07583200  0.00000000  0.28736600  1
  O  O41  1  0.50000000  0.50000000  0.00000000  1
