# generated using pymatgen
data_Ti3Cr(PO4)6
_symmetry_space_group_name_H-M   'P 1'
_cell_length_a   8.58880599
_cell_length_b   8.58880599
_cell_length_c   21.79091533
_cell_angle_alpha   90.00000000
_cell_angle_beta   90.00000000
_cell_angle_gamma   120.00000000
_symmetry_Int_Tables_number   1
_chemical_formula_structural   Ti3Cr(PO4)6
_chemical_formula_sum   'Ti9 Cr3 P18 O72'
_cell_volume   1392.10402724
_cell_formula_units_Z   3
loop_
 _symmetry_equiv_pos_site_id
 _symmetry_equiv_pos_as_xyz
  1  'x, y, z'
loop_
 _atom_site_type_symbol
 _atom_site_label
 _atom_site_symmetry_multiplicity
 _atom_site_fract_x
 _atom_site_fract_y
 _atom_site_fract_z
 _atom_site_occupancy
  Ti  Ti0  1  0.66666667  0.33333333  0.19385533  1
  Ti  Ti1  1  0.33333333  0.66666667  0.30616967  1
  Ti  Ti2  1  0.33333333  0.66666667  0.02639367  1
  Ti  Ti3  1  0.33333333  0.66666667  0.52718867  1
  Ti  Ti4  1  0.00000000  0.00000000  0.63950300  1
  Ti  Ti5  1  0.00000000  0.00000000  0.35972700  1
  Ti  Ti6  1  0.00000000  0.00000000  0.86052200  1
  Ti  Ti7  1  0.66666667  0.33333333  0.97283633  1
  Ti  Ti8  1  0.66666667  0.33333333  0.69306033  1
  Cr  Cr9  1  0.00000000  0.00000000  0.14117500  1
  Cr  Cr10  1  0.66666667  0.33333333  0.47450833  1
  Cr  Cr11  1  0.33333333  0.66666667  0.80784167  1
  P  P12  1  0.28071633  0.99899067  0.24988967  1
  P  P13  1  0.00100933  0.28172567  0.24988967  1
  P  P14  1  0.71827433  0.71928367  0.24988967  1
  P  P15  1  0.94896200  0.61875200  0.08374900  1
  P  P16  1  0.66979000  0.05103800  0.08374900  1
  P  P17  1  0.38124800  0.33021000  0.08374900  1
  P  P18  1  0.94738300  0.33232400  0.58322300  1
  P  P19  1  0.66767600  0.61505900  0.58322300  1
  P  P20  1  0.38494100  0.05261700  0.58322300  1
  P  P21  1  0.61562867  0.95208533  0.41708233  1
  P  P22  1  0.33645667  0.38437133  0.41708233  1
  P  P23  1  0.04791467  0.66354333  0.41708233  1
  P  P24  1  0.61404967  0.66565733  0.91655633  1
  P  P25  1  0.33434267  0.94839233  0.91655633  1
  P  P26  1  0.05160767  0.38595033  0.91655633  1
  P  P27  1  0.28229533  0.28541867  0.75041567  1
  P  P28  1  0.00312333  0.71770467  0.75041567  1
  P  P29  1  0.71458133  0.99687667  0.75041567  1
  O  O30  1  0.46222567  0.29607033  0.02630033  1
  O  O31  1  0.83384467  0.53777433  0.02630033  1
  O  O32  1  0.46756333  0.16491567  0.24202067  1
  O  O33  1  0.70392967  0.16615533  0.02630033  1
  O  O34  1  0.29734633  0.82964967  0.25557367  1
  O  O35  1  0.16363400  0.97323900  0.19122900  1
  O  O36  1  0.83508433  0.30264767  0.24202067  1
  O  O37  1  0.17035033  0.46769667  0.25557367  1
  O  O38  1  0.53230333  0.70265367  0.25557367  1
  O  O39  1  0.86255000  0.50694300  0.14103100  1
  O  O40  1  0.97210133  0.81257367  0.09299867  1
  O  O41  1  0.64439300  0.13745000  0.14103100  1
  O  O42  1  0.02676100  0.19039500  0.19122900  1
  O  O43  1  0.69735233  0.53243667  0.24202067  1
  O  O44  1  0.80960500  0.83636600  0.19122900  1
  O  O45  1  0.13856933  0.64667467  0.07664067  1
  O  O46  1  0.50810533  0.86143067  0.07664067  1
  O  O47  1  0.84047233  0.02789867  0.09299867  1
  O  O48  1  0.49305700  0.35560700  0.14103100  1
  O  O49  1  0.35332533  0.49189467  0.07664067  1
  O  O50  1  0.97378333  0.16788567  0.30692567  1
  O  O51  1  0.18742633  0.15952767  0.09299867  1
  O  O52  1  0.83211433  0.80589767  0.30692567  1
  O  O53  1  0.19410233  0.02621667  0.30692567  1
  O  O54  1  0.12889233  0.62940367  0.35963367  1
  O  O55  1  0.50051133  0.87110767  0.35963367  1
  O  O56  1  0.13423000  0.49824900  0.57535400  1
  O  O57  1  0.37059633  0.49948867  0.35963367  1
  O  O58  1  0.96401300  0.16298300  0.58890700  1
  O  O59  1  0.83030067  0.30657233  0.52456233  1
  O  O60  1  0.50175100  0.63598100  0.57535400  1
  O  O61  1  0.83701700  0.80103000  0.58890700  1
  O  O62  1  0.19897000  0.03598700  0.58890700  1
  O  O63  1  0.52921667  0.84027633  0.47436433  1
  O  O64  1  0.63876800  0.14590700  0.42633200  1
  O  O65  1  0.31105967  0.47078333  0.47436433  1
  O  O66  1  0.69342767  0.52372833  0.52456233  1
  O  O67  1  0.36401900  0.86577000  0.57535400  1
  O  O68  1  0.47627167  0.16969933  0.52456233  1
  O  O69  1  0.80523600  0.98000800  0.40997400  1
  O  O70  1  0.17477200  0.19476400  0.40997400  1
  O  O71  1  0.50713900  0.36123200  0.42633200  1
  O  O72  1  0.15972367  0.68894033  0.47436433  1
  O  O73  1  0.01999200  0.82522800  0.40997400  1
  O  O74  1  0.64045000  0.50121900  0.64025900  1
  O  O75  1  0.85409300  0.49286100  0.42633200  1
  O  O76  1  0.49878100  0.13923100  0.64025900  1
  O  O77  1  0.86076900  0.35955000  0.64025900  1
  O  O78  1  0.79555900  0.96273700  0.69296700  1
  O  O79  1  0.16717800  0.20444100  0.69296700  1
  O  O80  1  0.80089667  0.83158233  0.90868733  1
  O  O81  1  0.03726300  0.83282200  0.69296700  1
  O  O82  1  0.63067967  0.49631633  0.92224033  1
  O  O83  1  0.49696733  0.63990567  0.85789567  1
  O  O84  1  0.16841767  0.96931433  0.90868733  1
  O  O85  1  0.50368367  0.13436333  0.92224033  1
  O  O86  1  0.86563667  0.36932033  0.92224033  1
  O  O87  1  0.19588333  0.17360967  0.80769767  1
  O  O88  1  0.30543467  0.47924033  0.75966533  1
  O  O89  1  0.97772633  0.80411667  0.80769767  1
  O  O90  1  0.36009433  0.85706167  0.85789567  1
  O  O91  1  0.03068567  0.19910333  0.90868733  1
  O  O92  1  0.14293833  0.50303267  0.85789567  1
  O  O93  1  0.47190267  0.31334133  0.74330733  1
  O  O94  1  0.84143867  0.52809733  0.74330733  1
  O  O95  1  0.17380567  0.69456533  0.75966533  1
  O  O96  1  0.82639033  0.02227367  0.80769767  1
  O  O97  1  0.68665867  0.15856133  0.74330733  1
  O  O98  1  0.30711667  0.83455233  0.97359233  1
  O  O99  1  0.52075967  0.82619433  0.75966533  1
  O  O100  1  0.16544767  0.47256433  0.97359233  1
  O  O101  1  0.52743567  0.69288333  0.97359233  1
