# generated using pymatgen
data_Li2MnAl2O6
_symmetry_space_group_name_H-M   'P 1'
_cell_length_a   4.96762900
_cell_length_b   8.49265800
_cell_length_c   10.15310500
_cell_angle_alpha   90.00000000
_cell_angle_beta   90.00000000
_cell_angle_gamma   90.00000000
_symmetry_Int_Tables_number   1
_chemical_formula_structural   Li2MnAl2O6
_chemical_formula_sum   'Li8 Mn4 Al8 O24'
_cell_volume   428.34299295
_cell_formula_units_Z   4
loop_
 _symmetry_equiv_pos_site_id
 _symmetry_equiv_pos_as_xyz
  1  'x, y, z'
loop_
 _atom_site_type_symbol
 _atom_site_label
 _atom_site_symmetry_multiplicity
 _atom_site_fract_x
 _atom_site_fract_y
 _atom_site_fract_z
 _atom_site_occupancy
  Li  Li0  1  0.90163650  0.25000000  0.25000000  1
  Li  Li1  1  0.09836350  0.75000000  0.75000000  1
  Li  Li2  1  0.09836350  0.25000000  0.75000000  1
  Li  Li3  1  0.90163650  0.75000000  0.25000000  1
  Li  Li4  1  0.40163650  0.75000000  0.25000000  1
  Li  Li5  1  0.59836350  0.25000000  0.75000000  1
  Li  Li6  1  0.59836350  0.75000000  0.75000000  1
  Li  Li7  1  0.40163650  0.25000000  0.25000000  1
  Mn  Mn8  1  0.00000000  0.50000000  0.00000000  1
  Mn  Mn9  1  0.50000000  0.50000000  0.50000000  1
  Mn  Mn10  1  0.50000000  0.00000000  0.00000000  1
  Mn  Mn11  1  0.00000000  0.00000000  0.50000000  1
  Al  Al12  1  0.00000000  0.66337950  0.50000000  1
  Al  Al13  1  0.00000000  0.16337950  0.00000000  1
  Al  Al14  1  0.00000000  0.33662050  0.50000000  1
  Al  Al15  1  0.00000000  0.83662050  0.00000000  1
  Al  Al16  1  0.50000000  0.16337950  0.50000000  1
  Al  Al17  1  0.50000000  0.66337950  0.00000000  1
  Al  Al18  1  0.50000000  0.83662050  0.50000000  1
  Al  Al19  1  0.50000000  0.33662050  0.00000000  1
  O  O20  1  0.83758700  0.67262050  0.89832400  1
  O  O21  1  0.83758700  0.17262050  0.60167600  1
  O  O22  1  0.16241300  0.17262050  0.39832400  1
  O  O23  1  0.16241300  0.67262050  0.10167600  1
  O  O24  1  0.16241300  0.82737950  0.39832400  1
  O  O25  1  0.16241300  0.32737950  0.10167600  1
  O  O26  1  0.83758700  0.82737950  0.60167600  1
  O  O27  1  0.83758700  0.32737950  0.89832400  1
  O  O28  1  0.83218100  0.50000000  0.59554400  1
  O  O29  1  0.66781900  0.50000000  0.09554400  1
  O  O30  1  0.16781900  0.50000000  0.40445600  1
  O  O31  1  0.33218100  0.50000000  0.90445600  1
  O  O32  1  0.33758700  0.17262050  0.89832400  1
  O  O33  1  0.33758700  0.67262050  0.60167600  1
  O  O34  1  0.66241300  0.67262050  0.39832400  1
  O  O35  1  0.66241300  0.17262050  0.10167600  1
  O  O36  1  0.66241300  0.32737950  0.39832400  1
  O  O37  1  0.66241300  0.82737950  0.10167600  1
  O  O38  1  0.33758700  0.32737950  0.60167600  1
  O  O39  1  0.33758700  0.82737950  0.89832400  1
  O  O40  1  0.33218100  0.00000000  0.59554400  1
  O  O41  1  0.16781900  0.00000000  0.09554400  1
  O  O42  1  0.66781900  0.00000000  0.40445600  1
  O  O43  1  0.83218100  0.00000000  0.90445600  1
