# generated using pymatgen
data_Li4Cr3Fe3(SnO8)2
_symmetry_space_group_name_H-M   'P 1'
_cell_length_a   5.96658548
_cell_length_b   5.98626971
_cell_length_c   9.74699286
_cell_angle_alpha   89.52651955
_cell_angle_beta   89.61672465
_cell_angle_gamma   60.10842893
_symmetry_Int_Tables_number   1
_chemical_formula_structural   Li4Cr3Fe3(SnO8)2
_chemical_formula_sum   'Li4 Cr3 Fe3 Sn2 O16'
_cell_volume   301.81454261
_cell_formula_units_Z   1
loop_
 _symmetry_equiv_pos_site_id
 _symmetry_equiv_pos_as_xyz
  1  'x, y, z'
loop_
 _atom_site_type_symbol
 _atom_site_label
 _atom_site_symmetry_multiplicity
 _atom_site_fract_x
 _atom_site_fract_y
 _atom_site_fract_z
 _atom_site_occupancy
  Li  Li0  1  0.32891200  0.66890900  0.10384500  1
  Li  Li1  1  0.00245300  0.99921500  0.00656400  1
  Li  Li2  1  0.00027300  0.00002400  0.50648400  1
  Li  Li3  1  0.66730900  0.33664800  0.60533100  1
  Cr  Cr4  1  0.17006000  0.33855000  0.78548300  1
  Cr  Cr5  1  0.17659200  0.83359900  0.78231000  1
  Cr  Cr6  1  0.34440000  0.17643800  0.28290000  1
  Fe  Fe7  1  0.66364000  0.82905900  0.78753000  1
  Fe  Fe8  1  0.83030200  0.16969600  0.28492600  1
  Fe  Fe9  1  0.83631200  0.66296400  0.28698200  1
  Sn  Sn10  1  0.33480300  0.66422600  0.50831700  1
  Sn  Sn11  1  0.66658000  0.32997700  0.00689600  1
  O  O12  1  0.16148500  0.32156200  0.40030000  1
  O  O13  1  0.03536600  0.52105900  0.66252200  1
  O  O14  1  0.31999700  0.67095400  0.89140500  1
  O  O15  1  0.01020800  0.99501800  0.69330100  1
  O  O16  1  0.01465100  0.00617900  0.19368800  1
  O  O17  1  0.16812400  0.84586100  0.40022800  1
  O  O18  1  0.48677400  0.52199400  0.66264600  1
  O  O19  1  0.47356900  0.96683100  0.66378800  1
  O  O20  1  0.32118600  0.15803700  0.89915100  1
  O  O21  1  0.67993400  0.83691900  0.40020400  1
  O  O22  1  0.51275900  0.03382000  0.16070400  1
  O  O23  1  0.50231500  0.47000800  0.16298200  1
  O  O24  1  0.64889700  0.32292000  0.39276400  1
  O  O25  1  0.83740100  0.15532000  0.90021700  1
  O  O26  1  0.96228500  0.48576800  0.16015000  1
  O  O27  1  0.84341400  0.67814500  0.90054600  1
