# generated using pymatgen
data_Y13Tm3O24
_symmetry_space_group_name_H-M   'P 1'
_cell_length_a   9.23581200
_cell_length_b   9.24103427
_cell_length_c   9.24417586
_cell_angle_alpha   109.48201459
_cell_angle_beta   109.44973191
_cell_angle_gamma   109.42393273
_symmetry_Int_Tables_number   1
_chemical_formula_structural   Y13Tm3O24
_chemical_formula_sum   'Y13 Tm3 O24'
_cell_volume   607.78821451
_cell_formula_units_Z   1
loop_
 _symmetry_equiv_pos_site_id
 _symmetry_equiv_pos_as_xyz
  1  'x, y, z'
loop_
 _atom_site_type_symbol
 _atom_site_label
 _atom_site_symmetry_multiplicity
 _atom_site_fract_x
 _atom_site_fract_y
 _atom_site_fract_z
 _atom_site_occupancy
  Y  Y0  1  0.03199000  0.28157200  0.24967900  1
  Y  Y1  1  0.99898500  0.50028000  0.99998000  1
  Y  Y2  1  0.28338100  0.24873000  0.03263000  1
  Y  Y3  1  0.21625500  0.75074700  0.46752300  1
  Y  Y4  1  0.75003300  0.53418500  0.28280400  1
  Y  Y5  1  0.74974400  0.03271400  0.78362600  1
  Y  Y6  1  0.50045600  0.50053600  0.50096100  1
  Y  Y7  1  0.46579000  0.21611000  0.75046800  1
  Y  Y8  1  0.53500800  0.78462400  0.24910800  1
  Y  Y9  1  0.25068900  0.46686800  0.71723700  1
  Y  Y10  1  0.24921400  0.96620700  0.21602900  1
  Y  Y11  1  0.78374900  0.24924800  0.53252600  1
  Y  Y12  1  0.96685200  0.71773100  0.75034000  1
  Tm  Tm13  1  0.99966500  0.99974200  0.49859100  1
  Tm  Tm14  1  0.50045300  0.99935900  0.99989800  1
  Tm  Tm15  1  0.71604300  0.75125800  0.96672200  1
  O  O16  1  0.95729900  0.48967300  0.22873300  1
  O  O17  1  0.54323000  0.26790100  0.03299300  1
  O  O18  1  0.27096000  0.54203200  0.51016100  1
  O  O19  1  0.96450200  0.73930500  0.01008300  1
  O  O20  1  0.77467400  0.76505500  0.22805600  1
  O  O21  1  0.46668500  0.95684400  0.73184300  1
  O  O22  1  0.23570200  0.01047800  0.46732100  1
  O  O23  1  0.26171900  0.22904300  0.27181700  1
  O  O24  1  0.00894800  0.77531500  0.54245200  1
  O  O25  1  0.48983500  0.53273500  0.26079600  1
  O  O26  1  0.76798400  0.02975200  0.04244500  1
  O  O27  1  0.72815300  0.27069200  0.76027900  1
  O  O28  1  0.27133700  0.72895200  0.23880500  1
  O  O29  1  0.23219600  0.96625500  0.95700400  1
  O  O30  1  0.51367700  0.47134200  0.74346400  1
  O  O31  1  0.99042400  0.22505500  0.45735600  1
  O  O32  1  0.76463000  0.98904300  0.53256300  1
  O  O33  1  0.73786600  0.77088800  0.73122600  1
  O  O34  1  0.22486000  0.23479100  0.76798700  1
  O  O35  1  0.53326300  0.04313200  0.26810900  1
  O  O36  1  0.72899300  0.45796300  0.48977800  1
  O  O37  1  0.03179700  0.26089100  0.98980500  1
  O  O38  1  0.45986300  0.73213700  0.96672100  1
  O  O39  1  0.04309800  0.51081600  0.77208300  1
