# generated using pymatgen
data_Hf3N2O3
_symmetry_space_group_name_H-M   'P 1'
_cell_length_a   10.50330200
_cell_length_b   4.04943200
_cell_length_c   10.57302330
_cell_angle_alpha   90.00000000
_cell_angle_beta   90.31452345
_cell_angle_gamma   90.00000000
_symmetry_Int_Tables_number   1
_chemical_formula_structural   Hf3N2O3
_chemical_formula_sum   'Hf12 N8 O12'
_cell_volume   449.68935718
_cell_formula_units_Z   4
loop_
 _symmetry_equiv_pos_site_id
 _symmetry_equiv_pos_as_xyz
  1  'x, y, z'
loop_
 _atom_site_type_symbol
 _atom_site_label
 _atom_site_symmetry_multiplicity
 _atom_site_fract_x
 _atom_site_fract_y
 _atom_site_fract_z
 _atom_site_occupancy
  Hf  Hf0  1  0.85453800  0.00000000  0.43456400  1
  Hf  Hf1  1  0.85313300  0.00000000  0.06272400  1
  Hf  Hf2  1  0.80689600  0.00000000  0.75191300  1
  Hf  Hf3  1  0.69246000  0.50000000  0.24346300  1
  Hf  Hf4  1  0.64206900  0.50000000  0.94146900  1
  Hf  Hf5  1  0.63806900  0.50000000  0.56232800  1
  Hf  Hf6  1  0.35453800  0.50000000  0.43456400  1
  Hf  Hf7  1  0.35313300  0.50000000  0.06272400  1
  Hf  Hf8  1  0.30689600  0.50000000  0.75191300  1
  Hf  Hf9  1  0.19246000  0.00000000  0.24346300  1
  Hf  Hf10  1  0.14206900  0.00000000  0.94146900  1
  Hf  Hf11  1  0.13806900  0.00000000  0.56232800  1
  N  N12  1  0.70036700  0.00000000  0.57337100  1
  N  N13  1  0.69687900  0.00000000  0.91916900  1
  N  N14  1  0.76235900  0.00000000  0.25550400  1
  N  N15  1  0.79904200  0.50000000  0.07436500  1
  N  N16  1  0.20036700  0.50000000  0.57337100  1
  N  N17  1  0.19687900  0.50000000  0.91916900  1
  N  N18  1  0.26235900  0.50000000  0.25550400  1
  N  N19  1  0.29904200  0.00000000  0.07436500  1
  O  O20  1  0.95459400  0.00000000  0.88295300  1
  O  O21  1  0.95697200  0.00000000  0.61858000  1
  O  O22  1  0.54672000  0.50000000  0.38737900  1
  O  O23  1  0.54404600  0.50000000  0.11576300  1
  O  O24  1  0.80689500  0.50000000  0.42880100  1
  O  O25  1  0.74496300  0.50000000  0.74765300  1
  O  O26  1  0.45459400  0.50000000  0.88295300  1
  O  O27  1  0.45697200  0.50000000  0.61858000  1
  O  O28  1  0.04672000  0.00000000  0.38737900  1
  O  O29  1  0.04404600  0.00000000  0.11576300  1
  O  O30  1  0.30689500  0.00000000  0.42880100  1
  O  O31  1  0.24496300  0.00000000  0.74765300  1
