# generated using pymatgen
data_Li11(CoO4)2
_symmetry_space_group_name_H-M   'P 1'
_cell_length_a   9.20149800
_cell_length_b   9.41748000
_cell_length_c   9.33611200
_cell_angle_alpha   90.00000000
_cell_angle_beta   90.00000000
_cell_angle_gamma   90.00000000
_symmetry_Int_Tables_number   1
_chemical_formula_structural   Li11(CoO4)2
_chemical_formula_sum   'Li44 Co8 O32'
_cell_volume   809.02007007
_cell_formula_units_Z   4
loop_
 _symmetry_equiv_pos_site_id
 _symmetry_equiv_pos_as_xyz
  1  'x, y, z'
loop_
 _atom_site_type_symbol
 _atom_site_label
 _atom_site_symmetry_multiplicity
 _atom_site_fract_x
 _atom_site_fract_y
 _atom_site_fract_z
 _atom_site_occupancy
  Li  Li0  1  0.78854450  0.99872900  0.74864100  1
  Li  Li1  1  0.78854450  0.00127100  0.25135900  1
  Li  Li2  1  0.00000000  0.22683750  0.75000000  1
  Li  Li3  1  0.77122600  0.74976150  0.72571800  1
  Li  Li4  1  0.74887450  0.75318100  0.47047800  1
  Li  Li5  1  0.22877400  0.25023850  0.22571800  1
  Li  Li6  1  0.25112550  0.24681900  0.97047800  1
  Li  Li7  1  0.00000000  0.77316250  0.25000000  1
  Li  Li8  1  0.21145550  0.99872900  0.75135900  1
  Li  Li9  1  0.21145550  0.00127100  0.24864100  1
  Li  Li10  1  0.28527000  0.00000000  0.50000000  1
  Li  Li11  1  0.99860350  0.72119600  0.51920700  1
  Li  Li12  1  0.28461100  0.00000000  0.00000000  1
  Li  Li13  1  0.00139650  0.72119600  0.98079300  1
  Li  Li14  1  0.74887450  0.24681900  0.52952200  1
  Li  Li15  1  0.22877400  0.74976150  0.77428200  1
  Li  Li16  1  0.25112550  0.75318100  0.02952200  1
  Li  Li17  1  0.77122600  0.25023850  0.27428200  1
  Li  Li18  1  0.99860350  0.27880400  0.48079300  1
  Li  Li19  1  0.00139650  0.27880400  0.01920700  1
  Li  Li20  1  0.71538900  0.00000000  0.50000000  1
  Li  Li21  1  0.71473000  0.00000000  0.00000000  1
  Li  Li22  1  0.28854450  0.49872900  0.74864100  1
  Li  Li23  1  0.28854450  0.50127100  0.25135900  1
  Li  Li24  1  0.50000000  0.72683750  0.75000000  1
  Li  Li25  1  0.27122600  0.24976150  0.72571800  1
  Li  Li26  1  0.24887450  0.25318100  0.47047800  1
  Li  Li27  1  0.72877400  0.75023850  0.22571800  1
  Li  Li28  1  0.75112550  0.74681900  0.97047800  1
  Li  Li29  1  0.50000000  0.27316250  0.25000000  1
  Li  Li30  1  0.71145550  0.49872900  0.75135900  1
  Li  Li31  1  0.71145550  0.50127100  0.24864100  1
  Li  Li32  1  0.78527000  0.50000000  0.50000000  1
  Li  Li33  1  0.49860350  0.22119600  0.51920700  1
  Li  Li34  1  0.78461100  0.50000000  0.00000000  1
  Li  Li35  1  0.50139650  0.22119600  0.98079300  1
  Li  Li36  1  0.24887450  0.74681900  0.52952200  1
  Li  Li37  1  0.72877400  0.24976150  0.77428200  1
  Li  Li38  1  0.75112550  0.25318100  0.02952200  1
  Li  Li39  1  0.27122600  0.75023850  0.27428200  1
  Li  Li40  1  0.49860350  0.77880400  0.48079300  1
  Li  Li41  1  0.50139650  0.77880400  0.01920700  1
  Li  Li42  1  0.21538900  0.50000000  0.50000000  1
  Li  Li43  1  0.21473000  0.50000000  0.00000000  1
  Co  Co44  1  0.00022550  0.00000000  0.50000000  1
  Co  Co45  1  0.99977450  0.00000000  0.00000000  1
  Co  Co46  1  0.00000000  0.50361750  0.75000000  1
  Co  Co47  1  0.00000000  0.49638250  0.25000000  1
  Co  Co48  1  0.50022550  0.50000000  0.50000000  1
  Co  Co49  1  0.49977450  0.50000000  0.00000000  1
  Co  Co50  1  0.50000000  0.00361750  0.75000000  1
  Co  Co51  1  0.50000000  0.99638250  0.25000000  1
  O  O52  1  0.63348600  0.86697650  0.85646500  1
  O  O53  1  0.63801850  0.87874900  0.35900200  1
  O  O54  1  0.87053150  0.87340600  0.10126900  1
  O  O55  1  0.12946850  0.12659400  0.60126900  1
  O  O56  1  0.13023550  0.12343100  0.09418000  1
  O  O57  1  0.86976450  0.87656900  0.59418000  1
  O  O58  1  0.36651400  0.13302350  0.35646500  1
  O  O59  1  0.36198150  0.12125100  0.85900200  1
  O  O60  1  0.12946850  0.87340600  0.39873100  1
  O  O61  1  0.13023550  0.87656900  0.90582000  1
  O  O62  1  0.36198150  0.87874900  0.14099800  1
  O  O63  1  0.36651400  0.86697650  0.64353500  1
  O  O64  1  0.63801850  0.12125100  0.64099800  1
  O  O65  1  0.63348600  0.13302350  0.14353500  1
  O  O66  1  0.86976450  0.12343100  0.40582000  1
  O  O67  1  0.87053150  0.12659400  0.89873100  1
  O  O68  1  0.13348600  0.36697650  0.85646500  1
  O  O69  1  0.13801850  0.37874900  0.35900200  1
  O  O70  1  0.37053150  0.37340600  0.10126900  1
  O  O71  1  0.62946850  0.62659400  0.60126900  1
  O  O72  1  0.63023550  0.62343100  0.09418000  1
  O  O73  1  0.36976450  0.37656900  0.59418000  1
  O  O74  1  0.86651400  0.63302350  0.35646500  1
  O  O75  1  0.86198150  0.62125100  0.85900200  1
  O  O76  1  0.62946850  0.37340600  0.39873100  1
  O  O77  1  0.63023550  0.37656900  0.90582000  1
  O  O78  1  0.86198150  0.37874900  0.14099800  1
  O  O79  1  0.86651400  0.36697650  0.64353500  1
  O  O80  1  0.13801850  0.62125100  0.64099800  1
  O  O81  1  0.13348600  0.63302350  0.14353500  1
  O  O82  1  0.36976450  0.62343100  0.40582000  1
  O  O83  1  0.37053150  0.62659400  0.89873100  1
