# generated using pymatgen
data_Al2O3
_symmetry_space_group_name_H-M   'P 1'
_cell_length_a   8.97654000
_cell_length_b   8.97654000
_cell_length_c   8.97654000
_cell_angle_alpha   90.00000000
_cell_angle_beta   90.00000000
_cell_angle_gamma   90.00000000
_symmetry_Int_Tables_number   1
_chemical_formula_structural   Al2O3
_chemical_formula_sum   'Al32 O48'
_cell_volume   723.31406712
_cell_formula_units_Z   16
loop_
 _symmetry_equiv_pos_site_id
 _symmetry_equiv_pos_as_xyz
  1  'x, y, z'
loop_
 _atom_site_type_symbol
 _atom_site_label
 _atom_site_symmetry_multiplicity
 _atom_site_fract_x
 _atom_site_fract_y
 _atom_site_fract_z
 _atom_site_occupancy
  Al  Al0  1  0.75000000  0.25000000  0.25000000  1
  Al  Al1  1  0.75000000  0.46224200  0.50000000  1
  Al  Al2  1  0.00000000  0.75000000  0.03775800  1
  Al  Al3  1  0.00000000  0.25000000  0.46224200  1
  Al  Al4  1  0.03775800  0.00000000  0.75000000  1
  Al  Al5  1  0.03775800  0.50000000  0.25000000  1
  Al  Al6  1  0.25000000  0.46224200  0.00000000  1
  Al  Al7  1  0.25000000  0.75000000  0.25000000  1
  Al  Al8  1  0.25000000  0.25000000  0.25000000  1
  Al  Al9  1  0.25000000  0.25000000  0.75000000  1
  Al  Al10  1  0.25000000  0.03775800  0.50000000  1
  Al  Al11  1  0.46224200  0.00000000  0.25000000  1
  Al  Al12  1  0.46224200  0.50000000  0.75000000  1
  Al  Al13  1  0.50000000  0.25000000  0.03775800  1
  Al  Al14  1  0.50000000  0.75000000  0.46224200  1
  Al  Al15  1  0.75000000  0.03775800  0.00000000  1
  Al  Al16  1  0.25000000  0.75000000  0.75000000  1
  Al  Al17  1  0.25000000  0.96224200  0.00000000  1
  Al  Al18  1  0.50000000  0.25000000  0.53775800  1
  Al  Al19  1  0.50000000  0.75000000  0.96224200  1
  Al  Al20  1  0.53775800  0.50000000  0.25000000  1
  Al  Al21  1  0.53775800  0.00000000  0.75000000  1
  Al  Al22  1  0.75000000  0.96224200  0.50000000  1
  Al  Al23  1  0.75000000  0.25000000  0.75000000  1
  Al  Al24  1  0.75000000  0.75000000  0.75000000  1
  Al  Al25  1  0.75000000  0.75000000  0.25000000  1
  Al  Al26  1  0.75000000  0.53775800  0.00000000  1
  Al  Al27  1  0.96224200  0.50000000  0.75000000  1
  Al  Al28  1  0.96224200  0.00000000  0.25000000  1
  Al  Al29  1  0.00000000  0.75000000  0.53775800  1
  Al  Al30  1  0.00000000  0.25000000  0.96224200  1
  Al  Al31  1  0.25000000  0.53775800  0.50000000  1
  O  O32  1  0.88630100  0.61113500  0.15973100  1
  O  O33  1  0.88630100  0.38886500  0.34026900  1
  O  O34  1  0.88886500  0.15973100  0.11369900  1
  O  O35  1  0.88886500  0.34026900  0.61369900  1
  O  O36  1  0.11113500  0.34026900  0.11369900  1
  O  O37  1  0.11113500  0.15973100  0.61369900  1
  O  O38  1  0.11369900  0.88886500  0.15973100  1
  O  O39  1  0.11369900  0.11113500  0.34026900  1
  O  O40  1  0.15973100  0.61369900  0.11113500  1
  O  O41  1  0.15973100  0.38630100  0.38886500  1
  O  O42  1  0.15973100  0.11369900  0.88886500  1
  O  O43  1  0.15973100  0.88630100  0.61113500  1
  O  O44  1  0.34026900  0.38630100  0.61113500  1
  O  O45  1  0.34026900  0.11369900  0.11113500  1
  O  O46  1  0.34026900  0.88630100  0.38886500  1
  O  O47  1  0.34026900  0.61369900  0.88886500  1
  O  O48  1  0.38630100  0.38886500  0.15973100  1
  O  O49  1  0.38630100  0.61113500  0.34026900  1
  O  O50  1  0.38886500  0.15973100  0.38630100  1
  O  O51  1  0.38886500  0.34026900  0.88630100  1
  O  O52  1  0.61113500  0.15973100  0.88630100  1
  O  O53  1  0.61113500  0.34026900  0.38630100  1
  O  O54  1  0.61369900  0.88886500  0.34026900  1
  O  O55  1  0.61369900  0.11113500  0.15973100  1
  O  O56  1  0.38630100  0.11113500  0.65973100  1
  O  O57  1  0.38630100  0.88886500  0.84026900  1
  O  O58  1  0.38886500  0.65973100  0.61369900  1
  O  O59  1  0.38886500  0.84026900  0.11369900  1
  O  O60  1  0.61113500  0.84026900  0.61369900  1
  O  O61  1  0.61113500  0.65973100  0.11369900  1
  O  O62  1  0.61369900  0.38886500  0.65973100  1
  O  O63  1  0.61369900  0.61113500  0.84026900  1
  O  O64  1  0.65973100  0.11369900  0.61113500  1
  O  O65  1  0.65973100  0.88630100  0.88886500  1
  O  O66  1  0.65973100  0.61369900  0.38886500  1
  O  O67  1  0.65973100  0.38630100  0.11113500  1
  O  O68  1  0.84026900  0.88630100  0.11113500  1
  O  O69  1  0.84026900  0.61369900  0.61113500  1
  O  O70  1  0.84026900  0.38630100  0.88886500  1
  O  O71  1  0.84026900  0.11369900  0.38886500  1
  O  O72  1  0.88630100  0.88886500  0.65973100  1
  O  O73  1  0.88630100  0.11113500  0.84026900  1
  O  O74  1  0.88886500  0.65973100  0.88630100  1
  O  O75  1  0.88886500  0.84026900  0.38630100  1
  O  O76  1  0.11113500  0.65973100  0.38630100  1
  O  O77  1  0.11113500  0.84026900  0.88630100  1
  O  O78  1  0.11369900  0.38886500  0.84026900  1
  O  O79  1  0.11369900  0.61113500  0.65973100  1
