# generated using pymatgen
data_Li4Ni3Sn3(SbO8)2
_symmetry_space_group_name_H-M   'P 1'
_cell_length_a   10.57754400
_cell_length_b   6.15699200
_cell_length_c   9.81478910
_cell_angle_alpha   90.00000000
_cell_angle_beta   90.12430805
_cell_angle_gamma   90.00000000
_symmetry_Int_Tables_number   1
_chemical_formula_structural   Li4Ni3Sn3(SbO8)2
_chemical_formula_sum   'Li8 Ni6 Sn6 Sb4 O32'
_cell_volume   639.19501548
_cell_formula_units_Z   2
loop_
 _symmetry_equiv_pos_site_id
 _symmetry_equiv_pos_as_xyz
  1  'x, y, z'
loop_
 _atom_site_type_symbol
 _atom_site_label
 _atom_site_symmetry_multiplicity
 _atom_site_fract_x
 _atom_site_fract_y
 _atom_site_fract_z
 _atom_site_occupancy
  Li  Li0  1  0.66784800  0.00000000  0.10470800  1
  Li  Li1  1  0.98196900  0.00000000  0.02040500  1
  Li  Li2  1  0.98870100  0.00000000  0.50207000  1
  Li  Li3  1  0.33126600  0.00000000  0.58742600  1
  Li  Li4  1  0.16784800  0.50000000  0.10470800  1
  Li  Li5  1  0.48196900  0.50000000  0.02040500  1
  Li  Li6  1  0.48870100  0.50000000  0.50207000  1
  Li  Li7  1  0.83126600  0.50000000  0.58742600  1
  Ni  Ni8  1  0.82923800  0.00000000  0.78539900  1
  Ni  Ni9  1  0.41656200  0.75730100  0.28758600  1
  Ni  Ni10  1  0.41656200  0.24269900  0.28758600  1
  Ni  Ni11  1  0.32923800  0.50000000  0.78539900  1
  Ni  Ni12  1  0.91656200  0.25730100  0.28758600  1
  Ni  Ni13  1  0.91656200  0.74269900  0.28758600  1
  Sn  Sn14  1  0.58594650  0.75373950  0.78651200  1
  Sn  Sn15  1  0.58594650  0.24626050  0.78651200  1
  Sn  Sn16  1  0.17143800  0.00000000  0.28703000  1
  Sn  Sn17  1  0.08594650  0.25373950  0.78651200  1
  Sn  Sn18  1  0.08594650  0.74626050  0.78651200  1
  Sn  Sn19  1  0.67143800  0.50000000  0.28703000  1
  Sb  Sb20  1  0.67258900  0.00000000  0.50645300  1
  Sb  Sb21  1  0.34397900  0.00000000  0.02169600  1
  Sb  Sb22  1  0.17258900  0.50000000  0.50645300  1
  Sb  Sb23  1  0.84397900  0.50000000  0.02169600  1
  O  O24  1  0.58529950  0.75242250  0.41156900  1
  O  O25  1  0.51722900  0.00000000  0.65205600  1
  O  O26  1  0.66625500  0.00000000  0.89753800  1
  O  O27  1  0.99870100  0.00000000  0.69129200  1
  O  O28  1  0.00062300  0.00000000  0.20193400  1
  O  O29  1  0.58529950  0.24757750  0.41156900  1
  O  O30  1  0.73927200  0.77886000  0.65295300  1
  O  O31  1  0.73927200  0.22114000  0.65295300  1
  O  O32  1  0.16902400  0.00000000  0.90501900  1
  O  O33  1  0.83120700  0.00000000  0.40633600  1
  O  O34  1  0.25981800  0.77878900  0.14541000  1
  O  O35  1  0.25981800  0.22121100  0.14541000  1
  O  O36  1  0.33342300  0.00000000  0.39188100  1
  O  O37  1  0.41827150  0.75207450  0.90537000  1
  O  O38  1  0.48587000  0.00000000  0.15211700  1
  O  O39  1  0.41827150  0.24792550  0.90537000  1
  O  O40  1  0.08529950  0.25242250  0.41156900  1
  O  O41  1  0.01722900  0.50000000  0.65205600  1
  O  O42  1  0.16625500  0.50000000  0.89753800  1
  O  O43  1  0.49870100  0.50000000  0.69129200  1
  O  O44  1  0.50062300  0.50000000  0.20193400  1
  O  O45  1  0.08529950  0.74757750  0.41156900  1
  O  O46  1  0.23927200  0.27886000  0.65295300  1
  O  O47  1  0.23927200  0.72114000  0.65295300  1
  O  O48  1  0.66902400  0.50000000  0.90501900  1
  O  O49  1  0.33120700  0.50000000  0.40633600  1
  O  O50  1  0.75981800  0.27878900  0.14541000  1
  O  O51  1  0.75981800  0.72121100  0.14541000  1
  O  O52  1  0.83342300  0.50000000  0.39188100  1
  O  O53  1  0.91827150  0.25207450  0.90537000  1
  O  O54  1  0.98587000  0.50000000  0.15211700  1
  O  O55  1  0.91827150  0.74792550  0.90537000  1
