# generated using pymatgen
data_BaLaCl5
_symmetry_space_group_name_H-M   'P 1'
_cell_length_a   5.94825500
_cell_length_b   7.31273900
_cell_length_c   19.13588200
_cell_angle_alpha   90.00000000
_cell_angle_beta   90.00000000
_cell_angle_gamma   90.00000000
_symmetry_Int_Tables_number   1
_chemical_formula_structural   BaLaCl5
_chemical_formula_sum   'Ba4 La4 Cl20'
_cell_volume   832.37329026
_cell_formula_units_Z   4
loop_
 _symmetry_equiv_pos_site_id
 _symmetry_equiv_pos_as_xyz
  1  'x, y, z'
loop_
 _atom_site_type_symbol
 _atom_site_label
 _atom_site_symmetry_multiplicity
 _atom_site_fract_x
 _atom_site_fract_y
 _atom_site_fract_z
 _atom_site_occupancy
  Ba  Ba0  1  0.78168500  0.25000000  0.94356300  1
  Ba  Ba1  1  0.28168500  0.75000000  0.55643700  1
  Ba  Ba2  1  0.71831500  0.25000000  0.44356300  1
  Ba  Ba3  1  0.21831500  0.75000000  0.05643700  1
  La  La4  1  0.43323800  0.75000000  0.82131400  1
  La  La5  1  0.93323800  0.25000000  0.67868600  1
  La  La6  1  0.06676200  0.75000000  0.32131400  1
  La  La7  1  0.56676200  0.25000000  0.17868600  1
  Cl  Cl8  1  0.72296200  0.75000000  0.93702200  1
  Cl  Cl9  1  0.24299300  0.49359300  0.91402800  1
  Cl  Cl10  1  0.24299300  0.00640700  0.91402800  1
  Cl  Cl11  1  0.76350800  0.47736600  0.79264800  1
  Cl  Cl12  1  0.76350800  0.02263400  0.79264800  1
  Cl  Cl13  1  0.26350800  0.97736600  0.70735200  1
  Cl  Cl14  1  0.26350800  0.52263400  0.70735200  1
  Cl  Cl15  1  0.74299300  0.99359300  0.58597200  1
  Cl  Cl16  1  0.74299300  0.50640700  0.58597200  1
  Cl  Cl17  1  0.22296200  0.25000000  0.56297800  1
  Cl  Cl18  1  0.77703800  0.75000000  0.43702200  1
  Cl  Cl19  1  0.25700700  0.49359300  0.41402800  1
  Cl  Cl20  1  0.25700700  0.00640700  0.41402800  1
  Cl  Cl21  1  0.73649200  0.47736600  0.29264800  1
  Cl  Cl22  1  0.73649200  0.02263400  0.29264800  1
  Cl  Cl23  1  0.23649200  0.97736600  0.20735200  1
  Cl  Cl24  1  0.23649200  0.52263400  0.20735200  1
  Cl  Cl25  1  0.75700700  0.99359300  0.08597200  1
  Cl  Cl26  1  0.75700700  0.50640700  0.08597200  1
  Cl  Cl27  1  0.27703800  0.25000000  0.06297800  1
