# generated using pymatgen
data_Ho2(SeO4)3
_symmetry_space_group_name_H-M   'P 1'
_cell_length_a   7.09424400
_cell_length_b   11.59362200
_cell_length_c   11.30544647
_cell_angle_alpha   90.00000000
_cell_angle_beta   108.17681777
_cell_angle_gamma   90.00000000
_symmetry_Int_Tables_number   1
_chemical_formula_structural   Ho2(SeO4)3
_chemical_formula_sum   'Ho8 Se12 O48'
_cell_volume   883.44911167
_cell_formula_units_Z   4
loop_
 _symmetry_equiv_pos_site_id
 _symmetry_equiv_pos_as_xyz
  1  'x, y, z'
loop_
 _atom_site_type_symbol
 _atom_site_label
 _atom_site_symmetry_multiplicity
 _atom_site_fract_x
 _atom_site_fract_y
 _atom_site_fract_z
 _atom_site_occupancy
  Ho  Ho0  1  0.16713150  0.12474650  0.59453200  1
  Ho  Ho1  1  0.16713150  0.87525350  0.09453200  1
  Ho  Ho2  1  0.83286850  0.12474650  0.90546800  1
  Ho  Ho3  1  0.83286850  0.87525350  0.40546800  1
  Ho  Ho4  1  0.66713150  0.62474650  0.59453200  1
  Ho  Ho5  1  0.66713150  0.37525350  0.09453200  1
  Ho  Ho6  1  0.33286850  0.62474650  0.90546800  1
  Ho  Ho7  1  0.33286850  0.37525350  0.40546800  1
  Se  Se8  1  0.34280300  0.12878100  0.92454700  1
  Se  Se9  1  0.34280300  0.87121900  0.42454700  1
  Se  Se10  1  0.50000000  0.38022500  0.75000000  1
  Se  Se11  1  0.50000000  0.61977500  0.25000000  1
  Se  Se12  1  0.65719700  0.12878100  0.57545300  1
  Se  Se13  1  0.65719700  0.87121900  0.07545300  1
  Se  Se14  1  0.84280300  0.62878100  0.92454700  1
  Se  Se15  1  0.84280300  0.37121900  0.42454700  1
  Se  Se16  1  0.00000000  0.88022500  0.75000000  1
  Se  Se17  1  0.00000000  0.11977500  0.25000000  1
  Se  Se18  1  0.15719700  0.62878100  0.57545300  1
  Se  Se19  1  0.15719700  0.37121900  0.07545300  1
  O  O20  1  0.22044900  0.19252700  0.78943200  1
  O  O21  1  0.16989500  0.95626600  0.71165200  1
  O  O22  1  0.62064350  0.29953950  0.87750600  1
  O  O23  1  0.44776700  0.78486200  0.54364500  1
  O  O24  1  0.16099250  0.04959250  0.95778700  1
  O  O25  1  0.47706200  0.05304500  0.60553000  1
  O  O26  1  0.22044900  0.80747300  0.28943200  1
  O  O27  1  0.52293800  0.05304500  0.89447000  1
  O  O28  1  0.83900750  0.04959250  0.54221300  1
  O  O29  1  0.55223300  0.78486200  0.95635500  1
  O  O30  1  0.37935650  0.29953950  0.62249400  1
  O  O31  1  0.16989500  0.04373400  0.21165200  1
  O  O32  1  0.83010500  0.95626600  0.78834800  1
  O  O33  1  0.62064350  0.70046050  0.37750600  1
  O  O34  1  0.44776700  0.21513800  0.04364500  1
  O  O35  1  0.16099250  0.95040750  0.45778700  1
  O  O36  1  0.47706200  0.94695500  0.10553000  1
  O  O37  1  0.77955100  0.19252700  0.71056800  1
  O  O38  1  0.52293800  0.94695500  0.39447000  1
  O  O39  1  0.83900750  0.95040750  0.04221300  1
  O  O40  1  0.55223300  0.21513800  0.45635500  1
  O  O41  1  0.37935650  0.70046050  0.12249400  1
  O  O42  1  0.83010500  0.04373400  0.28834800  1
  O  O43  1  0.77955100  0.80747300  0.21056800  1
  O  O44  1  0.72044900  0.69252700  0.78943200  1
  O  O45  1  0.66989500  0.45626600  0.71165200  1
  O  O46  1  0.12064350  0.79953950  0.87750600  1
  O  O47  1  0.94776700  0.28486200  0.54364500  1
  O  O48  1  0.66099250  0.54959250  0.95778700  1
  O  O49  1  0.97706200  0.55304500  0.60553000  1
  O  O50  1  0.72044900  0.30747300  0.28943200  1
  O  O51  1  0.02293800  0.55304500  0.89447000  1
  O  O52  1  0.33900750  0.54959250  0.54221300  1
  O  O53  1  0.05223300  0.28486200  0.95635500  1
  O  O54  1  0.87935650  0.79953950  0.62249400  1
  O  O55  1  0.66989500  0.54373400  0.21165200  1
  O  O56  1  0.33010500  0.45626600  0.78834800  1
  O  O57  1  0.12064350  0.20046050  0.37750600  1
  O  O58  1  0.94776700  0.71513800  0.04364500  1
  O  O59  1  0.66099250  0.45040750  0.45778700  1
  O  O60  1  0.97706200  0.44695500  0.10553000  1
  O  O61  1  0.27955100  0.69252700  0.71056800  1
  O  O62  1  0.02293800  0.44695500  0.39447000  1
  O  O63  1  0.33900750  0.45040750  0.04221300  1
  O  O64  1  0.05223300  0.71513800  0.45635500  1
  O  O65  1  0.87935650  0.20046050  0.12249400  1
  O  O66  1  0.33010500  0.54373400  0.28834800  1
  O  O67  1  0.27955100  0.30747300  0.21056800  1
