# generated using pymatgen
data_Li4Ti2Nb3Co3O16
_symmetry_space_group_name_H-M   'P 1'
_cell_length_a   10.38537800
_cell_length_b   6.09417000
_cell_length_c   9.85171273
_cell_angle_alpha   90.00000000
_cell_angle_beta   90.50173131
_cell_angle_gamma   90.00000000
_symmetry_Int_Tables_number   1
_chemical_formula_structural   Li4Ti2Nb3Co3O16
_chemical_formula_sum   'Li8 Ti4 Nb6 Co6 O32'
_cell_volume   623.49354410
_cell_formula_units_Z   2
loop_
 _symmetry_equiv_pos_site_id
 _symmetry_equiv_pos_as_xyz
  1  'x, y, z'
loop_
 _atom_site_type_symbol
 _atom_site_label
 _atom_site_symmetry_multiplicity
 _atom_site_fract_x
 _atom_site_fract_y
 _atom_site_fract_z
 _atom_site_occupancy
  Li  Li0  1  0.33358800  0.00000000  0.90336400  1
  Li  Li1  1  0.99672700  0.00000000  0.99875200  1
  Li  Li2  1  0.97980700  0.00000000  0.48538600  1
  Li  Li3  1  0.66922900  0.00000000  0.39094100  1
  Li  Li4  1  0.83358800  0.50000000  0.90336400  1
  Li  Li5  1  0.49672700  0.50000000  0.99875200  1
  Li  Li6  1  0.47980700  0.50000000  0.48538600  1
  Li  Li7  1  0.16922900  0.50000000  0.39094100  1
  Ti  Ti8  1  0.36302900  0.00000000  0.48459600  1
  Ti  Ti9  1  0.67313000  0.00000000  0.01090800  1
  Ti  Ti10  1  0.86302900  0.50000000  0.48459600  1
  Ti  Ti11  1  0.17313000  0.50000000  0.01090800  1
  Nb  Nb12  1  0.17947000  0.00000000  0.22885800  1
  Nb  Nb13  1  0.59509450  0.75320650  0.71567600  1
  Nb  Nb14  1  0.59509450  0.24679350  0.71567600  1
  Nb  Nb15  1  0.67947000  0.50000000  0.22885800  1
  Nb  Nb16  1  0.09509450  0.25320650  0.71567600  1
  Nb  Nb17  1  0.09509450  0.74679350  0.71567600  1
  Co  Co18  1  0.41599850  0.75786050  0.20858600  1
  Co  Co19  1  0.41599850  0.24213950  0.20858600  1
  Co  Co20  1  0.81232400  0.00000000  0.71140800  1
  Co  Co21  1  0.91599850  0.25786050  0.20858600  1
  Co  Co22  1  0.91599850  0.74213950  0.20858600  1
  Co  Co23  1  0.31232400  0.50000000  0.71140800  1
  O  O24  1  0.42069600  0.75956700  0.59306500  1
  O  O25  1  0.48235700  0.00000000  0.35009400  1
  O  O26  1  0.32514100  0.00000000  0.09965900  1
  O  O27  1  0.00288100  0.00000000  0.30023300  1
  O  O28  1  0.00169500  0.00000000  0.80717200  1
  O  O29  1  0.42069600  0.24043300  0.59306500  1
  O  O30  1  0.25390450  0.78277750  0.35087100  1
  O  O31  1  0.25390450  0.21722250  0.35087100  1
  O  O32  1  0.82978100  0.00000000  0.09290800  1
  O  O33  1  0.16454400  0.00000000  0.60070800  1
  O  O34  1  0.73240550  0.77011750  0.85000000  1
  O  O35  1  0.73240550  0.22988250  0.85000000  1
  O  O36  1  0.65107600  0.00000000  0.58950900  1
  O  O37  1  0.59251600  0.75593900  0.09422300  1
  O  O38  1  0.51536600  0.00000000  0.82856200  1
  O  O39  1  0.59251600  0.24406100  0.09422300  1
  O  O40  1  0.92069600  0.25956700  0.59306500  1
  O  O41  1  0.98235700  0.50000000  0.35009400  1
  O  O42  1  0.82514100  0.50000000  0.09965900  1
  O  O43  1  0.50288100  0.50000000  0.30023300  1
  O  O44  1  0.50169500  0.50000000  0.80717200  1
  O  O45  1  0.92069600  0.74043300  0.59306500  1
  O  O46  1  0.75390450  0.28277750  0.35087100  1
  O  O47  1  0.75390450  0.71722250  0.35087100  1
  O  O48  1  0.32978100  0.50000000  0.09290800  1
  O  O49  1  0.66454400  0.50000000  0.60070800  1
  O  O50  1  0.23240550  0.27011750  0.85000000  1
  O  O51  1  0.23240550  0.72988250  0.85000000  1
  O  O52  1  0.15107600  0.50000000  0.58950900  1
  O  O53  1  0.09251600  0.25593900  0.09422300  1
  O  O54  1  0.01536600  0.50000000  0.82856200  1
  O  O55  1  0.09251600  0.74406100  0.09422300  1
