# generated using pymatgen
data_HoBO3
_symmetry_space_group_name_H-M   'P 1'
_cell_length_a   7.22801800
_cell_length_b   9.02110111
_cell_length_c   9.87402696
_cell_angle_alpha   81.34804878
_cell_angle_beta   85.64533365
_cell_angle_gamma   77.17694495
_symmetry_Int_Tables_number   1
_chemical_formula_structural   HoBO3
_chemical_formula_sum   'Ho12 B12 O36'
_cell_volume   620.02711106
_cell_formula_units_Z   12
loop_
 _symmetry_equiv_pos_site_id
 _symmetry_equiv_pos_as_xyz
  1  'x, y, z'
loop_
 _atom_site_type_symbol
 _atom_site_label
 _atom_site_symmetry_multiplicity
 _atom_site_fract_x
 _atom_site_fract_y
 _atom_site_fract_z
 _atom_site_occupancy
  Ho  Ho0  1  0.09878200  0.43553100  0.67052000  1
  Ho  Ho1  1  0.24965400  0.04508900  0.47886000  1
  Ho  Ho2  1  0.09819800  0.93220800  0.16271900  1
  Ho  Ho3  1  0.26247000  0.56069200  0.97110200  1
  Ho  Ho4  1  0.43388300  0.44154900  0.34236700  1
  Ho  Ho5  1  0.57392900  0.05617000  0.15538800  1
  Ho  Ho6  1  0.42607100  0.94383000  0.84461200  1
  Ho  Ho7  1  0.56611700  0.55845100  0.65763300  1
  Ho  Ho8  1  0.73753000  0.43930800  0.02889800  1
  Ho  Ho9  1  0.90180200  0.06779200  0.83728100  1
  Ho  Ho10  1  0.75034600  0.95491100  0.52114000  1
  Ho  Ho11  1  0.90121800  0.56446900  0.32948000  1
  B  B12  1  0.16801000  0.27132300  0.20559800  1
  B  B13  1  0.11577300  0.25705300  0.94809300  1
  B  B14  1  0.10766100  0.75271400  0.44769100  1
  B  B15  1  0.22009000  0.78277700  0.69173600  1
  B  B16  1  0.47767300  0.28469700  0.92303400  1
  B  B17  1  0.53346200  0.22092800  0.61372100  1
  B  B18  1  0.46653800  0.77907200  0.38627900  1
  B  B19  1  0.52232700  0.71530300  0.07696600  1
  B  B20  1  0.77991000  0.21722300  0.30826400  1
  B  B21  1  0.89233900  0.24728600  0.55230900  1
  B  B22  1  0.88422700  0.74294700  0.05190700  1
  B  B23  1  0.83199000  0.72867700  0.79440200  1
  O  O24  1  0.06335400  0.18456000  0.63001100  1
  O  O25  1  0.08177000  0.33527400  0.08067200  1
  O  O26  1  0.05688700  0.68040600  0.12756100  1
  O  O27  1  0.15300500  0.09106400  0.96398500  1
  O  O28  1  0.16688800  0.36657500  0.30291400  1
  O  O29  1  0.24577400  0.11607800  0.23794200  1
  O  O30  1  0.14984200  0.58788900  0.46461900  1
  O  O31  1  0.08105500  0.83876500  0.57243000  1
  O  O32  1  0.27233800  0.32337900  0.87262900  1
  O  O33  1  0.15645100  0.87167100  0.80481600  1
  O  O34  1  0.24711200  0.61625100  0.73489300  1
  O  O35  1  0.26897000  0.81729700  0.36384600  1
  O  O36  1  0.45280100  0.09487700  0.62633800  1
  O  O37  1  0.47186100  0.31106800  0.07210900  1
  O  O38  1  0.43416400  0.36868300  0.58350100  1
  O  O39  1  0.43447800  0.59420500  0.14843500  1
  O  O40  1  0.42841100  0.87261100  0.08713700  1
  O  O41  1  0.59219300  0.18488000  0.36737400  1
  O  O42  1  0.40780700  0.81512000  0.63262600  1
  O  O43  1  0.57158900  0.12738900  0.91286300  1
  O  O44  1  0.56552200  0.40579500  0.85156500  1
  O  O45  1  0.56583600  0.63131700  0.41649900  1
  O  O46  1  0.52813900  0.68893200  0.92789100  1
  O  O47  1  0.54719900  0.90512300  0.37366200  1
  O  O48  1  0.73103000  0.18270300  0.63615400  1
  O  O49  1  0.75288800  0.38374900  0.26510700  1
  O  O50  1  0.84354900  0.12832900  0.19518400  1
  O  O51  1  0.72766200  0.67662100  0.12737100  1
  O  O52  1  0.91894500  0.16123500  0.42757000  1
  O  O53  1  0.85015800  0.41211100  0.53538100  1
  O  O54  1  0.75422600  0.88392200  0.76205800  1
  O  O55  1  0.83311200  0.63342500  0.69708600  1
  O  O56  1  0.84699500  0.90893600  0.03601500  1
  O  O57  1  0.94311300  0.31959400  0.87243900  1
  O  O58  1  0.91823000  0.66472600  0.91932800  1
  O  O59  1  0.93664600  0.81544000  0.36998900  1
