# generated using pymatgen
data_K2CaH8(N3O)4
_symmetry_space_group_name_H-M   'P 1'
_cell_length_a   11.15252600
_cell_length_b   18.88254200
_cell_length_c   6.21654200
_cell_angle_alpha   90.00000000
_cell_angle_beta   90.00000000
_cell_angle_gamma   90.00000000
_symmetry_Int_Tables_number   1
_chemical_formula_structural   K2CaH8(N3O)4
_chemical_formula_sum   'K8 Ca4 H32 N48 O16'
_cell_volume   1309.12939909
_cell_formula_units_Z   4
loop_
 _symmetry_equiv_pos_site_id
 _symmetry_equiv_pos_as_xyz
  1  'x, y, z'
loop_
 _atom_site_type_symbol
 _atom_site_label
 _atom_site_symmetry_multiplicity
 _atom_site_fract_x
 _atom_site_fract_y
 _atom_site_fract_z
 _atom_site_occupancy
  K  K0  1  0.50000000  0.33149500  0.00000000  1
  K  K1  1  0.50000000  0.16850500  0.50000000  1
  K  K2  1  0.50000000  0.83149500  0.50000000  1
  K  K3  1  0.50000000  0.66850500  0.00000000  1
  K  K4  1  0.00000000  0.83149500  0.00000000  1
  K  K5  1  0.00000000  0.66850500  0.50000000  1
  K  K6  1  0.00000000  0.33149500  0.50000000  1
  K  K7  1  0.00000000  0.16850500  0.00000000  1
  Ca  Ca8  1  0.50000000  0.00000000  0.00000000  1
  Ca  Ca9  1  0.00000000  0.00000000  0.50000000  1
  Ca  Ca10  1  0.00000000  0.50000000  0.00000000  1
  Ca  Ca11  1  0.50000000  0.50000000  0.50000000  1
  H  H12  1  0.30627100  0.08542300  0.16596600  1
  H  H13  1  0.80627100  0.91457700  0.66596600  1
  H  H14  1  0.19372900  0.08542300  0.66596600  1
  H  H15  1  0.69372900  0.91457700  0.16596600  1
  H  H16  1  0.19372900  0.91457700  0.33403400  1
  H  H17  1  0.69372900  0.08542300  0.83403400  1
  H  H18  1  0.30627100  0.91457700  0.83403400  1
  H  H19  1  0.80627100  0.08542300  0.33403400  1
  H  H20  1  0.37082900  0.14175800  0.02031600  1
  H  H21  1  0.37082900  0.35824200  0.52031600  1
  H  H22  1  0.62917100  0.64175800  0.52031600  1
  H  H23  1  0.62917100  0.85824200  0.02031600  1
  H  H24  1  0.62917100  0.35824200  0.47968400  1
  H  H25  1  0.62917100  0.14175800  0.97968400  1
  H  H26  1  0.37082900  0.85824200  0.97968400  1
  H  H27  1  0.37082900  0.64175800  0.47968400  1
  H  H28  1  0.80627100  0.58542300  0.16596600  1
  H  H29  1  0.30627100  0.41457700  0.66596600  1
  H  H30  1  0.69372900  0.58542300  0.66596600  1
  H  H31  1  0.19372900  0.41457700  0.16596600  1
  H  H32  1  0.69372900  0.41457700  0.33403400  1
  H  H33  1  0.19372900  0.58542300  0.83403400  1
  H  H34  1  0.80627100  0.41457700  0.83403400  1
  H  H35  1  0.30627100  0.58542300  0.33403400  1
  H  H36  1  0.87082900  0.64175800  0.02031600  1
  H  H37  1  0.87082900  0.85824200  0.52031600  1
  H  H38  1  0.12917100  0.14175800  0.52031600  1
  H  H39  1  0.12917100  0.35824200  0.02031600  1
  H  H40  1  0.12917100  0.85824200  0.47968400  1
  H  H41  1  0.12917100  0.64175800  0.97968400  1
  H  H42  1  0.87082900  0.35824200  0.97968400  1
  H  H43  1  0.87082900  0.14175800  0.47968400  1
  N  N44  1  0.33944300  0.21577300  0.83168000  1
  N  N45  1  0.33944300  0.28422700  0.33168000  1
  N  N46  1  0.66055700  0.71577300  0.33168000  1
  N  N47  1  0.66055700  0.78422700  0.83168000  1
  N  N48  1  0.66055700  0.28422700  0.66832000  1
  N  N49  1  0.66055700  0.21577300  0.16832000  1
  N  N50  1  0.33944300  0.78422700  0.16832000  1
  N  N51  1  0.33944300  0.71577300  0.66832000  1
  N  N52  1  0.25000000  0.25000000  0.83298900  1
  N  N53  1  0.25000000  0.25000000  0.33298900  1
  N  N54  1  0.25000000  0.75000000  0.66701100  1
  N  N55  1  0.25000000  0.75000000  0.16701100  1
  N  N56  1  0.13141600  0.96228900  0.84668000  1
  N  N57  1  0.63141600  0.03771100  0.34668000  1
  N  N58  1  0.36858400  0.96228900  0.34668000  1
  N  N59  1  0.86858400  0.03771100  0.84668000  1
  N  N60  1  0.36858400  0.03771100  0.65332000  1
  N  N61  1  0.86858400  0.96228900  0.15332000  1
  N  N62  1  0.13141600  0.03771100  0.15332000  1
  N  N63  1  0.63141600  0.96228900  0.65332000  1
  N  N64  1  0.63108000  0.00000000  0.50000000  1
  N  N65  1  0.13108000  0.00000000  0.00000000  1
  N  N66  1  0.86892000  0.00000000  0.00000000  1
  N  N67  1  0.36892000  0.00000000  0.50000000  1
  N  N68  1  0.83944300  0.71577300  0.83168000  1
  N  N69  1  0.83944300  0.78422700  0.33168000  1
  N  N70  1  0.16055700  0.21577300  0.33168000  1
  N  N71  1  0.16055700  0.28422700  0.83168000  1
  N  N72  1  0.16055700  0.78422700  0.66832000  1
  N  N73  1  0.16055700  0.71577300  0.16832000  1
  N  N74  1  0.83944300  0.28422700  0.16832000  1
  N  N75  1  0.83944300  0.21577300  0.66832000  1
  N  N76  1  0.75000000  0.75000000  0.83298900  1
  N  N77  1  0.75000000  0.75000000  0.33298900  1
  N  N78  1  0.75000000  0.25000000  0.66701100  1
  N  N79  1  0.75000000  0.25000000  0.16701100  1
  N  N80  1  0.63141600  0.46228900  0.84668000  1
  N  N81  1  0.13141600  0.53771100  0.34668000  1
  N  N82  1  0.86858400  0.46228900  0.34668000  1
  N  N83  1  0.36858400  0.53771100  0.84668000  1
  N  N84  1  0.86858400  0.53771100  0.65332000  1
  N  N85  1  0.36858400  0.46228900  0.15332000  1
  N  N86  1  0.63141600  0.53771100  0.15332000  1
  N  N87  1  0.13141600  0.46228900  0.65332000  1
  N  N88  1  0.13108000  0.50000000  0.50000000  1
  N  N89  1  0.63108000  0.50000000  0.00000000  1
  N  N90  1  0.36892000  0.50000000  0.00000000  1
  N  N91  1  0.86892000  0.50000000  0.50000000  1
  O  O92  1  0.38651900  0.10287800  0.12616400  1
  O  O93  1  0.88651900  0.89712200  0.62616400  1
  O  O94  1  0.11348100  0.10287800  0.62616400  1
  O  O95  1  0.61348100  0.89712200  0.12616400  1
  O  O96  1  0.11348100  0.89712200  0.37383600  1
  O  O97  1  0.61348100  0.10287800  0.87383600  1
  O  O98  1  0.38651900  0.89712200  0.87383600  1
  O  O99  1  0.88651900  0.10287800  0.37383600  1
  O  O100  1  0.88651900  0.60287800  0.12616400  1
  O  O101  1  0.38651900  0.39712200  0.62616400  1
  O  O102  1  0.61348100  0.60287800  0.62616400  1
  O  O103  1  0.11348100  0.39712200  0.12616400  1
  O  O104  1  0.61348100  0.39712200  0.37383600  1
  O  O105  1  0.11348100  0.60287800  0.87383600  1
  O  O106  1  0.88651900  0.39712200  0.87383600  1
  O  O107  1  0.38651900  0.60287800  0.37383600  1
