# generated using pymatgen
data_Li2V5O10
_symmetry_space_group_name_H-M   'P 1'
_cell_length_a   5.11503655
_cell_length_b   7.72526023
_cell_length_c   10.42342199
_cell_angle_alpha   75.97166470
_cell_angle_beta   77.16528922
_cell_angle_gamma   77.81407424
_symmetry_Int_Tables_number   1
_chemical_formula_structural   Li2V5O10
_chemical_formula_sum   'Li4 V10 O20'
_cell_volume   384.19314658
_cell_formula_units_Z   2
loop_
 _symmetry_equiv_pos_site_id
 _symmetry_equiv_pos_as_xyz
  1  'x, y, z'
loop_
 _atom_site_type_symbol
 _atom_site_label
 _atom_site_symmetry_multiplicity
 _atom_site_fract_x
 _atom_site_fract_y
 _atom_site_fract_z
 _atom_site_occupancy
  Li  Li0  1  0.45850800  0.59397100  0.10936700  1
  Li  Li1  1  0.46562400  0.60126500  0.60387000  1
  Li  Li2  1  0.53437600  0.39873500  0.39613000  1
  Li  Li3  1  0.54149200  0.40602900  0.89063300  1
  V  V4  1  0.50000000  0.00000000  0.50000000  1
  V  V5  1  0.97511200  0.31543800  0.06979300  1
  V  V6  1  0.98939200  0.31258200  0.56388300  1
  V  V7  1  0.01060800  0.68741800  0.43611700  1
  V  V8  1  0.02488800  0.68456200  0.93020700  1
  V  V9  1  0.50000000  0.00000000  0.00000000  1
  V  V10  1  0.03608900  0.10497600  0.34636700  1
  V  V11  1  0.03661400  0.11143100  0.84356800  1
  V  V12  1  0.96338600  0.88856900  0.15643200  1
  V  V13  1  0.96391100  0.89502400  0.65363300  1
  O  O14  1  0.77987800  0.13575900  0.02351400  1
  O  O15  1  0.77939200  0.13118700  0.53040100  1
  O  O16  1  0.22060800  0.86881300  0.46959900  1
  O  O17  1  0.22012200  0.86424100  0.97648600  1
  O  O18  1  0.22256100  0.48618600  0.03309600  1
  O  O19  1  0.21692500  0.49526400  0.53631500  1
  O  O20  1  0.78307500  0.50473600  0.46368500  1
  O  O21  1  0.77743900  0.51381400  0.96690400  1
  O  O22  1  0.20388800  0.06394600  0.15490900  1
  O  O23  1  0.21142300  0.06416900  0.66654200  1
  O  O24  1  0.78857700  0.93583100  0.33345800  1
  O  O25  1  0.79611200  0.93605400  0.84509100  1
  O  O26  1  0.73423600  0.78263200  0.10237500  1
  O  O27  1  0.73113300  0.77664600  0.58690800  1
  O  O28  1  0.26886700  0.22335400  0.41309200  1
  O  O29  1  0.26576400  0.21736800  0.89762500  1
  O  O30  1  0.81804900  0.31914700  0.23737700  1
  O  O31  1  0.83012700  0.31171700  0.74104700  1
  O  O32  1  0.16987300  0.68828300  0.25895300  1
  O  O33  1  0.18195100  0.68085300  0.76262300  1
