# generated using pymatgen
data_LiV(PO3)3
_symmetry_space_group_name_H-M   'P 1'
_cell_length_a   10.35802164
_cell_length_b   10.35802164
_cell_length_c   7.06906407
_cell_angle_alpha   90.00000000
_cell_angle_beta   90.00000000
_cell_angle_gamma   120.00000000
_symmetry_Int_Tables_number   1
_chemical_formula_structural   LiV(PO3)3
_chemical_formula_sum   'Li3 V3 P9 O27'
_cell_volume   656.81971112
_cell_formula_units_Z   3
loop_
 _symmetry_equiv_pos_site_id
 _symmetry_equiv_pos_as_xyz
  1  'x, y, z'
loop_
 _atom_site_type_symbol
 _atom_site_label
 _atom_site_symmetry_multiplicity
 _atom_site_fract_x
 _atom_site_fract_y
 _atom_site_fract_z
 _atom_site_occupancy
  Li  Li0  1  0.00000000  0.00000000  0.35781275  1
  Li  Li1  1  0.66666667  0.33333333  0.69114608  1
  Li  Li2  1  0.33333333  0.66666667  0.02447942  1
  V  V3  1  0.00000000  0.00000000  0.98833975  1
  V  V4  1  0.66666667  0.33333333  0.32167308  1
  V  V5  1  0.33333333  0.66666667  0.65500642  1
  P  P6  1  0.56468900  0.99551825  0.48188550  1
  P  P7  1  0.43082925  0.43531100  0.48188550  1
  P  P8  1  0.00448175  0.56917075  0.48188550  1
  P  P9  1  0.23135567  0.32885158  0.81521883  1
  P  P10  1  0.09749592  0.76864433  0.81521883  1
  P  P11  1  0.67114842  0.90250408  0.81521883  1
  P  P12  1  0.89802233  0.66218492  0.14855217  1
  P  P13  1  0.76416258  0.10197767  0.14855217  1
  P  P14  1  0.33781508  0.23583742  0.14855217  1
  O  O15  1  0.67917900  0.96333600  0.60349000  1
  O  O16  1  0.28415700  0.32082100  0.60349000  1
  O  O17  1  0.03666400  0.71584300  0.60349000  1
  O  O18  1  0.88550200  0.06653125  0.19371025  1
  O  O19  1  0.93346875  0.81897075  0.19371025  1
  O  O20  1  0.18102925  0.11449800  0.19371025  1
  O  O21  1  0.79706467  0.87192833  0.83413958  1
  O  O22  1  0.07486367  0.20293533  0.83413958  1
  O  O23  1  0.12807167  0.92513633  0.83413958  1
  O  O24  1  0.34584567  0.29666933  0.93682333  1
  O  O25  1  0.95082367  0.65415433  0.93682333  1
  O  O26  1  0.70333067  0.04917633  0.93682333  1
  O  O27  1  0.55216867  0.39986458  0.52704358  1
  O  O28  1  0.60013542  0.15230408  0.52704358  1
  O  O29  1  0.84769592  0.44783133  0.52704358  1
  O  O30  1  0.46373133  0.20526167  0.16747292  1
  O  O31  1  0.74153033  0.53626867  0.16747292  1
  O  O32  1  0.79473833  0.25846967  0.16747292  1
  O  O33  1  0.01251233  0.63000267  0.27015667  1
  O  O34  1  0.61749033  0.98748767  0.27015667  1
  O  O35  1  0.36999733  0.38250967  0.27015667  1
  O  O36  1  0.21883533  0.73319792  0.86037692  1
  O  O37  1  0.26680208  0.48563742  0.86037692  1
  O  O38  1  0.51436258  0.78116467  0.86037692  1
  O  O39  1  0.13039800  0.53859500  0.50080625  1
  O  O40  1  0.40819700  0.86960200  0.50080625  1
  O  O41  1  0.46140500  0.59180300  0.50080625  1
