# generated using pymatgen
data_Ba(HO)2
_symmetry_space_group_name_H-M   'P 1'
_cell_length_a   7.30199500
_cell_length_b   11.38269600
_cell_length_c   16.71623900
_cell_angle_alpha   90.00000000
_cell_angle_beta   90.00000000
_cell_angle_gamma   90.00000000
_symmetry_Int_Tables_number   1
_chemical_formula_structural   Ba(HO)2
_chemical_formula_sum   'Ba20 H40 O40'
_cell_volume   1389.39342800
_cell_formula_units_Z   20
loop_
 _symmetry_equiv_pos_site_id
 _symmetry_equiv_pos_as_xyz
  1  'x, y, z'
loop_
 _atom_site_type_symbol
 _atom_site_label
 _atom_site_symmetry_multiplicity
 _atom_site_fract_x
 _atom_site_fract_y
 _atom_site_fract_z
 _atom_site_occupancy
  Ba  Ba0  1  0.04159100  0.81327800  0.25000000  1
  Ba  Ba1  1  0.45840900  0.31327800  0.25000000  1
  Ba  Ba2  1  0.95840900  0.18672200  0.75000000  1
  Ba  Ba3  1  0.54159100  0.68672200  0.75000000  1
  Ba  Ba4  1  0.58199400  0.97787300  0.37545800  1
  Ba  Ba5  1  0.91800600  0.47787300  0.12454200  1
  Ba  Ba6  1  0.41800600  0.02212700  0.87545800  1
  Ba  Ba7  1  0.08199400  0.52212700  0.62454200  1
  Ba  Ba8  1  0.41800600  0.02212700  0.62454200  1
  Ba  Ba9  1  0.08199400  0.52212700  0.87545800  1
  Ba  Ba10  1  0.58199400  0.97787300  0.12454200  1
  Ba  Ba11  1  0.91800600  0.47787300  0.37545800  1
  Ba  Ba12  1  0.07398000  0.83443600  0.48772700  1
  Ba  Ba13  1  0.42602000  0.33443600  0.01227300  1
  Ba  Ba14  1  0.92602000  0.16556400  0.98772700  1
  Ba  Ba15  1  0.57398000  0.66556400  0.51227300  1
  Ba  Ba16  1  0.92602000  0.16556400  0.51227300  1
  Ba  Ba17  1  0.57398000  0.66556400  0.98772700  1
  Ba  Ba18  1  0.07398000  0.83443600  0.01227300  1
  Ba  Ba19  1  0.42602000  0.33443600  0.48772700  1
  H  H20  1  0.24951800  0.56105700  0.25000000  1
  H  H21  1  0.25048200  0.06105700  0.25000000  1
  H  H22  1  0.75048200  0.43894300  0.75000000  1
  H  H23  1  0.74951800  0.93894300  0.75000000  1
  H  H24  1  0.59459800  0.75112200  0.25000000  1
  H  H25  1  0.90540200  0.25112200  0.25000000  1
  H  H26  1  0.40540200  0.24887800  0.75000000  1
  H  H27  1  0.09459800  0.74887800  0.75000000  1
  H  H28  1  0.03949700  0.04822600  0.33883200  1
  H  H29  1  0.46050300  0.54822600  0.16116800  1
  H  H30  1  0.96050300  0.95177400  0.83883200  1
  H  H31  1  0.53949700  0.45177400  0.66116800  1
  H  H32  1  0.96050300  0.95177400  0.66116800  1
  H  H33  1  0.53949700  0.45177400  0.83883200  1
  H  H34  1  0.03949700  0.04822600  0.16116800  1
  H  H35  1  0.46050300  0.54822600  0.33883200  1
  H  H36  1  0.37258100  0.72307200  0.34936300  1
  H  H37  1  0.12741900  0.22307200  0.15063700  1
  H  H38  1  0.62741900  0.27692800  0.84936300  1
  H  H39  1  0.87258100  0.77692800  0.65063700  1
  H  H40  1  0.62741900  0.27692800  0.65063700  1
  H  H41  1  0.87258100  0.77692800  0.84936300  1
  H  H42  1  0.37258100  0.72307200  0.15063700  1
  H  H43  1  0.12741900  0.22307200  0.34936300  1
  H  H44  1  0.75964600  0.74094900  0.35421300  1
  H  H45  1  0.74035400  0.24094900  0.14578700  1
  H  H46  1  0.24035400  0.25905100  0.85421300  1
  H  H47  1  0.25964600  0.75905100  0.64578700  1
  H  H48  1  0.24035400  0.25905100  0.64578700  1
  H  H49  1  0.25964600  0.75905100  0.85421300  1
  H  H50  1  0.75964600  0.74094900  0.14578700  1
  H  H51  1  0.74035400  0.24094900  0.35421300  1
  H  H52  1  0.25005400  0.58511500  0.42843200  1
  H  H53  1  0.24994600  0.08511500  0.07156800  1
  H  H54  1  0.74994600  0.41488500  0.92843200  1
  H  H55  1  0.75005400  0.91488500  0.57156800  1
  H  H56  1  0.74994600  0.41488500  0.57156800  1
  H  H57  1  0.75005400  0.91488500  0.92843200  1
  H  H58  1  0.25005400  0.58511500  0.07156800  1
  H  H59  1  0.24994600  0.08511500  0.42843200  1
  O  O60  1  0.11960000  0.57887000  0.25000000  1
  O  O61  1  0.38040000  0.07887000  0.25000000  1
  O  O62  1  0.88040000  0.42113000  0.75000000  1
  O  O63  1  0.61960000  0.92113000  0.75000000  1
  O  O64  1  0.68106100  0.81610600  0.25000000  1
  O  O65  1  0.81893900  0.31610600  0.25000000  1
  O  O66  1  0.31893900  0.18389400  0.75000000  1
  O  O67  1  0.18106100  0.68389400  0.75000000  1
  O  O68  1  0.96698600  0.98789700  0.36448800  1
  O  O69  1  0.53301400  0.48789700  0.13551200  1
  O  O70  1  0.03301400  0.01210300  0.86448800  1
  O  O71  1  0.46698600  0.51210300  0.63551200  1
  O  O72  1  0.03301400  0.01210300  0.63551200  1
  O  O73  1  0.46698600  0.51210300  0.86448800  1
  O  O74  1  0.96698600  0.98789700  0.13551200  1
  O  O75  1  0.53301400  0.48789700  0.36448800  1
  O  O76  1  0.33909400  0.78926000  0.38297500  1
  O  O77  1  0.16090600  0.28926000  0.11702500  1
  O  O78  1  0.66090600  0.21074000  0.88297500  1
  O  O79  1  0.83909400  0.71074000  0.61702500  1
  O  O80  1  0.66090600  0.21074000  0.61702500  1
  O  O81  1  0.83909400  0.71074000  0.88297500  1
  O  O82  1  0.33909400  0.78926000  0.11702500  1
  O  O83  1  0.16090600  0.28926000  0.38297500  1
  O  O84  1  0.84150300  0.71394800  0.39724300  1
  O  O85  1  0.65849700  0.21394800  0.10275700  1
  O  O86  1  0.15849700  0.28605200  0.89724300  1
  O  O87  1  0.34150300  0.78605200  0.60275700  1
  O  O88  1  0.15849700  0.28605200  0.60275700  1
  O  O89  1  0.34150300  0.78605200  0.89724300  1
  O  O90  1  0.84150300  0.71394800  0.10275700  1
  O  O91  1  0.65849700  0.21394800  0.39724300  1
  O  O92  1  0.20247300  0.55625600  0.47917300  1
  O  O93  1  0.29752700  0.05625600  0.02082700  1
  O  O94  1  0.79752700  0.44374400  0.97917300  1
  O  O95  1  0.70247300  0.94374400  0.52082700  1
  O  O96  1  0.79752700  0.44374400  0.52082700  1
  O  O97  1  0.70247300  0.94374400  0.97917300  1
  O  O98  1  0.20247300  0.55625600  0.02082700  1
  O  O99  1  0.29752700  0.05625600  0.47917300  1
