# generated using pymatgen
data_Zn2As2O7
_symmetry_space_group_name_H-M   'P 1'
_cell_length_a   6.75944800
_cell_length_b   8.62954800
_cell_length_c   4.86343062
_cell_angle_alpha   90.00000000
_cell_angle_beta   104.45248964
_cell_angle_gamma   90.00000000
_symmetry_Int_Tables_number   1
_chemical_formula_structural   Zn2As2O7
_chemical_formula_sum   'Zn4 As4 O14'
_cell_volume   274.71132981
_cell_formula_units_Z   2
loop_
 _symmetry_equiv_pos_site_id
 _symmetry_equiv_pos_as_xyz
  1  'x, y, z'
loop_
 _atom_site_type_symbol
 _atom_site_label
 _atom_site_symmetry_multiplicity
 _atom_site_fract_x
 _atom_site_fract_y
 _atom_site_fract_z
 _atom_site_occupancy
  Zn  Zn0  1  0.50000000  0.19266700  0.00000000  1
  Zn  Zn1  1  0.50000000  0.80733300  0.00000000  1
  Zn  Zn2  1  0.00000000  0.69266700  0.00000000  1
  Zn  Zn3  1  0.00000000  0.30733300  0.00000000  1
  As  As4  1  0.23146900  0.00000000  0.40206600  1
  As  As5  1  0.76853100  0.00000000  0.59793400  1
  As  As6  1  0.73146900  0.50000000  0.40206600  1
  As  As7  1  0.26853100  0.50000000  0.59793400  1
  O  O8  1  0.59350600  0.00000000  0.27341100  1
  O  O9  1  0.23186250  0.16592050  0.21031900  1
  O  O10  1  0.23186250  0.83407950  0.21031900  1
  O  O11  1  0.00000000  0.00000000  0.50000000  1
  O  O12  1  0.76813750  0.16592050  0.78968100  1
  O  O13  1  0.76813750  0.83407950  0.78968100  1
  O  O14  1  0.40649400  0.00000000  0.72658900  1
  O  O15  1  0.09350600  0.50000000  0.27341100  1
  O  O16  1  0.73186250  0.66592050  0.21031900  1
  O  O17  1  0.73186250  0.33407950  0.21031900  1
  O  O18  1  0.50000000  0.50000000  0.50000000  1
  O  O19  1  0.26813750  0.66592050  0.78968100  1
  O  O20  1  0.26813750  0.33407950  0.78968100  1
  O  O21  1  0.90649400  0.50000000  0.72658900  1
