# generated using pymatgen
data_Tm2Ti2O7
_symmetry_space_group_name_H-M   'P 1'
_cell_length_a   7.47604900
_cell_length_b   5.28293300
_cell_length_c   13.14741993
_cell_angle_alpha   90.00000000
_cell_angle_beta   98.30676210
_cell_angle_gamma   90.00000000
_symmetry_Int_Tables_number   1
_chemical_formula_structural   Tm2Ti2O7
_chemical_formula_sum   'Tm8 Ti8 O28'
_cell_volume   513.81575112
_cell_formula_units_Z   4
loop_
 _symmetry_equiv_pos_site_id
 _symmetry_equiv_pos_as_xyz
  1  'x, y, z'
loop_
 _atom_site_type_symbol
 _atom_site_label
 _atom_site_symmetry_multiplicity
 _atom_site_fract_x
 _atom_site_fract_y
 _atom_site_fract_z
 _atom_site_occupancy
  Tm  Tm0  1  0.76511500  0.72419700  0.07358400  1
  Tm  Tm1  1  0.85883600  0.14145800  0.43907400  1
  Tm  Tm2  1  0.71357100  0.25387400  0.86387900  1
  Tm  Tm3  1  0.64446100  0.72146400  0.61424700  1
  Tm  Tm4  1  0.35553900  0.22146400  0.38575300  1
  Tm  Tm5  1  0.28642900  0.75387400  0.13612100  1
  Tm  Tm6  1  0.14116400  0.64145800  0.56092600  1
  Tm  Tm7  1  0.23488500  0.22419700  0.92641600  1
  Ti  Ti8  1  0.93036200  0.21761000  0.67901700  1
  Ti  Ti9  1  0.96995700  0.73032100  0.87815400  1
  Ti  Ti10  1  0.59043700  0.70648600  0.32877400  1
  Ti  Ti11  1  0.53071300  0.23154900  0.12594500  1
  Ti  Ti12  1  0.46928700  0.73154900  0.87405500  1
  Ti  Ti13  1  0.40956300  0.20648600  0.67122600  1
  Ti  Ti14  1  0.03004300  0.23032100  0.12184600  1
  Ti  Ti15  1  0.06963800  0.71761000  0.32098300  1
  O  O16  1  0.99349400  0.07061600  0.82219000  1
  O  O17  1  0.92822900  0.93528700  0.59126800  1
  O  O18  1  0.82796300  0.83615800  0.31724500  1
  O  O19  1  0.77930000  0.13922100  0.11900500  1
  O  O20  1  0.85721800  0.43514400  0.56798700  1
  O  O21  1  0.93481900  0.45463700  0.97434300  1
  O  O22  1  0.86728800  0.54810900  0.76621100  1
  O  O23  1  0.63670000  0.39917300  0.38209000  1
  O  O24  1  0.57946900  0.57204300  0.17649500  1
  O  O25  1  0.67353800  0.11316700  0.69538500  1
  O  O26  1  0.72826600  0.85523400  0.91161600  1
  O  O27  1  0.58649300  0.91203300  0.44908000  1
  O  O28  1  0.44899800  0.95761400  0.02715000  1
  O  O29  1  0.48201000  0.04626100  0.23661600  1
  O  O30  1  0.51799000  0.54626100  0.76338400  1
  O  O31  1  0.55100200  0.45761400  0.97285000  1
  O  O32  1  0.41350700  0.41203300  0.55092000  1
  O  O33  1  0.27173400  0.35523400  0.08838400  1
  O  O34  1  0.32646200  0.61316700  0.30461500  1
  O  O35  1  0.42053100  0.07204300  0.82350500  1
  O  O36  1  0.36330000  0.89917300  0.61791000  1
  O  O37  1  0.13271200  0.04810900  0.23378900  1
  O  O38  1  0.06518100  0.95463700  0.02565700  1
  O  O39  1  0.14278200  0.93514400  0.43201300  1
  O  O40  1  0.22070000  0.63922100  0.88099500  1
  O  O41  1  0.17203700  0.33615800  0.68275500  1
  O  O42  1  0.07177100  0.43528700  0.40873200  1
  O  O43  1  0.00650600  0.57061600  0.17781000  1
