# generated using pymatgen
data_LiBiB2O5
_symmetry_space_group_name_H-M   'P 1'
_cell_length_a   10.43471600
_cell_length_b   10.85899600
_cell_length_c   10.22722395
_cell_angle_alpha   90.00000000
_cell_angle_beta   116.89793265
_cell_angle_gamma   90.00000000
_symmetry_Int_Tables_number   1
_chemical_formula_structural   LiBiB2O5
_chemical_formula_sum   'Li8 Bi8 B16 O40'
_cell_volume   1033.48050068
_cell_formula_units_Z   8
loop_
 _symmetry_equiv_pos_site_id
 _symmetry_equiv_pos_as_xyz
  1  'x, y, z'
loop_
 _atom_site_type_symbol
 _atom_site_label
 _atom_site_symmetry_multiplicity
 _atom_site_fract_x
 _atom_site_fract_y
 _atom_site_fract_z
 _atom_site_occupancy
  Li  Li0  1  0.81003200  0.85449500  0.84314600  1
  Li  Li1  1  0.81003200  0.14550500  0.34314600  1
  Li  Li2  1  0.18996800  0.85449500  0.65685400  1
  Li  Li3  1  0.18996800  0.14550500  0.15685400  1
  Li  Li4  1  0.31003200  0.35449500  0.84314600  1
  Li  Li5  1  0.31003200  0.64550500  0.34314600  1
  Li  Li6  1  0.68996800  0.35449500  0.65685400  1
  Li  Li7  1  0.68996800  0.64550500  0.15685400  1
  Bi  Bi8  1  0.50000000  0.64580600  0.75000000  1
  Bi  Bi9  1  0.50000000  0.07926400  0.75000000  1
  Bi  Bi10  1  0.50000000  0.92073600  0.25000000  1
  Bi  Bi11  1  0.50000000  0.35419400  0.25000000  1
  Bi  Bi12  1  0.00000000  0.14580600  0.75000000  1
  Bi  Bi13  1  0.00000000  0.57926400  0.75000000  1
  Bi  Bi14  1  0.00000000  0.42073600  0.25000000  1
  Bi  Bi15  1  0.00000000  0.85419400  0.25000000  1
  B  B16  1  0.76919200  0.00402900  0.59010300  1
  B  B17  1  0.57759750  0.82627350  0.52950900  1
  B  B18  1  0.76919200  0.99597100  0.09010300  1
  B  B19  1  0.57759750  0.17372650  0.02950900  1
  B  B20  1  0.42240250  0.82627350  0.97049100  1
  B  B21  1  0.23080800  0.00402900  0.90989700  1
  B  B22  1  0.42240250  0.17372650  0.47049100  1
  B  B23  1  0.23080800  0.99597100  0.40989700  1
  B  B24  1  0.26919200  0.50402900  0.59010300  1
  B  B25  1  0.07759750  0.32627350  0.52950900  1
  B  B26  1  0.26919200  0.49597100  0.09010300  1
  B  B27  1  0.07759750  0.67372650  0.02950900  1
  B  B28  1  0.92240250  0.32627350  0.97049100  1
  B  B29  1  0.73080800  0.50402900  0.90989700  1
  B  B30  1  0.92240250  0.67372650  0.47049100  1
  B  B31  1  0.73080800  0.49597100  0.40989700  1
  O  O32  1  0.80744300  0.09108600  0.51870100  1
  O  O33  1  0.82741600  0.99582100  0.73813300  1
  O  O34  1  0.80744300  0.90891400  0.01870100  1
  O  O35  1  0.60795750  0.79912450  0.66763400  1
  O  O36  1  0.53177550  0.21500850  0.60461600  1
  O  O37  1  0.82741600  0.00417900  0.23813300  1
  O  O38  1  0.66239200  0.08351100  0.99995500  1
  O  O39  1  0.33760800  0.08351100  0.50004500  1
  O  O40  1  0.60795750  0.20087550  0.16763400  1
  O  O41  1  0.53177550  0.78499150  0.10461600  1
  O  O42  1  0.46822450  0.21500850  0.89538400  1
  O  O43  1  0.39204250  0.79912450  0.83236600  1
  O  O44  1  0.66239200  0.91648900  0.49995500  1
  O  O45  1  0.33760800  0.91648900  0.00004500  1
  O  O46  1  0.17258400  0.99582100  0.76186700  1
  O  O47  1  0.46822450  0.78499150  0.39538400  1
  O  O48  1  0.39204250  0.20087550  0.33236600  1
  O  O49  1  0.19255700  0.09108600  0.98129900  1
  O  O50  1  0.17258400  0.00417900  0.26186700  1
  O  O51  1  0.19255700  0.90891400  0.48129900  1
  O  O52  1  0.30744300  0.59108600  0.51870100  1
  O  O53  1  0.32741600  0.49582100  0.73813300  1
  O  O54  1  0.30744300  0.40891400  0.01870100  1
  O  O55  1  0.10795750  0.29912450  0.66763400  1
  O  O56  1  0.03177550  0.71500850  0.60461600  1
  O  O57  1  0.32741600  0.50417900  0.23813300  1
  O  O58  1  0.16239200  0.58351100  0.99995500  1
  O  O59  1  0.83760800  0.58351100  0.50004500  1
  O  O60  1  0.10795750  0.70087550  0.16763400  1
  O  O61  1  0.03177550  0.28499150  0.10461600  1
  O  O62  1  0.96822450  0.71500850  0.89538400  1
  O  O63  1  0.89204250  0.29912450  0.83236600  1
  O  O64  1  0.16239200  0.41648900  0.49995500  1
  O  O65  1  0.83760800  0.41648900  0.00004500  1
  O  O66  1  0.67258400  0.49582100  0.76186700  1
  O  O67  1  0.96822450  0.28499150  0.39538400  1
  O  O68  1  0.89204250  0.70087550  0.33236600  1
  O  O69  1  0.69255700  0.59108600  0.98129900  1
  O  O70  1  0.67258400  0.50417900  0.26186700  1
  O  O71  1  0.69255700  0.40891400  0.48129900  1
