# generated using pymatgen
data_Ba2Ti6N2O11
_symmetry_space_group_name_H-M   'P 1'
_cell_length_a   15.41556000
_cell_length_b   3.94873200
_cell_length_c   9.24111900
_cell_angle_alpha   90.00000000
_cell_angle_beta   98.67445245
_cell_angle_gamma   90.00000000
_symmetry_Int_Tables_number   1
_chemical_formula_structural   Ba2Ti6N2O11
_chemical_formula_sum   'Ba4 Ti12 N4 O22'
_cell_volume   556.09002339
_cell_formula_units_Z   2
loop_
 _symmetry_equiv_pos_site_id
 _symmetry_equiv_pos_as_xyz
  1  'x, y, z'
loop_
 _atom_site_type_symbol
 _atom_site_label
 _atom_site_symmetry_multiplicity
 _atom_site_fract_x
 _atom_site_fract_y
 _atom_site_fract_z
 _atom_site_occupancy
  Ba  Ba0  1  0.55260200  0.00000000  0.76557600  1
  Ba  Ba1  1  0.95086700  0.50000000  0.22587100  1
  Ba  Ba2  1  0.05260200  0.50000000  0.76557600  1
  Ba  Ba3  1  0.45086700  0.00000000  0.22587100  1
  Ti  Ti4  1  0.61923900  0.50000000  0.08881500  1
  Ti  Ti5  1  0.66810300  0.50000000  0.44001500  1
  Ti  Ti6  1  0.74878100  0.50000000  0.77791500  1
  Ti  Ti7  1  0.76328300  0.00000000  0.23312800  1
  Ti  Ti8  1  0.82661900  0.00000000  0.57173300  1
  Ti  Ti9  1  0.87506900  0.00000000  0.89727500  1
  Ti  Ti10  1  0.11923900  0.00000000  0.08881500  1
  Ti  Ti11  1  0.16810300  0.00000000  0.44001500  1
  Ti  Ti12  1  0.24878100  0.00000000  0.77791500  1
  Ti  Ti13  1  0.26328300  0.50000000  0.23312800  1
  Ti  Ti14  1  0.32661900  0.50000000  0.57173300  1
  Ti  Ti15  1  0.37506900  0.50000000  0.89727500  1
  N  N16  1  0.76249700  0.00000000  0.75405100  1
  N  N17  1  0.86116800  0.50000000  0.89705500  1
  N  N18  1  0.26249700  0.50000000  0.75405100  1
  N  N19  1  0.36116800  0.00000000  0.89705500  1
  O  O20  1  0.57350400  0.50000000  0.29421300  1
  O  O21  1  0.62567900  0.50000000  0.60910000  1
  O  O22  1  0.66422600  0.50000000  0.91136200  1
  O  O23  1  0.63861200  0.00000000  0.11502400  1
  O  O24  1  0.69984900  0.00000000  0.42753200  1
  O  O25  1  0.74015100  0.50000000  0.23980100  1
  O  O26  1  0.79809700  0.50000000  0.56821700  1
  O  O27  1  0.83443100  0.00000000  0.09538200  1
  O  O28  1  0.86521100  0.00000000  0.38322200  1
  O  O29  1  0.92849900  0.00000000  0.70187800  1
  O  O30  1  0.50351200  0.50000000  0.00283700  1
  O  O31  1  0.07350400  0.00000000  0.29421300  1
  O  O32  1  0.12567900  0.00000000  0.60910000  1
  O  O33  1  0.16422600  0.00000000  0.91136200  1
  O  O34  1  0.13861200  0.50000000  0.11502400  1
  O  O35  1  0.19984900  0.50000000  0.42753200  1
  O  O36  1  0.24015100  0.00000000  0.23980100  1
  O  O37  1  0.29809700  0.00000000  0.56821700  1
  O  O38  1  0.33443100  0.50000000  0.09538200  1
  O  O39  1  0.36521100  0.50000000  0.38322200  1
  O  O40  1  0.42849900  0.50000000  0.70187800  1
  O  O41  1  0.00351200  0.00000000  0.00283700  1
