# generated using pymatgen
data_Na4GeH28(Se2O7)2
_symmetry_space_group_name_H-M   'P 1'
_cell_length_a   12.90544200
_cell_length_b   11.32570000
_cell_length_c   8.21802535
_cell_angle_alpha   90.00000000
_cell_angle_beta   108.64399064
_cell_angle_gamma   90.00000000
_symmetry_Int_Tables_number   1
_chemical_formula_structural   Na4GeH28(Se2O7)2
_chemical_formula_sum   'Na8 Ge2 H56 Se8 O28'
_cell_volume   1138.13894412
_cell_formula_units_Z   2
loop_
 _symmetry_equiv_pos_site_id
 _symmetry_equiv_pos_as_xyz
  1  'x, y, z'
loop_
 _atom_site_type_symbol
 _atom_site_label
 _atom_site_symmetry_multiplicity
 _atom_site_fract_x
 _atom_site_fract_y
 _atom_site_fract_z
 _atom_site_occupancy
  Na  Na0  1  0.14613200  0.28180000  0.59179700  1
  Na  Na1  1  0.85386800  0.28180000  0.40820300  1
  Na  Na2  1  0.16562450  0.57910750  0.31546100  1
  Na  Na3  1  0.83437550  0.57910750  0.68453900  1
  Na  Na4  1  0.64613200  0.78180000  0.59179700  1
  Na  Na5  1  0.35386800  0.78180000  0.40820300  1
  Na  Na6  1  0.66562450  0.07910750  0.31546100  1
  Na  Na7  1  0.33437550  0.07910750  0.68453900  1
  Ge  Ge8  1  0.00000000  0.00404200  0.00000000  1
  Ge  Ge9  1  0.50000000  0.50404200  0.00000000  1
  H  H10  1  0.91439400  0.53844900  0.08988300  1
  H  H11  1  0.08560600  0.53844900  0.91011700  1
  H  H12  1  0.95168600  0.66172000  0.18258000  1
  H  H13  1  0.04831400  0.66172000  0.81742000  1
  H  H14  1  0.14849200  0.34834600  0.08480800  1
  H  H15  1  0.85150800  0.34834600  0.91519200  1
  H  H16  1  0.24911450  0.43005350  0.11076400  1
  H  H17  1  0.75088550  0.43005350  0.88923600  1
  H  H18  1  0.16490300  0.77894400  0.05808300  1
  H  H19  1  0.83509700  0.77894400  0.94191700  1
  H  H20  1  0.26189550  0.69389050  0.06607400  1
  H  H21  1  0.73810450  0.69389050  0.93392600  1
  H  H22  1  0.39306300  0.54925900  0.56921900  1
  H  H23  1  0.60693700  0.54925900  0.43078100  1
  H  H24  1  0.39743850  0.51348750  0.38517800  1
  H  H25  1  0.60256150  0.51348750  0.61482200  1
  H  H26  1  0.01750000  0.37736300  0.25677300  1
  H  H27  1  0.98250000  0.37736300  0.74322700  1
  H  H28  1  0.03934950  0.24290350  0.24160500  1
  H  H29  1  0.96065050  0.24290350  0.75839500  1
  H  H30  1  0.77922950  0.52130350  0.34254100  1
  H  H31  1  0.22077050  0.52130350  0.65745900  1
  H  H32  1  0.90160300  0.52297100  0.36285200  1
  H  H33  1  0.09839700  0.52297100  0.63714800  1
  H  H34  1  0.12254200  0.80496500  0.44171100  1
  H  H35  1  0.87745800  0.80496500  0.55828900  1
  H  H36  1  0.19913250  0.74314850  0.61081400  1
  H  H37  1  0.80086750  0.74314850  0.38918600  1
  H  H38  1  0.41439400  0.03844900  0.08988300  1
  H  H39  1  0.58560600  0.03844900  0.91011700  1
  H  H40  1  0.45168600  0.16172000  0.18258000  1
  H  H41  1  0.54831400  0.16172000  0.81742000  1
  H  H42  1  0.64849200  0.84834600  0.08480800  1
  H  H43  1  0.35150800  0.84834600  0.91519200  1
  H  H44  1  0.74911450  0.93005350  0.11076400  1
  H  H45  1  0.25088550  0.93005350  0.88923600  1
  H  H46  1  0.66490300  0.27894400  0.05808300  1
  H  H47  1  0.33509700  0.27894400  0.94191700  1
  H  H48  1  0.76189550  0.19389050  0.06607400  1
  H  H49  1  0.23810450  0.19389050  0.93392600  1
  H  H50  1  0.89306300  0.04925900  0.56921900  1
  H  H51  1  0.10693700  0.04925900  0.43078100  1
  H  H52  1  0.89743850  0.01348750  0.38517800  1
  H  H53  1  0.10256150  0.01348750  0.61482200  1
  H  H54  1  0.51750000  0.87736300  0.25677300  1
  H  H55  1  0.48250000  0.87736300  0.74322700  1
  H  H56  1  0.53934950  0.74290350  0.24160500  1
  H  H57  1  0.46065050  0.74290350  0.75839500  1
  H  H58  1  0.27922950  0.02130350  0.34254100  1
  H  H59  1  0.72077050  0.02130350  0.65745900  1
  H  H60  1  0.40160300  0.02297100  0.36285200  1
  H  H61  1  0.59839700  0.02297100  0.63714800  1
  H  H62  1  0.62254200  0.30496500  0.44171100  1
  H  H63  1  0.37745800  0.30496500  0.55828900  1
  H  H64  1  0.69913250  0.24314850  0.61081400  1
  H  H65  1  0.30086750  0.24314850  0.38918600  1
  Se  Se66  1  0.64963700  0.63078800  0.13574500  1
  Se  Se67  1  0.35036300  0.63078800  0.86425500  1
  Se  Se68  1  0.95290750  0.88337250  0.20612400  1
  Se  Se69  1  0.04709250  0.88337250  0.79387600  1
  Se  Se70  1  0.14963700  0.13078800  0.13574500  1
  Se  Se71  1  0.85036300  0.13078800  0.86425500  1
  Se  Se72  1  0.45290750  0.38337250  0.20612400  1
  Se  Se73  1  0.54709250  0.38337250  0.79387600  1
  O  O74  1  0.96422500  0.57544100  0.19525400  1
  O  O75  1  0.03577500  0.57544100  0.80474600  1
  O  O76  1  0.16944500  0.43292600  0.09294200  1
  O  O77  1  0.83055500  0.43292600  0.90705800  1
  O  O78  1  0.21749300  0.72411300  0.13605800  1
  O  O79  1  0.78250700  0.72411300  0.86394200  1
  O  O80  1  0.36077150  0.56673150  0.44615900  1
  O  O81  1  0.63922850  0.56673150  0.55384100  1
  O  O82  1  0.00943850  0.30120550  0.30658600  1
  O  O83  1  0.99056150  0.30120550  0.69341400  1
  O  O84  1  0.85069200  0.49206900  0.42060900  1
  O  O85  1  0.14930800  0.49206900  0.57939100  1
  O  O86  1  0.18884400  0.75672100  0.48884800  1
  O  O87  1  0.81115600  0.75672100  0.51115200  1
  O  O88  1  0.46422500  0.07544100  0.19525400  1
  O  O89  1  0.53577500  0.07544100  0.80474600  1
  O  O90  1  0.66944500  0.93292600  0.09294200  1
  O  O91  1  0.33055500  0.93292600  0.90705800  1
  O  O92  1  0.71749300  0.22411300  0.13605800  1
  O  O93  1  0.28250700  0.22411300  0.86394200  1
  O  O94  1  0.86077150  0.06673150  0.44615900  1
  O  O95  1  0.13922850  0.06673150  0.55384100  1
  O  O96  1  0.50943850  0.80120550  0.30658600  1
  O  O97  1  0.49056150  0.80120550  0.69341400  1
  O  O98  1  0.35069200  0.99206900  0.42060900  1
  O  O99  1  0.64930800  0.99206900  0.57939100  1
  O  O100  1  0.68884400  0.25672100  0.48884800  1
  O  O101  1  0.31115600  0.25672100  0.51115200  1
