# generated using pymatgen
data_Ca19(Mg4H27)2
_symmetry_space_group_name_H-M   'P 1'
_cell_length_a   12.19286600
_cell_length_b   12.19286600
_cell_length_c   12.19286600
_cell_angle_alpha   90.00000000
_cell_angle_beta   90.00000000
_cell_angle_gamma   90.00000000
_symmetry_Int_Tables_number   1
_chemical_formula_structural   Ca19(Mg4H27)2
_chemical_formula_sum   'Ca38 Mg16 H108'
_cell_volume   1812.66438868
_cell_formula_units_Z   2
loop_
 _symmetry_equiv_pos_site_id
 _symmetry_equiv_pos_as_xyz
  1  'x, y, z'
loop_
 _atom_site_type_symbol
 _atom_site_label
 _atom_site_symmetry_multiplicity
 _atom_site_fract_x
 _atom_site_fract_y
 _atom_site_fract_z
 _atom_site_occupancy
  Ca  Ca0  1  0.65379300  0.00000000  0.31346700  1
  Ca  Ca1  1  0.84620700  0.50000000  0.18653300  1
  Ca  Ca2  1  0.34620700  0.00000000  0.31346700  1
  Ca  Ca3  1  0.15379300  0.50000000  0.18653300  1
  Ca  Ca4  1  0.31346700  0.65379300  0.00000000  1
  Ca  Ca5  1  0.18653300  0.84620700  0.50000000  1
  Ca  Ca6  1  0.31346700  0.34620700  0.00000000  1
  Ca  Ca7  1  0.18653300  0.15379300  0.50000000  1
  Ca  Ca8  1  0.00000000  0.31346700  0.65379300  1
  Ca  Ca9  1  0.50000000  0.18653300  0.84620700  1
  Ca  Ca10  1  0.00000000  0.31346700  0.34620700  1
  Ca  Ca11  1  0.50000000  0.18653300  0.15379300  1
  Ca  Ca12  1  0.00000000  0.33077400  0.00000000  1
  Ca  Ca13  1  0.00000000  0.66922600  0.00000000  1
  Ca  Ca14  1  0.00000000  0.00000000  0.33077400  1
  Ca  Ca15  1  0.00000000  0.00000000  0.66922600  1
  Ca  Ca16  1  0.33077400  0.00000000  0.00000000  1
  Ca  Ca17  1  0.66922600  0.00000000  0.00000000  1
  Ca  Ca18  1  0.00000000  0.00000000  0.00000000  1
  Ca  Ca19  1  0.15379300  0.50000000  0.81346700  1
  Ca  Ca20  1  0.34620700  0.00000000  0.68653300  1
  Ca  Ca21  1  0.84620700  0.50000000  0.81346700  1
  Ca  Ca22  1  0.65379300  0.00000000  0.68653300  1
  Ca  Ca23  1  0.81346700  0.15379300  0.50000000  1
  Ca  Ca24  1  0.68653300  0.34620700  0.00000000  1
  Ca  Ca25  1  0.81346700  0.84620700  0.50000000  1
  Ca  Ca26  1  0.68653300  0.65379300  0.00000000  1
  Ca  Ca27  1  0.50000000  0.81346700  0.15379300  1
  Ca  Ca28  1  0.00000000  0.68653300  0.34620700  1
  Ca  Ca29  1  0.50000000  0.81346700  0.84620700  1
  Ca  Ca30  1  0.00000000  0.68653300  0.65379300  1
  Ca  Ca31  1  0.50000000  0.83077400  0.50000000  1
  Ca  Ca32  1  0.50000000  0.16922600  0.50000000  1
  Ca  Ca33  1  0.50000000  0.50000000  0.83077400  1
  Ca  Ca34  1  0.50000000  0.50000000  0.16922600  1
  Ca  Ca35  1  0.83077400  0.50000000  0.50000000  1
  Ca  Ca36  1  0.16922600  0.50000000  0.50000000  1
  Ca  Ca37  1  0.50000000  0.50000000  0.50000000  1
  Mg  Mg38  1  0.84208200  0.15791800  0.15791800  1
  Mg  Mg39  1  0.15791800  0.15791800  0.84208200  1
  Mg  Mg40  1  0.15791800  0.84208200  0.15791800  1
  Mg  Mg41  1  0.34208200  0.34208200  0.34208200  1
  Mg  Mg42  1  0.65791800  0.34208200  0.34208200  1
  Mg  Mg43  1  0.34208200  0.34208200  0.65791800  1
  Mg  Mg44  1  0.34208200  0.65791800  0.34208200  1
  Mg  Mg45  1  0.15791800  0.15791800  0.15791800  1
  Mg  Mg46  1  0.34208200  0.65791800  0.65791800  1
  Mg  Mg47  1  0.65791800  0.65791800  0.34208200  1
  Mg  Mg48  1  0.65791800  0.34208200  0.65791800  1
  Mg  Mg49  1  0.84208200  0.84208200  0.84208200  1
  Mg  Mg50  1  0.15791800  0.84208200  0.84208200  1
  Mg  Mg51  1  0.84208200  0.84208200  0.15791800  1
  Mg  Mg52  1  0.84208200  0.15791800  0.84208200  1
  Mg  Mg53  1  0.65791800  0.65791800  0.65791800  1
  H  H54  1  0.32994750  0.81064450  0.61194650  1
  H  H55  1  0.17005250  0.31064450  0.88805350  1
  H  H56  1  0.17005250  0.68935550  0.11194650  1
  H  H57  1  0.32994750  0.18935550  0.38805350  1
  H  H58  1  0.61194650  0.32994750  0.81064450  1
  H  H59  1  0.88805350  0.17005250  0.31064450  1
  H  H60  1  0.11194650  0.17005250  0.68935550  1
  H  H61  1  0.38805350  0.32994750  0.18935550  1
  H  H62  1  0.81064450  0.61194650  0.32994750  1
  H  H63  1  0.31064450  0.88805350  0.17005250  1
  H  H64  1  0.68935550  0.11194650  0.17005250  1
  H  H65  1  0.18935550  0.38805350  0.32994750  1
  H  H66  1  0.17005250  0.68935550  0.88805350  1
  H  H67  1  0.32994750  0.18935550  0.61194650  1
  H  H68  1  0.32994750  0.81064450  0.38805350  1
  H  H69  1  0.17005250  0.31064450  0.11194650  1
  H  H70  1  0.88805350  0.17005250  0.68935550  1
  H  H71  1  0.61194650  0.32994750  0.18935550  1
  H  H72  1  0.38805350  0.32994750  0.81064450  1
  H  H73  1  0.11194650  0.17005250  0.31064450  1
  H  H74  1  0.68935550  0.88805350  0.17005250  1
  H  H75  1  0.18935550  0.61194650  0.32994750  1
  H  H76  1  0.81064450  0.38805350  0.32994750  1
  H  H77  1  0.31064450  0.11194650  0.17005250  1
  H  H78  1  0.31917450  0.50000000  0.89664050  1
  H  H79  1  0.18082550  0.00000000  0.60335950  1
  H  H80  1  0.18082550  0.00000000  0.39664050  1
  H  H81  1  0.31917450  0.50000000  0.10335950  1
  H  H82  1  0.89664050  0.31917450  0.50000000  1
  H  H83  1  0.60335950  0.18082550  0.00000000  1
  H  H84  1  0.39664050  0.18082550  0.00000000  1
  H  H85  1  0.10335950  0.31917450  0.50000000  1
  H  H86  1  0.50000000  0.89664050  0.31917450  1
  H  H87  1  0.00000000  0.60335950  0.18082550  1
  H  H88  1  0.00000000  0.39664050  0.18082550  1
  H  H89  1  0.50000000  0.10335950  0.31917450  1
  H  H90  1  0.38993900  0.50000000  0.67253500  1
  H  H91  1  0.11006100  0.00000000  0.82746500  1
  H  H92  1  0.11006100  0.00000000  0.17253500  1
  H  H93  1  0.38993900  0.50000000  0.32746500  1
  H  H94  1  0.67253500  0.38993900  0.50000000  1
  H  H95  1  0.82746500  0.11006100  0.00000000  1
  H  H96  1  0.17253500  0.11006100  0.00000000  1
  H  H97  1  0.32746500  0.38993900  0.50000000  1
  H  H98  1  0.50000000  0.67253500  0.38993900  1
  H  H99  1  0.00000000  0.82746500  0.11006100  1
  H  H100  1  0.00000000  0.17253500  0.11006100  1
  H  H101  1  0.50000000  0.32746500  0.38993900  1
  H  H102  1  0.00000000  0.11434900  0.50000000  1
  H  H103  1  0.50000000  0.38565100  0.00000000  1
  H  H104  1  0.50000000  0.00000000  0.11434900  1
  H  H105  1  0.00000000  0.50000000  0.38565100  1
  H  H106  1  0.11434900  0.50000000  0.00000000  1
  H  H107  1  0.38565100  0.00000000  0.50000000  1
  H  H108  1  0.82994750  0.31064450  0.11194650  1
  H  H109  1  0.67005250  0.81064450  0.38805350  1
  H  H110  1  0.67005250  0.18935550  0.61194650  1
  H  H111  1  0.82994750  0.68935550  0.88805350  1
  H  H112  1  0.11194650  0.82994750  0.31064450  1
  H  H113  1  0.38805350  0.67005250  0.81064450  1
  H  H114  1  0.61194650  0.67005250  0.18935550  1
  H  H115  1  0.88805350  0.82994750  0.68935550  1
  H  H116  1  0.31064450  0.11194650  0.82994750  1
  H  H117  1  0.81064450  0.38805350  0.67005250  1
  H  H118  1  0.18935550  0.61194650  0.67005250  1
  H  H119  1  0.68935550  0.88805350  0.82994750  1
  H  H120  1  0.67005250  0.18935550  0.38805350  1
  H  H121  1  0.82994750  0.68935550  0.11194650  1
  H  H122  1  0.82994750  0.31064450  0.88805350  1
  H  H123  1  0.67005250  0.81064450  0.61194650  1
  H  H124  1  0.38805350  0.67005250  0.18935550  1
  H  H125  1  0.11194650  0.82994750  0.68935550  1
  H  H126  1  0.88805350  0.82994750  0.31064450  1
  H  H127  1  0.61194650  0.67005250  0.81064450  1
  H  H128  1  0.18935550  0.38805350  0.67005250  1
  H  H129  1  0.68935550  0.11194650  0.82994750  1
  H  H130  1  0.31064450  0.88805350  0.82994750  1
  H  H131  1  0.81064450  0.61194650  0.67005250  1
  H  H132  1  0.81917450  0.00000000  0.39664050  1
  H  H133  1  0.68082550  0.50000000  0.10335950  1
  H  H134  1  0.68082550  0.50000000  0.89664050  1
  H  H135  1  0.81917450  0.00000000  0.60335950  1
  H  H136  1  0.39664050  0.81917450  0.00000000  1
  H  H137  1  0.10335950  0.68082550  0.50000000  1
  H  H138  1  0.89664050  0.68082550  0.50000000  1
  H  H139  1  0.60335950  0.81917450  0.00000000  1
  H  H140  1  0.00000000  0.39664050  0.81917450  1
  H  H141  1  0.50000000  0.10335950  0.68082550  1
  H  H142  1  0.50000000  0.89664050  0.68082550  1
  H  H143  1  0.00000000  0.60335950  0.81917450  1
  H  H144  1  0.88993900  0.00000000  0.17253500  1
  H  H145  1  0.61006100  0.50000000  0.32746500  1
  H  H146  1  0.61006100  0.50000000  0.67253500  1
  H  H147  1  0.88993900  0.00000000  0.82746500  1
  H  H148  1  0.17253500  0.88993900  0.00000000  1
  H  H149  1  0.32746500  0.61006100  0.50000000  1
  H  H150  1  0.67253500  0.61006100  0.50000000  1
  H  H151  1  0.82746500  0.88993900  0.00000000  1
  H  H152  1  0.00000000  0.17253500  0.88993900  1
  H  H153  1  0.50000000  0.32746500  0.61006100  1
  H  H154  1  0.50000000  0.67253500  0.61006100  1
  H  H155  1  0.00000000  0.82746500  0.88993900  1
  H  H156  1  0.50000000  0.61434900  0.00000000  1
  H  H157  1  0.00000000  0.88565100  0.50000000  1
  H  H158  1  0.00000000  0.50000000  0.61434900  1
  H  H159  1  0.50000000  0.00000000  0.88565100  1
  H  H160  1  0.61434900  0.00000000  0.50000000  1
  H  H161  1  0.88565100  0.50000000  0.00000000  1
