# generated using pymatgen
data_TaTl3S4
_symmetry_space_group_name_H-M   'P 1'
_cell_length_a   7.84118200
_cell_length_b   7.84118200
_cell_length_c   7.84118200
_cell_angle_alpha   90.00000000
_cell_angle_beta   90.00000000
_cell_angle_gamma   90.00000000
_symmetry_Int_Tables_number   1
_chemical_formula_structural   TaTl3S4
_chemical_formula_sum   'Ta2 Tl6 S8'
_cell_volume   482.10829388
_cell_formula_units_Z   2
loop_
 _symmetry_equiv_pos_site_id
 _symmetry_equiv_pos_as_xyz
  1  'x, y, z'
loop_
 _atom_site_type_symbol
 _atom_site_label
 _atom_site_symmetry_multiplicity
 _atom_site_fract_x
 _atom_site_fract_y
 _atom_site_fract_z
 _atom_site_occupancy
  Ta  Ta0  1  0.00000000  0.00000000  0.00000000  1
  Ta  Ta1  1  0.50000000  0.50000000  0.50000000  1
  Tl  Tl2  1  0.50000000  0.00000000  0.00000000  1
  Tl  Tl3  1  0.00000000  0.00000000  0.50000000  1
  Tl  Tl4  1  0.00000000  0.50000000  0.00000000  1
  Tl  Tl5  1  0.00000000  0.50000000  0.50000000  1
  Tl  Tl6  1  0.50000000  0.50000000  0.00000000  1
  Tl  Tl7  1  0.50000000  0.00000000  0.50000000  1
  S  S8  1  0.33131400  0.33131400  0.33131400  1
  S  S9  1  0.16868600  0.83131400  0.16868600  1
  S  S10  1  0.83131400  0.16868600  0.16868600  1
  S  S11  1  0.16868600  0.16868600  0.83131400  1
  S  S12  1  0.83131400  0.83131400  0.83131400  1
  S  S13  1  0.66868600  0.33131400  0.66868600  1
  S  S14  1  0.33131400  0.66868600  0.66868600  1
  S  S15  1  0.66868600  0.66868600  0.33131400  1
