# generated using pymatgen
data_Ba2Sc2O5
_symmetry_space_group_name_H-M   'P 1'
_cell_length_a   9.19733000
_cell_length_b   8.63644800
_cell_length_c   8.42733906
_cell_angle_alpha   90.00000000
_cell_angle_beta   91.22975909
_cell_angle_gamma   90.00000000
_symmetry_Int_Tables_number   1
_chemical_formula_structural   Ba2Sc2O5
_chemical_formula_sum   'Ba8 Sc8 O20'
_cell_volume   669.24842378
_cell_formula_units_Z   4
loop_
 _symmetry_equiv_pos_site_id
 _symmetry_equiv_pos_as_xyz
  1  'x, y, z'
loop_
 _atom_site_type_symbol
 _atom_site_label
 _atom_site_symmetry_multiplicity
 _atom_site_fract_x
 _atom_site_fract_y
 _atom_site_fract_z
 _atom_site_occupancy
  Ba  Ba0  1  0.23067650  0.03488450  0.30597100  1
  Ba  Ba1  1  0.23067650  0.96511550  0.80597100  1
  Ba  Ba2  1  0.76932350  0.03488450  0.19402900  1
  Ba  Ba3  1  0.76932350  0.96511550  0.69402900  1
  Ba  Ba4  1  0.73067650  0.53488450  0.30597100  1
  Ba  Ba5  1  0.73067650  0.46511550  0.80597100  1
  Ba  Ba6  1  0.26932350  0.53488450  0.19402900  1
  Ba  Ba7  1  0.26932350  0.46511550  0.69402900  1
  Sc  Sc8  1  0.47102200  0.77215700  0.47832200  1
  Sc  Sc9  1  0.47102200  0.22784300  0.97832200  1
  Sc  Sc10  1  0.52897800  0.77215700  0.02167800  1
  Sc  Sc11  1  0.52897800  0.22784300  0.52167800  1
  Sc  Sc12  1  0.97102200  0.27215700  0.47832200  1
  Sc  Sc13  1  0.97102200  0.72784300  0.97832200  1
  Sc  Sc14  1  0.02897800  0.27215700  0.02167800  1
  Sc  Sc15  1  0.02897800  0.72784300  0.52167800  1
  O  O16  1  0.75000000  0.75000000  0.00000000  1
  O  O17  1  0.38565950  0.35248350  0.41155100  1
  O  O18  1  0.38565950  0.64751650  0.91155100  1
  O  O19  1  0.50000000  0.72247200  0.25000000  1
  O  O20  1  0.50000000  0.00000000  0.50000000  1
  O  O21  1  0.50000000  0.27752800  0.75000000  1
  O  O22  1  0.50000000  0.00000000  0.00000000  1
  O  O23  1  0.61434050  0.35248350  0.08844900  1
  O  O24  1  0.61434050  0.64751650  0.58844900  1
  O  O25  1  0.75000000  0.25000000  0.50000000  1
  O  O26  1  0.25000000  0.25000000  0.00000000  1
  O  O27  1  0.88565950  0.85248350  0.41155100  1
  O  O28  1  0.88565950  0.14751650  0.91155100  1
  O  O29  1  0.00000000  0.22247200  0.25000000  1
  O  O30  1  0.00000000  0.50000000  0.50000000  1
  O  O31  1  0.00000000  0.77752800  0.75000000  1
  O  O32  1  0.00000000  0.50000000  0.00000000  1
  O  O33  1  0.11434050  0.85248350  0.08844900  1
  O  O34  1  0.11434050  0.14751650  0.58844900  1
  O  O35  1  0.25000000  0.75000000  0.50000000  1
