# generated using pymatgen
data_LiBi2P3O11
_symmetry_space_group_name_H-M   'P 1'
_cell_length_a   12.61746400
_cell_length_b   9.48085200
_cell_length_c   9.63482426
_cell_angle_alpha   90.00000000
_cell_angle_beta   118.91869625
_cell_angle_gamma   90.00000000
_symmetry_Int_Tables_number   1
_chemical_formula_structural   LiBi2P3O11
_chemical_formula_sum   'Li4 Bi8 P12 O44'
_cell_volume   1008.84287568
_cell_formula_units_Z   4
loop_
 _symmetry_equiv_pos_site_id
 _symmetry_equiv_pos_as_xyz
  1  'x, y, z'
loop_
 _atom_site_type_symbol
 _atom_site_label
 _atom_site_symmetry_multiplicity
 _atom_site_fract_x
 _atom_site_fract_y
 _atom_site_fract_z
 _atom_site_occupancy
  Li  Li0  1  0.24772350  0.73375350  0.73125500  1
  Li  Li1  1  0.75227650  0.73375350  0.26874500  1
  Li  Li2  1  0.74772350  0.23375350  0.73125500  1
  Li  Li3  1  0.25227650  0.23375350  0.26874500  1
  Bi  Bi4  1  0.11165250  0.23199950  0.80545200  1
  Bi  Bi5  1  0.11208750  0.76733750  0.30321800  1
  Bi  Bi6  1  0.88834750  0.23199950  0.19454800  1
  Bi  Bi7  1  0.88791250  0.76733750  0.69678200  1
  Bi  Bi8  1  0.61165250  0.73199950  0.80545200  1
  Bi  Bi9  1  0.61208750  0.26733750  0.30321800  1
  Bi  Bi10  1  0.38834750  0.73199950  0.19454800  1
  Bi  Bi11  1  0.38791250  0.26733750  0.69678200  1
  P  P12  1  0.11467300  0.56132700  0.98126900  1
  P  P13  1  0.00000000  0.05092600  0.00000000  1
  P  P14  1  0.11594550  0.43888150  0.48525700  1
  P  P15  1  0.88532700  0.56132700  0.01873100  1
  P  P16  1  0.00000000  0.94768300  0.50000000  1
  P  P17  1  0.88405450  0.43888150  0.51474300  1
  P  P18  1  0.61467300  0.06132700  0.98126900  1
  P  P19  1  0.50000000  0.55092600  0.00000000  1
  P  P20  1  0.61594550  0.93888150  0.48525700  1
  P  P21  1  0.38532700  0.06132700  0.01873100  1
  P  P22  1  0.50000000  0.44768300  0.50000000  1
  P  P23  1  0.38405450  0.93888150  0.51474300  1
  O  O24  1  0.45811450  0.46299650  0.84921700  1
  O  O25  1  0.45686100  0.53535300  0.34943800  1
  O  O26  1  0.18301050  0.42931150  0.98353100  1
  O  O27  1  0.18750750  0.65632150  0.12874800  1
  O  O28  1  0.07137850  0.64850450  0.82837800  1
  O  O29  1  0.11017050  0.14955850  0.03004100  1
  O  O30  1  0.18606050  0.57325050  0.49572000  1
  O  O31  1  0.00000000  0.50845500  0.00000000  1
  O  O32  1  0.18624800  0.34281000  0.63212100  1
  O  O33  1  0.07525350  0.35447750  0.33179500  1
  O  O34  1  0.10905200  0.84794000  0.52622700  1
  O  O35  1  0.88982950  0.14955850  0.96995900  1
  O  O36  1  0.92862150  0.64850450  0.17162200  1
  O  O37  1  0.81249250  0.65632150  0.87125200  1
  O  O38  1  0.00000000  0.49231500  0.50000000  1
  O  O39  1  0.81698950  0.42931150  0.01646900  1
  O  O40  1  0.89094800  0.84794000  0.47377300  1
  O  O41  1  0.92474650  0.35447750  0.66820500  1
  O  O42  1  0.81375200  0.34281000  0.36787900  1
  O  O43  1  0.81393950  0.57325050  0.50428000  1
  O  O44  1  0.54188550  0.46299650  0.15078300  1
  O  O45  1  0.54313900  0.53535300  0.65056200  1
  O  O46  1  0.95811450  0.96299650  0.84921700  1
  O  O47  1  0.95686100  0.03535300  0.34943800  1
  O  O48  1  0.68301050  0.92931150  0.98353100  1
  O  O49  1  0.68750750  0.15632150  0.12874800  1
  O  O50  1  0.57137850  0.14850450  0.82837800  1
  O  O51  1  0.61017050  0.64955850  0.03004100  1
  O  O52  1  0.68606050  0.07325050  0.49572000  1
  O  O53  1  0.50000000  0.00845500  0.00000000  1
  O  O54  1  0.68624800  0.84281000  0.63212100  1
  O  O55  1  0.57525350  0.85447750  0.33179500  1
  O  O56  1  0.60905200  0.34794000  0.52622700  1
  O  O57  1  0.38982950  0.64955850  0.96995900  1
  O  O58  1  0.42862150  0.14850450  0.17162200  1
  O  O59  1  0.31249250  0.15632150  0.87125200  1
  O  O60  1  0.50000000  0.99231500  0.50000000  1
  O  O61  1  0.31698950  0.92931150  0.01646900  1
  O  O62  1  0.39094800  0.34794000  0.47377300  1
  O  O63  1  0.42474650  0.85447750  0.66820500  1
  O  O64  1  0.31375200  0.84281000  0.36787900  1
  O  O65  1  0.31393950  0.07325050  0.50428000  1
  O  O66  1  0.04188550  0.96299650  0.15078300  1
  O  O67  1  0.04313900  0.03535300  0.65056200  1
