# generated using pymatgen
data_Na4V2O5
_symmetry_space_group_name_H-M   'P 1'
_cell_length_a   6.01945800
_cell_length_b   9.39042800
_cell_length_c   20.29177200
_cell_angle_alpha   90.00000000
_cell_angle_beta   90.00000000
_cell_angle_gamma   90.00000000
_symmetry_Int_Tables_number   1
_chemical_formula_structural   Na4V2O5
_chemical_formula_sum   'Na32 V16 O40'
_cell_volume   1146.99823498
_cell_formula_units_Z   8
loop_
 _symmetry_equiv_pos_site_id
 _symmetry_equiv_pos_as_xyz
  1  'x, y, z'
loop_
 _atom_site_type_symbol
 _atom_site_label
 _atom_site_symmetry_multiplicity
 _atom_site_fract_x
 _atom_site_fract_y
 _atom_site_fract_z
 _atom_site_occupancy
  Na  Na0  1  0.49954950  0.74939700  0.15565250  1
  Na  Na1  1  0.99954950  0.25060300  0.34434750  1
  Na  Na2  1  0.24954950  0.00060300  0.40565250  1
  Na  Na3  1  0.74954950  0.99939700  0.09434750  1
  Na  Na4  1  0.00045050  0.74939700  0.34434750  1
  Na  Na5  1  0.50045050  0.25060300  0.15565250  1
  Na  Na6  1  0.25045050  0.00060300  0.09434750  1
  Na  Na7  1  0.75045050  0.99939700  0.40565250  1
  Na  Na8  1  0.49954950  0.24939700  0.65565250  1
  Na  Na9  1  0.99954950  0.75060300  0.84434750  1
  Na  Na10  1  0.24954950  0.50060300  0.90565250  1
  Na  Na11  1  0.74954950  0.49939700  0.59434750  1
  Na  Na12  1  0.00045050  0.24939700  0.84434750  1
  Na  Na13  1  0.50045050  0.75060300  0.65565250  1
  Na  Na14  1  0.25045050  0.50060300  0.59434750  1
  Na  Na15  1  0.75045050  0.49939700  0.90565250  1
  Na  Na16  1  0.99954950  0.74939700  0.65565250  1
  Na  Na17  1  0.49954950  0.25060300  0.84434750  1
  Na  Na18  1  0.74954950  0.00060300  0.90565250  1
  Na  Na19  1  0.24954950  0.99939700  0.59434750  1
  Na  Na20  1  0.50045050  0.74939700  0.84434750  1
  Na  Na21  1  0.00045050  0.25060300  0.65565250  1
  Na  Na22  1  0.75045050  0.00060300  0.59434750  1
  Na  Na23  1  0.25045050  0.99939700  0.90565250  1
  Na  Na24  1  0.99954950  0.24939700  0.15565250  1
  Na  Na25  1  0.49954950  0.75060300  0.34434750  1
  Na  Na26  1  0.74954950  0.50060300  0.40565250  1
  Na  Na27  1  0.24954950  0.49939700  0.09434750  1
  Na  Na28  1  0.50045050  0.24939700  0.34434750  1
  Na  Na29  1  0.00045050  0.75060300  0.15565250  1
  Na  Na30  1  0.75045050  0.50060300  0.09434750  1
  Na  Na31  1  0.25045050  0.49939700  0.40565250  1
  V  V32  1  0.75000000  0.45585200  0.25000000  1
  V  V33  1  0.75000000  0.04414800  0.25000000  1
  V  V34  1  0.50000000  0.20585200  0.00000000  1
  V  V35  1  0.50000000  0.79414800  0.00000000  1
  V  V36  1  0.75000000  0.95585200  0.75000000  1
  V  V37  1  0.75000000  0.54414800  0.75000000  1
  V  V38  1  0.50000000  0.70585200  0.50000000  1
  V  V39  1  0.50000000  0.29414800  0.50000000  1
  V  V40  1  0.25000000  0.45585200  0.75000000  1
  V  V41  1  0.25000000  0.04414800  0.75000000  1
  V  V42  1  0.00000000  0.20585200  0.50000000  1
  V  V43  1  0.00000000  0.79414800  0.50000000  1
  V  V44  1  0.25000000  0.95585200  0.25000000  1
  V  V45  1  0.25000000  0.54414800  0.25000000  1
  V  V46  1  0.00000000  0.70585200  0.00000000  1
  V  V47  1  0.00000000  0.29414800  0.00000000  1
  O  O48  1  0.00000000  0.00000000  0.31431900  1
  O  O49  1  0.00000000  0.00000000  0.18200800  1
  O  O50  1  0.75000000  0.25000000  0.25000000  1
  O  O51  1  0.75000000  0.25000000  0.06431900  1
  O  O52  1  0.75000000  0.75000000  0.43200800  1
  O  O53  1  0.50000000  0.00000000  0.00000000  1
  O  O54  1  0.50000000  0.00000000  0.18568100  1
  O  O55  1  0.50000000  0.00000000  0.31799200  1
  O  O56  1  0.75000000  0.25000000  0.43568100  1
  O  O57  1  0.75000000  0.75000000  0.06799200  1
  O  O58  1  0.00000000  0.50000000  0.81431900  1
  O  O59  1  0.00000000  0.50000000  0.68200800  1
  O  O60  1  0.75000000  0.75000000  0.75000000  1
  O  O61  1  0.75000000  0.75000000  0.56431900  1
  O  O62  1  0.75000000  0.25000000  0.93200800  1
  O  O63  1  0.50000000  0.50000000  0.50000000  1
  O  O64  1  0.50000000  0.50000000  0.68568100  1
  O  O65  1  0.50000000  0.50000000  0.81799200  1
  O  O66  1  0.75000000  0.75000000  0.93568100  1
  O  O67  1  0.75000000  0.25000000  0.56799200  1
  O  O68  1  0.50000000  0.00000000  0.81431900  1
  O  O69  1  0.50000000  0.00000000  0.68200800  1
  O  O70  1  0.25000000  0.25000000  0.75000000  1
  O  O71  1  0.25000000  0.25000000  0.56431900  1
  O  O72  1  0.25000000  0.75000000  0.93200800  1
  O  O73  1  0.00000000  0.00000000  0.50000000  1
  O  O74  1  0.00000000  0.00000000  0.68568100  1
  O  O75  1  0.00000000  0.00000000  0.81799200  1
  O  O76  1  0.25000000  0.25000000  0.93568100  1
  O  O77  1  0.25000000  0.75000000  0.56799200  1
  O  O78  1  0.50000000  0.50000000  0.31431900  1
  O  O79  1  0.50000000  0.50000000  0.18200800  1
  O  O80  1  0.25000000  0.75000000  0.25000000  1
  O  O81  1  0.25000000  0.75000000  0.06431900  1
  O  O82  1  0.25000000  0.25000000  0.43200800  1
  O  O83  1  0.00000000  0.50000000  0.00000000  1
  O  O84  1  0.00000000  0.50000000  0.18568100  1
  O  O85  1  0.00000000  0.50000000  0.31799200  1
  O  O86  1  0.25000000  0.75000000  0.43568100  1
  O  O87  1  0.25000000  0.25000000  0.06799200  1
