# generated using pymatgen
data_LiVGaO4
_symmetry_space_group_name_H-M   'P 1'
_cell_length_a   5.88352153
_cell_length_b   5.89653132
_cell_length_c   8.59651075
_cell_angle_alpha   90.00000000
_cell_angle_beta   90.00000000
_cell_angle_gamma   90.00000000
_symmetry_Int_Tables_number   1
_chemical_formula_structural   LiVGaO4
_chemical_formula_sum   'Li4 V4 Ga4 O16'
_cell_volume   298.23332230
_cell_formula_units_Z   4
loop_
 _symmetry_equiv_pos_site_id
 _symmetry_equiv_pos_as_xyz
  1  'x, y, z'
loop_
 _atom_site_type_symbol
 _atom_site_label
 _atom_site_symmetry_multiplicity
 _atom_site_fract_x
 _atom_site_fract_y
 _atom_site_fract_z
 _atom_site_occupancy
  Li  Li0  1  0.00000000  0.25000000  0.38388350  1
  Li  Li1  1  0.00000000  0.75000000  0.61611650  1
  Li  Li2  1  0.50000000  0.75000000  0.88388350  1
  Li  Li3  1  0.50000000  0.25000000  0.11611650  1
  V  V4  1  0.75000000  0.25000000  0.75000000  1
  V  V5  1  0.25000000  0.25000000  0.75000000  1
  V  V6  1  0.25000000  0.75000000  0.25000000  1
  V  V7  1  0.75000000  0.75000000  0.25000000  1
  Ga  Ga8  1  0.50000000  0.50000000  0.50000000  1
  Ga  Ga9  1  0.50000000  0.00000000  0.50000000  1
  Ga  Ga10  1  0.00000000  0.00000000  0.00000000  1
  Ga  Ga11  1  0.00000000  0.50000000  0.00000000  1
  O  O12  1  0.27470600  0.75000000  0.48235800  1
  O  O13  1  0.27470600  0.25000000  0.51764200  1
  O  O14  1  0.72529400  0.75000000  0.48235800  1
  O  O15  1  0.72529400  0.25000000  0.51764200  1
  O  O16  1  0.50000000  0.02874800  0.74353700  1
  O  O17  1  0.50000000  0.47125200  0.74353700  1
  O  O18  1  0.50000000  0.52874800  0.25646300  1
  O  O19  1  0.50000000  0.97125200  0.25646300  1
  O  O20  1  0.77470600  0.25000000  0.98235800  1
  O  O21  1  0.77470600  0.75000000  0.01764200  1
  O  O22  1  0.22529400  0.25000000  0.98235800  1
  O  O23  1  0.22529400  0.75000000  0.01764200  1
  O  O24  1  0.00000000  0.52874800  0.24353700  1
  O  O25  1  0.00000000  0.97125200  0.24353700  1
  O  O26  1  0.00000000  0.02874800  0.75646300  1
  O  O27  1  0.00000000  0.47125200  0.75646300  1
