# generated using pymatgen
data_Li4V3Fe3(WO8)2
_symmetry_space_group_name_H-M   'P 1'
_cell_length_a   10.47365000
_cell_length_b   6.05266200
_cell_length_c   9.82020046
_cell_angle_alpha   90.00000000
_cell_angle_beta   90.94244548
_cell_angle_gamma   90.00000000
_symmetry_Int_Tables_number   1
_chemical_formula_structural   Li4V3Fe3(WO8)2
_chemical_formula_sum   'Li8 V6 Fe6 W4 O32'
_cell_volume   622.45230233
_cell_formula_units_Z   2
loop_
 _symmetry_equiv_pos_site_id
 _symmetry_equiv_pos_as_xyz
  1  'x, y, z'
loop_
 _atom_site_type_symbol
 _atom_site_label
 _atom_site_symmetry_multiplicity
 _atom_site_fract_x
 _atom_site_fract_y
 _atom_site_fract_z
 _atom_site_occupancy
  Li  Li0  1  0.32967100  0.00000000  0.90474200  1
  Li  Li1  1  0.00348800  0.00000000  0.98874600  1
  Li  Li2  1  0.00209400  0.00000000  0.48796500  1
  Li  Li3  1  0.66167000  0.00000000  0.40646100  1
  Li  Li4  1  0.82967100  0.50000000  0.90474200  1
  Li  Li5  1  0.50348800  0.50000000  0.98874600  1
  Li  Li6  1  0.50209400  0.50000000  0.48796500  1
  Li  Li7  1  0.16167000  0.50000000  0.40646100  1
  V  V8  1  0.17618800  0.00000000  0.22218800  1
  V  V9  1  0.58989950  0.75573350  0.71618700  1
  V  V10  1  0.58989950  0.24426650  0.71618700  1
  V  V11  1  0.67618800  0.50000000  0.22218800  1
  V  V12  1  0.08989950  0.25573350  0.71618700  1
  V  V13  1  0.08989950  0.74426650  0.71618700  1
  Fe  Fe14  1  0.41799750  0.75507150  0.21207900  1
  Fe  Fe15  1  0.41799750  0.24492850  0.21207900  1
  Fe  Fe16  1  0.83123000  0.00000000  0.71130200  1
  Fe  Fe17  1  0.91799750  0.25507150  0.21207900  1
  Fe  Fe18  1  0.91799750  0.74492850  0.21207900  1
  Fe  Fe19  1  0.33123000  0.50000000  0.71130200  1
  W  W20  1  0.33698300  0.00000000  0.48885800  1
  W  W21  1  0.67075100  0.00000000  0.98853200  1
  W  W22  1  0.83698300  0.50000000  0.48885800  1
  W  W23  1  0.17075100  0.50000000  0.98853200  1
  O  O24  1  0.41831450  0.76322550  0.58545100  1
  O  O25  1  0.47475100  0.00000000  0.35823700  1
  O  O26  1  0.31647900  0.00000000  0.11152600  1
  O  O27  1  0.01341400  0.00000000  0.29654600  1
  O  O28  1  0.00427800  0.00000000  0.80045200  1
  O  O29  1  0.41831450  0.23677450  0.58545100  1
  O  O30  1  0.25116850  0.78767750  0.35150800  1
  O  O31  1  0.25116850  0.21232250  0.35150800  1
  O  O32  1  0.82954600  0.00000000  0.08076300  1
  O  O33  1  0.17546600  0.00000000  0.59252000  1
  O  O34  1  0.73200100  0.77353900  0.85210500  1
  O  O35  1  0.73200100  0.22646100  0.85210500  1
  O  O36  1  0.66274100  0.00000000  0.60803800  1
  O  O37  1  0.59320950  0.75988850  0.08826900  1
  O  O38  1  0.52011600  0.00000000  0.84799600  1
  O  O39  1  0.59320950  0.24011150  0.08826900  1
  O  O40  1  0.91831450  0.26322550  0.58545100  1
  O  O41  1  0.97475100  0.50000000  0.35823700  1
  O  O42  1  0.81647900  0.50000000  0.11152600  1
  O  O43  1  0.51341400  0.50000000  0.29654600  1
  O  O44  1  0.50427800  0.50000000  0.80045200  1
  O  O45  1  0.91831450  0.73677450  0.58545100  1
  O  O46  1  0.75116850  0.28767750  0.35150800  1
  O  O47  1  0.75116850  0.71232250  0.35150800  1
  O  O48  1  0.32954600  0.50000000  0.08076300  1
  O  O49  1  0.67546600  0.50000000  0.59252000  1
  O  O50  1  0.23200100  0.27353900  0.85210500  1
  O  O51  1  0.23200100  0.72646100  0.85210500  1
  O  O52  1  0.16274100  0.50000000  0.60803800  1
  O  O53  1  0.09320950  0.25988850  0.08826900  1
  O  O54  1  0.02011600  0.50000000  0.84799600  1
  O  O55  1  0.09320950  0.74011150  0.08826900  1
