# generated using pymatgen
data_SnPHO5
_symmetry_space_group_name_H-M   'P 1'
_cell_length_a   5.35723834
_cell_length_b   5.35923735
_cell_length_c   7.57783472
_cell_angle_alpha   106.24361604
_cell_angle_beta   108.17399037
_cell_angle_gamma   98.67067853
_symmetry_Int_Tables_number   1
_chemical_formula_structural   SnPHO5
_chemical_formula_sum   'Sn2 P2 H2 O10'
_cell_volume   191.58562240
_cell_formula_units_Z   2
loop_
 _symmetry_equiv_pos_site_id
 _symmetry_equiv_pos_as_xyz
  1  'x, y, z'
loop_
 _atom_site_type_symbol
 _atom_site_label
 _atom_site_symmetry_multiplicity
 _atom_site_fract_x
 _atom_site_fract_y
 _atom_site_fract_z
 _atom_site_occupancy
  Sn  Sn0  1  0.50000000  0.50000000  0.50000000  1
  Sn  Sn1  1  0.00000000  0.00000000  0.00000000  1
  P  P2  1  0.09468391  0.42994312  0.76187152  1
  P  P3  1  0.90531609  0.57005688  0.23812848  1
  H  H4  1  0.65582633  0.02264305  0.68639501  1
  H  H5  1  0.34417367  0.97735695  0.31360499  1
  O  O6  1  0.34306210  0.13185946  0.26488725  1
  O  O7  1  0.77595145  0.32467390  0.65067119  1
  O  O8  1  0.76695087  0.65152990  0.38785164  1
  O  O9  1  0.17647190  0.29255652  0.91683995  1
  O  O10  1  0.17981485  0.73878357  0.86139149  1
  O  O11  1  0.82018515  0.26121643  0.13860851  1
  O  O12  1  0.82352810  0.70744348  0.08316005  1
  O  O13  1  0.23304913  0.34847010  0.61214836  1
  O  O14  1  0.22404855  0.67532610  0.34932881  1
  O  O15  1  0.65693790  0.86814054  0.73511275  1
