# generated using pymatgen
data_LiBi2(SO4)3
_symmetry_space_group_name_H-M   'P 1'
_cell_length_a   9.46070557
_cell_length_b   9.46070557
_cell_length_c   21.05302749
_cell_angle_alpha   90.00000000
_cell_angle_beta   90.00000000
_cell_angle_gamma   120.00000000
_symmetry_Int_Tables_number   1
_chemical_formula_structural   LiBi2(SO4)3
_chemical_formula_sum   'Li6 Bi12 S18 O72'
_cell_volume   1631.89511848
_cell_formula_units_Z   6
loop_
 _symmetry_equiv_pos_site_id
 _symmetry_equiv_pos_as_xyz
  1  'x, y, z'
loop_
 _atom_site_type_symbol
 _atom_site_label
 _atom_site_symmetry_multiplicity
 _atom_site_fract_x
 _atom_site_fract_y
 _atom_site_fract_z
 _atom_site_occupancy
  Li  Li0  1  0.00000000  0.00000000  0.00000000  1
  Li  Li1  1  0.33333333  0.66666667  0.16666667  1
  Li  Li2  1  0.66666667  0.33333333  0.33333333  1
  Li  Li3  1  0.00000000  0.00000000  0.50000000  1
  Li  Li4  1  0.33333333  0.66666667  0.66666667  1
  Li  Li5  1  0.66666667  0.33333333  0.83333333  1
  Bi  Bi6  1  0.33333333  0.66666667  0.99996967  1
  Bi  Bi7  1  0.33333333  0.66666667  0.83336367  1
  Bi  Bi8  1  0.33333333  0.66666667  0.33336367  1
  Bi  Bi9  1  0.33333333  0.66666667  0.49996967  1
  Bi  Bi10  1  0.00000000  0.00000000  0.33330300  1
  Bi  Bi11  1  1.00000000  0.00000000  0.16669700  1
  Bi  Bi12  1  0.00000000  0.00000000  0.66669700  1
  Bi  Bi13  1  0.00000000  0.00000000  0.83330300  1
  Bi  Bi14  1  0.66666667  0.33333333  0.66663633  1
  Bi  Bi15  1  0.66666667  0.33333333  0.50003033  1
  Bi  Bi16  1  0.66666667  0.33333333  0.00003033  1
  Bi  Bi17  1  0.66666667  0.33333333  0.16663633  1
  S  S18  1  0.66666667  0.66762433  0.08333333  1
  S  S19  1  0.66570900  0.00000000  0.25000000  1
  S  S20  1  0.33429100  0.33429100  0.25000000  1
  S  S21  1  0.33237567  0.99904233  0.08333333  1
  S  S22  1  0.00095767  0.33333333  0.08333333  1
  S  S23  1  0.00000000  0.66570900  0.25000000  1
  S  S24  1  0.33333333  0.00095767  0.41666667  1
  S  S25  1  0.33237567  0.33333333  0.58333333  1
  S  S26  1  0.00095767  0.66762433  0.58333333  1
  S  S27  1  0.99904233  0.33237567  0.41666667  1
  S  S28  1  0.66762433  0.66666667  0.41666667  1
  S  S29  1  0.66666667  0.99904233  0.58333333  1
  S  S30  1  0.00000000  0.33429100  0.75000000  1
  S  S31  1  0.99904233  0.66666667  0.91666667  1
  S  S32  1  0.66762433  0.00095767  0.91666667  1
  S  S33  1  0.66570900  0.66570900  0.75000000  1
  S  S34  1  0.33429100  0.00000000  0.75000000  1
  S  S35  1  0.33333333  0.33237567  0.91666667  1
  O  O36  1  0.81641767  0.83245833  0.07894733  1
  O  O37  1  0.49912500  0.34937400  0.25438600  1
  O  O38  1  0.58225633  0.67274167  0.35803967  1
  O  O39  1  0.90951467  0.32725833  0.14196033  1
  O  O40  1  0.51691567  0.68270733  0.08771933  1
  O  O41  1  0.50087500  0.85024900  0.24561400  1
  O  O42  1  0.65062600  0.14975100  0.25438600  1
  O  O43  1  0.99392500  0.75107700  0.19137300  1
  O  O44  1  0.57618133  0.91558967  0.97529367  1
  O  O45  1  0.33940833  0.42381867  0.97529367  1
  O  O46  1  0.24892300  0.24284800  0.19137300  1
  O  O47  1  0.34937400  0.49912500  0.24561400  1
  O  O48  1  0.31729267  0.83420833  0.08771933  1
  O  O49  1  0.32725833  0.90951467  0.35803967  1
  O  O50  1  0.41774367  0.09048533  0.14196033  1
  O  O51  1  0.67274167  0.58225633  0.14196033  1
  O  O52  1  0.09048533  0.41774367  0.35803967  1
  O  O53  1  0.01604067  0.18358233  0.07894733  1
  O  O54  1  0.16579167  0.48308433  0.08771933  1
  O  O55  1  0.14975100  0.65062600  0.24561400  1
  O  O56  1  0.08441033  0.66059167  0.97529367  1
  O  O57  1  0.75715200  0.00607500  0.19137300  1
  O  O58  1  0.16754167  0.98395933  0.07894733  1
  O  O59  1  0.85024900  0.50087500  0.25438600  1
  O  O60  1  0.48308433  0.16579167  0.41228067  1
  O  O61  1  0.16579167  0.68270733  0.58771933  1
  O  O62  1  0.24892300  0.00607500  0.69137300  1
  O  O63  1  0.57618133  0.66059167  0.47529367  1
  O  O64  1  0.18358233  0.01604067  0.42105267  1
  O  O65  1  0.16754167  0.18358233  0.57894733  1
  O  O66  1  0.31729267  0.48308433  0.58771933  1
  O  O67  1  0.66059167  0.08441033  0.52470633  1
  O  O68  1  0.24284800  0.24892300  0.30862700  1
  O  O69  1  0.00607500  0.75715200  0.30862700  1
  O  O70  1  0.91558967  0.57618133  0.52470633  1
  O  O71  1  0.01604067  0.83245833  0.57894733  1
  O  O72  1  0.98395933  0.16754167  0.42105267  1
  O  O73  1  0.99392500  0.24284800  0.69137300  1
  O  O74  1  0.08441033  0.42381867  0.47529367  1
  O  O75  1  0.33940833  0.91558967  0.47529367  1
  O  O76  1  0.75715200  0.75107700  0.69137300  1
  O  O77  1  0.68270733  0.51691567  0.41228067  1
  O  O78  1  0.83245833  0.81641767  0.42105267  1
  O  O79  1  0.81641767  0.98395933  0.57894733  1
  O  O80  1  0.75107700  0.99392500  0.30862700  1
  O  O81  1  0.42381867  0.33940833  0.52470633  1
  O  O82  1  0.83420833  0.31729267  0.41228067  1
  O  O83  1  0.51691567  0.83420833  0.58771933  1
  O  O84  1  0.14975100  0.49912500  0.74561400  1
  O  O85  1  0.83245833  0.01604067  0.92105267  1
  O  O86  1  0.91558967  0.33940833  0.02470633  1
  O  O87  1  0.24284800  0.99392500  0.80862700  1
  O  O88  1  0.85024900  0.34937400  0.75438600  1
  O  O89  1  0.83420833  0.51691567  0.91228067  1
  O  O90  1  0.98395933  0.81641767  0.92105267  1
  O  O91  1  0.32725833  0.41774367  0.85803967  1
  O  O92  1  0.90951467  0.58225633  0.64196033  1
  O  O93  1  0.67274167  0.09048533  0.64196033  1
  O  O94  1  0.58225633  0.90951467  0.85803967  1
  O  O95  1  0.68270733  0.16579167  0.91228067  1
  O  O96  1  0.65062600  0.50087500  0.75438600  1
  O  O97  1  0.66059167  0.57618133  0.02470633  1
  O  O98  1  0.75107700  0.75715200  0.80862700  1
  O  O99  1  0.00607500  0.24892300  0.80862700  1
  O  O100  1  0.42381867  0.08441033  0.02470633  1
  O  O101  1  0.34937400  0.85024900  0.74561400  1
  O  O102  1  0.49912500  0.14975100  0.75438600  1
  O  O103  1  0.48308433  0.31729267  0.91228067  1
  O  O104  1  0.41774367  0.32725833  0.64196033  1
  O  O105  1  0.09048533  0.67274167  0.85803967  1
  O  O106  1  0.50087500  0.65062600  0.74561400  1
  O  O107  1  0.18358233  0.16754167  0.92105267  1
