# generated using pymatgen
data_Fe4O3F5
_symmetry_space_group_name_H-M   'P 1'
_cell_length_a   6.19833200
_cell_length_b   4.88672200
_cell_length_c   10.10374116
_cell_angle_alpha   90.00000000
_cell_angle_beta   107.69063481
_cell_angle_gamma   90.00000000
_symmetry_Int_Tables_number   1
_chemical_formula_structural   Fe4O3F5
_chemical_formula_sum   'Fe8 O6 F10'
_cell_volume   291.56536565
_cell_formula_units_Z   2
loop_
 _symmetry_equiv_pos_site_id
 _symmetry_equiv_pos_as_xyz
  1  'x, y, z'
loop_
 _atom_site_type_symbol
 _atom_site_label
 _atom_site_symmetry_multiplicity
 _atom_site_fract_x
 _atom_site_fract_y
 _atom_site_fract_z
 _atom_site_occupancy
  Fe  Fe0  1  0.80349300  0.06425000  0.36136200  1
  Fe  Fe1  1  0.56107700  0.99162900  0.86985800  1
  Fe  Fe2  1  0.07263400  0.93760100  0.90210100  1
  Fe  Fe3  1  0.32809000  0.99678700  0.39644100  1
  Fe  Fe4  1  0.92736600  0.43760100  0.09789900  1
  Fe  Fe5  1  0.67191000  0.49678700  0.60355900  1
  Fe  Fe6  1  0.43892300  0.49162900  0.13014200  1
  Fe  Fe7  1  0.19650700  0.56425000  0.63863800  1
  O  O8  1  0.38939500  0.70032600  0.52943300  1
  O  O9  1  0.13301700  0.68010200  0.04716900  1
  O  O10  1  0.24975100  0.81289500  0.78222600  1
  O  O11  1  0.86698300  0.18010200  0.95283100  1
  O  O12  1  0.61060500  0.20032600  0.47056700  1
  O  O13  1  0.75024900  0.31289500  0.21777400  1
  F  F14  1  0.88422600  0.70457200  0.51724500  1
  F  F15  1  0.65075200  0.68511400  0.02172800  1
  F  F16  1  0.02082800  0.83161500  0.29792700  1
  F  F17  1  0.51932500  0.81861600  0.28453800  1
  F  F18  1  0.77368800  0.77649500  0.76234200  1
  F  F19  1  0.34924800  0.18511400  0.97827200  1
  F  F20  1  0.11577400  0.20457200  0.48275500  1
  F  F21  1  0.48067500  0.31861600  0.71546200  1
  F  F22  1  0.22631200  0.27649500  0.23765800  1
  F  F23  1  0.97917200  0.33161500  0.70207300  1
