# generated using pymatgen
data_Lu2TeO6
_symmetry_space_group_name_H-M   'P 1'
_cell_length_a   5.20248200
_cell_length_b   8.98429400
_cell_length_c   9.85238400
_cell_angle_alpha   90.00000000
_cell_angle_beta   90.00000000
_cell_angle_gamma   90.00000000
_symmetry_Int_Tables_number   1
_chemical_formula_structural   Lu2TeO6
_chemical_formula_sum   'Lu8 Te4 O24'
_cell_volume   460.50661366
_cell_formula_units_Z   4
loop_
 _symmetry_equiv_pos_site_id
 _symmetry_equiv_pos_as_xyz
  1  'x, y, z'
loop_
 _atom_site_type_symbol
 _atom_site_label
 _atom_site_symmetry_multiplicity
 _atom_site_fract_x
 _atom_site_fract_y
 _atom_site_fract_z
 _atom_site_occupancy
  Lu  Lu0  1  0.02128000  0.39671100  0.04044200  1
  Lu  Lu1  1  0.03829600  0.28266400  0.63513100  1
  Lu  Lu2  1  0.46170400  0.71733600  0.13513100  1
  Lu  Lu3  1  0.47872000  0.60328900  0.54044200  1
  Lu  Lu4  1  0.52128000  0.10328900  0.95955800  1
  Lu  Lu5  1  0.53829600  0.21733600  0.36486900  1
  Lu  Lu6  1  0.96170400  0.78266400  0.86486900  1
  Lu  Lu7  1  0.97872000  0.89671100  0.45955800  1
  Te  Te8  1  0.03876900  0.00586400  0.14669700  1
  Te  Te9  1  0.46123100  0.99413600  0.64669700  1
  Te  Te10  1  0.53876900  0.49413600  0.85330300  1
  Te  Te11  1  0.96123100  0.50586400  0.35330300  1
  O  O12  1  0.08984000  0.65858300  0.47385200  1
  O  O13  1  0.17527400  0.54859900  0.19981800  1
  O  O14  1  0.19028100  0.85701300  0.26173500  1
  O  O15  1  0.17519000  0.85682900  0.67788300  1
  O  O16  1  0.23524100  0.38387400  0.43502800  1
  O  O17  1  0.24719700  0.91522600  0.00117800  1
  O  O18  1  0.25280300  0.08477400  0.50117800  1
  O  O19  1  0.26475900  0.61612600  0.93502800  1
  O  O20  1  0.32481000  0.14317100  0.17788300  1
  O  O21  1  0.30971900  0.14298700  0.76173500  1
  O  O22  1  0.32472600  0.45140100  0.69981800  1
  O  O23  1  0.41016000  0.34141700  0.97385200  1
  O  O24  1  0.58984000  0.84141700  0.52614800  1
  O  O25  1  0.67527400  0.95140100  0.80018200  1
  O  O26  1  0.69028100  0.64298700  0.73826500  1
  O  O27  1  0.67519000  0.64317100  0.32211700  1
  O  O28  1  0.73524100  0.11612600  0.56497200  1
  O  O29  1  0.74719700  0.58477400  0.99882200  1
  O  O30  1  0.75280300  0.41522600  0.49882200  1
  O  O31  1  0.76475900  0.88387400  0.06497200  1
  O  O32  1  0.82481000  0.35682900  0.82211700  1
  O  O33  1  0.80971900  0.35701300  0.23826500  1
  O  O34  1  0.82472600  0.04859900  0.30018200  1
  O  O35  1  0.91016000  0.15858300  0.02614800  1
