# generated using pymatgen
data_BaSr2I6
_symmetry_space_group_name_H-M   'P 1'
_cell_length_a   14.47838233
_cell_length_b   14.47838233
_cell_length_c   7.53092500
_cell_angle_alpha   90.00000000
_cell_angle_beta   90.00000000
_cell_angle_gamma   120.00000000
_symmetry_Int_Tables_number   1
_chemical_formula_structural   BaSr2I6
_chemical_formula_sum   'Ba3 Sr6 I18'
_cell_volume   1367.15903206
_cell_formula_units_Z   3
loop_
 _symmetry_equiv_pos_site_id
 _symmetry_equiv_pos_as_xyz
  1  'x, y, z'
loop_
 _atom_site_type_symbol
 _atom_site_label
 _atom_site_symmetry_multiplicity
 _atom_site_fract_x
 _atom_site_fract_y
 _atom_site_fract_z
 _atom_site_occupancy
  Ba  Ba0  1  0.33333333  0.66666667  0.49421800  1
  Ba  Ba1  1  0.00000000  0.00000000  0.00000000  1
  Ba  Ba2  1  0.66666667  0.33333333  0.50578200  1
  Sr  Sr3  1  0.00000000  0.64460450  0.00000000  1
  Sr  Sr4  1  0.00000000  0.31091450  0.50000000  1
  Sr  Sr5  1  0.35539550  0.35539550  0.00000000  1
  Sr  Sr6  1  0.31091450  0.00000000  0.50000000  1
  Sr  Sr7  1  0.68908550  0.68908550  0.50000000  1
  Sr  Sr8  1  0.64460450  0.00000000  0.00000000  1
  I  I9  1  0.09452733  0.86413267  0.74853100  1
  I  I10  1  0.22097133  0.78541567  0.24265500  1
  I  I11  1  0.10554333  0.53021667  0.75159900  1
  I  I12  1  0.42467333  0.89445667  0.75159900  1
  I  I13  1  0.21458433  0.43555567  0.24265500  1
  I  I14  1  0.13586733  0.23039467  0.74853100  1
  I  I15  1  0.56444433  0.77902867  0.24265500  1
  I  I16  1  0.23039467  0.13586733  0.25146900  1
  I  I17  1  0.46978333  0.57532667  0.75159900  1
  I  I18  1  0.76960533  0.90547267  0.74853100  1
  I  I19  1  0.43555567  0.21458433  0.75734500  1
  I  I20  1  0.57532667  0.46978333  0.24840100  1
  I  I21  1  0.53021667  0.10554333  0.24840100  1
  I  I22  1  0.77902867  0.56444433  0.75734500  1
  I  I23  1  0.90547267  0.76960533  0.25146900  1
  I  I24  1  0.78541567  0.22097133  0.75734500  1
  I  I25  1  0.89445667  0.42467333  0.24840100  1
  I  I26  1  0.86413267  0.09452733  0.25146900  1
