# generated using pymatgen
data_Ba4Ti11O26
_symmetry_space_group_name_H-M   'P 1'
_cell_length_a   18.44948800
_cell_length_b   7.86553400
_cell_length_c   16.62102509
_cell_angle_alpha   90.00000000
_cell_angle_beta   114.28817531
_cell_angle_gamma   90.00000000
_symmetry_Int_Tables_number   1
_chemical_formula_structural   Ba4Ti11O26
_chemical_formula_sum   'Ba16 Ti44 O104'
_cell_volume   2198.47423328
_cell_formula_units_Z   4
loop_
 _symmetry_equiv_pos_site_id
 _symmetry_equiv_pos_as_xyz
  1  'x, y, z'
loop_
 _atom_site_type_symbol
 _atom_site_label
 _atom_site_symmetry_multiplicity
 _atom_site_fract_x
 _atom_site_fract_y
 _atom_site_fract_z
 _atom_site_occupancy
  Ba  Ba0  1  0.35211250  0.25931750  0.94044200  1
  Ba  Ba1  1  0.35211250  0.74068250  0.94044200  1
  Ba  Ba2  1  0.88454300  0.00000000  0.54525400  1
  Ba  Ba3  1  0.88397100  0.50000000  0.55051600  1
  Ba  Ba4  1  0.11545700  0.00000000  0.45474600  1
  Ba  Ba5  1  0.11602900  0.50000000  0.44948400  1
  Ba  Ba6  1  0.64788750  0.74068250  0.05955800  1
  Ba  Ba7  1  0.64788750  0.25931750  0.05955800  1
  Ba  Ba8  1  0.85211250  0.75931750  0.94044200  1
  Ba  Ba9  1  0.85211250  0.24068250  0.94044200  1
  Ba  Ba10  1  0.38454300  0.50000000  0.54525400  1
  Ba  Ba11  1  0.38397100  0.00000000  0.55051600  1
  Ba  Ba12  1  0.61545700  0.50000000  0.45474600  1
  Ba  Ba13  1  0.61602900  0.00000000  0.44948400  1
  Ba  Ba14  1  0.14788750  0.24068250  0.05955800  1
  Ba  Ba15  1  0.14788750  0.75931750  0.05955800  1
  Ti  Ti16  1  0.99142100  0.50000000  0.88218300  1
  Ti  Ti17  1  0.98150000  0.00000000  0.87854300  1
  Ti  Ti18  1  0.13573400  0.00000000  0.83188300  1
  Ti  Ti19  1  0.14041500  0.50000000  0.83244900  1
  Ti  Ti20  1  0.26515000  0.00000000  0.75457800  1
  Ti  Ti21  1  0.98521100  0.74986900  0.73799200  1
  Ti  Ti22  1  0.98521100  0.25013100  0.73799200  1
  Ti  Ti23  1  0.12024450  0.25756850  0.67294900  1
  Ti  Ti24  1  0.12024450  0.74243150  0.67294900  1
  Ti  Ti25  1  0.26168850  0.26340450  0.62313900  1
  Ti  Ti26  1  0.26168850  0.73659550  0.62313900  1
  Ti  Ti27  1  0.73831150  0.73659550  0.37686100  1
  Ti  Ti28  1  0.73831150  0.26340450  0.37686100  1
  Ti  Ti29  1  0.87975550  0.74243150  0.32705100  1
  Ti  Ti30  1  0.87975550  0.25756850  0.32705100  1
  Ti  Ti31  1  0.01478900  0.25013100  0.26200800  1
  Ti  Ti32  1  0.01478900  0.74986900  0.26200800  1
  Ti  Ti33  1  0.73485000  0.00000000  0.24542200  1
  Ti  Ti34  1  0.86426600  0.00000000  0.16811700  1
  Ti  Ti35  1  0.85958500  0.50000000  0.16755100  1
  Ti  Ti36  1  0.00857900  0.50000000  0.11781700  1
  Ti  Ti37  1  0.01850000  0.00000000  0.12145700  1
  Ti  Ti38  1  0.49142100  0.00000000  0.88218300  1
  Ti  Ti39  1  0.48150000  0.50000000  0.87854300  1
  Ti  Ti40  1  0.63573400  0.50000000  0.83188300  1
  Ti  Ti41  1  0.64041500  0.00000000  0.83244900  1
  Ti  Ti42  1  0.76515000  0.50000000  0.75457800  1
  Ti  Ti43  1  0.48521100  0.24986900  0.73799200  1
  Ti  Ti44  1  0.48521100  0.75013100  0.73799200  1
  Ti  Ti45  1  0.62024450  0.75756850  0.67294900  1
  Ti  Ti46  1  0.62024450  0.24243150  0.67294900  1
  Ti  Ti47  1  0.76168850  0.76340450  0.62313900  1
  Ti  Ti48  1  0.76168850  0.23659550  0.62313900  1
  Ti  Ti49  1  0.23831150  0.23659550  0.37686100  1
  Ti  Ti50  1  0.23831150  0.76340450  0.37686100  1
  Ti  Ti51  1  0.37975550  0.24243150  0.32705100  1
  Ti  Ti52  1  0.37975550  0.75756850  0.32705100  1
  Ti  Ti53  1  0.51478900  0.75013100  0.26200800  1
  Ti  Ti54  1  0.51478900  0.24986900  0.26200800  1
  Ti  Ti55  1  0.23485000  0.50000000  0.24542200  1
  Ti  Ti56  1  0.36426600  0.50000000  0.16811700  1
  Ti  Ti57  1  0.35958500  0.00000000  0.16755100  1
  Ti  Ti58  1  0.50857900  0.00000000  0.11781700  1
  Ti  Ti59  1  0.51850000  0.50000000  0.12145700  1
  O  O60  1  0.00000000  0.50000000  0.00000000  1
  O  O61  1  0.00000000  0.00000000  0.00000000  1
  O  O62  1  0.10586300  0.50000000  0.92546000  1
  O  O63  1  0.11805800  0.00000000  0.92904800  1
  O  O64  1  0.24416800  0.00000000  0.86621600  1
  O  O65  1  0.24173100  0.50000000  0.89404900  1
  O  O66  1  0.37991300  0.50000000  0.84120500  1
  O  O67  1  0.37195000  0.00000000  0.82986600  1
  O  O68  1  0.98966600  0.74665700  0.86114900  1
  O  O69  1  0.98966600  0.25334300  0.86114900  1
  O  O70  1  0.11484950  0.24976850  0.79966700  1
  O  O71  1  0.11484950  0.75023150  0.79966700  1
  O  O72  1  0.24422200  0.24003300  0.73187300  1
  O  O73  1  0.24422200  0.75996700  0.73187300  1
  O  O74  1  0.99572500  0.50000000  0.75629000  1
  O  O75  1  0.00194200  0.00000000  0.76138100  1
  O  O76  1  0.13498800  0.00000000  0.69977400  1
  O  O77  1  0.12656700  0.50000000  0.70050600  1
  O  O78  1  0.26396100  0.00000000  0.63308800  1
  O  O79  1  0.26031300  0.50000000  0.61557100  1
  O  O80  1  0.87777750  0.75473350  0.66919700  1
  O  O81  1  0.87777750  0.24526650  0.66919700  1
  O  O82  1  0.00740650  0.75518850  0.63358800  1
  O  O83  1  0.00740650  0.24481150  0.63358800  1
  O  O84  1  0.13693200  0.25563200  0.57137000  1
  O  O85  1  0.13693200  0.74436800  0.57137000  1
  O  O86  1  0.75000000  0.75000000  0.50000000  1
  O  O87  1  0.75000000  0.25000000  0.50000000  1
  O  O88  1  0.86306800  0.74436800  0.42863000  1
  O  O89  1  0.86306800  0.25563200  0.42863000  1
  O  O90  1  0.99259350  0.24481150  0.36641200  1
  O  O91  1  0.99259350  0.75518850  0.36641200  1
  O  O92  1  0.12222250  0.24526650  0.33080300  1
  O  O93  1  0.12222250  0.75473350  0.33080300  1
  O  O94  1  0.73603900  0.00000000  0.36691200  1
  O  O95  1  0.73968700  0.50000000  0.38442900  1
  O  O96  1  0.86501200  0.00000000  0.30022600  1
  O  O97  1  0.87343300  0.50000000  0.29949400  1
  O  O98  1  0.99805800  0.00000000  0.23861900  1
  O  O99  1  0.00427500  0.50000000  0.24371000  1
  O  O100  1  0.75577800  0.75996700  0.26812700  1
  O  O101  1  0.75577800  0.24003300  0.26812700  1
  O  O102  1  0.88515050  0.24976850  0.20033300  1
  O  O103  1  0.88515050  0.75023150  0.20033300  1
  O  O104  1  0.01033400  0.25334300  0.13885100  1
  O  O105  1  0.01033400  0.74665700  0.13885100  1
  O  O106  1  0.62008700  0.50000000  0.15879500  1
  O  O107  1  0.62805000  0.00000000  0.17013400  1
  O  O108  1  0.75583200  0.00000000  0.13378400  1
  O  O109  1  0.75826900  0.50000000  0.10595100  1
  O  O110  1  0.88194200  0.00000000  0.07095200  1
  O  O111  1  0.89413700  0.50000000  0.07454000  1
  O  O112  1  0.50000000  0.00000000  0.00000000  1
  O  O113  1  0.50000000  0.50000000  0.00000000  1
  O  O114  1  0.60586300  0.00000000  0.92546000  1
  O  O115  1  0.61805800  0.50000000  0.92904800  1
  O  O116  1  0.74416800  0.50000000  0.86621600  1
  O  O117  1  0.74173100  0.00000000  0.89404900  1
  O  O118  1  0.87991300  0.00000000  0.84120500  1
  O  O119  1  0.87195000  0.50000000  0.82986600  1
  O  O120  1  0.48966600  0.24665700  0.86114900  1
  O  O121  1  0.48966600  0.75334300  0.86114900  1
  O  O122  1  0.61484950  0.74976850  0.79966700  1
  O  O123  1  0.61484950  0.25023150  0.79966700  1
  O  O124  1  0.74422200  0.74003300  0.73187300  1
  O  O125  1  0.74422200  0.25996700  0.73187300  1
  O  O126  1  0.49572500  0.00000000  0.75629000  1
  O  O127  1  0.50194200  0.50000000  0.76138100  1
  O  O128  1  0.63498800  0.50000000  0.69977400  1
  O  O129  1  0.62656700  0.00000000  0.70050600  1
  O  O130  1  0.76396100  0.50000000  0.63308800  1
  O  O131  1  0.76031300  0.00000000  0.61557100  1
  O  O132  1  0.37777750  0.25473350  0.66919700  1
  O  O133  1  0.37777750  0.74526650  0.66919700  1
  O  O134  1  0.50740650  0.25518850  0.63358800  1
  O  O135  1  0.50740650  0.74481150  0.63358800  1
  O  O136  1  0.63693200  0.75563200  0.57137000  1
  O  O137  1  0.63693200  0.24436800  0.57137000  1
  O  O138  1  0.25000000  0.25000000  0.50000000  1
  O  O139  1  0.25000000  0.75000000  0.50000000  1
  O  O140  1  0.36306800  0.24436800  0.42863000  1
  O  O141  1  0.36306800  0.75563200  0.42863000  1
  O  O142  1  0.49259350  0.74481150  0.36641200  1
  O  O143  1  0.49259350  0.25518850  0.36641200  1
  O  O144  1  0.62222250  0.74526650  0.33080300  1
  O  O145  1  0.62222250  0.25473350  0.33080300  1
  O  O146  1  0.23603900  0.50000000  0.36691200  1
  O  O147  1  0.23968700  0.00000000  0.38442900  1
  O  O148  1  0.36501200  0.50000000  0.30022600  1
  O  O149  1  0.37343300  0.00000000  0.29949400  1
  O  O150  1  0.49805800  0.50000000  0.23861900  1
  O  O151  1  0.50427500  0.00000000  0.24371000  1
  O  O152  1  0.25577800  0.25996700  0.26812700  1
  O  O153  1  0.25577800  0.74003300  0.26812700  1
  O  O154  1  0.38515050  0.74976850  0.20033300  1
  O  O155  1  0.38515050  0.25023150  0.20033300  1
  O  O156  1  0.51033400  0.75334300  0.13885100  1
  O  O157  1  0.51033400  0.24665700  0.13885100  1
  O  O158  1  0.12008700  0.00000000  0.15879500  1
  O  O159  1  0.12805000  0.50000000  0.17013400  1
  O  O160  1  0.25583200  0.50000000  0.13378400  1
  O  O161  1  0.25826900  0.00000000  0.10595100  1
  O  O162  1  0.38194200  0.50000000  0.07095200  1
  O  O163  1  0.39413700  0.00000000  0.07454000  1
