# generated using pymatgen
data_Li2VO2F
_symmetry_space_group_name_H-M   'P 1'
_cell_length_a   15.29275177
_cell_length_b   2.96684116
_cell_length_c   5.11585445
_cell_angle_alpha   90.00000000
_cell_angle_beta   108.52349374
_cell_angle_gamma   90.00000000
_symmetry_Int_Tables_number   1
_chemical_formula_structural   Li2VO2F
_chemical_formula_sum   'Li8 V4 O8 F4'
_cell_volume   220.08734604
_cell_formula_units_Z   4
loop_
 _symmetry_equiv_pos_site_id
 _symmetry_equiv_pos_as_xyz
  1  'x, y, z'
loop_
 _atom_site_type_symbol
 _atom_site_label
 _atom_site_symmetry_multiplicity
 _atom_site_fract_x
 _atom_site_fract_y
 _atom_site_fract_z
 _atom_site_occupancy
  Li  Li0  1  0.41341825  0.41635875  0.75351475  1
  Li  Li1  1  0.08658175  0.91635875  0.24648525  1
  Li  Li2  1  0.25512200  0.92002100  0.77625925  1
  Li  Li3  1  0.24487800  0.42002100  0.22374075  1
  Li  Li4  1  0.91341825  0.91635875  0.75351475  1
  Li  Li5  1  0.58658175  0.41635875  0.24648525  1
  Li  Li6  1  0.75512200  0.42002100  0.77625925  1
  Li  Li7  1  0.74487800  0.92002100  0.22374075  1
  V  V8  1  0.42019225  0.90840175  0.22960275  1
  V  V9  1  0.57980775  0.90840175  0.77039725  1
  V  V10  1  0.92019225  0.40840175  0.22960275  1
  V  V11  1  0.07980775  0.40840175  0.77039725  1
  O  O12  1  0.50000000  0.38826575  0.50000000  1
  O  O13  1  0.50000000  0.91786975  0.00000000  1
  O  O14  1  0.33959425  0.43257375  0.01612175  1
  O  O15  1  0.16040575  0.93257375  0.98387825  1
  O  O16  1  0.00000000  0.88826575  0.50000000  1
  O  O17  1  0.00000000  0.41786975  0.00000000  1
  O  O18  1  0.83959425  0.93257375  0.01612175  1
  O  O19  1  0.66040575  0.43257375  0.98387825  1
  F  F20  1  0.33439500  0.91922200  0.48844225  1
  F  F21  1  0.16560500  0.41922200  0.51155775  1
  F  F22  1  0.83439500  0.41922200  0.48844225  1
  F  F23  1  0.66560500  0.91922200  0.51155775  1
