# generated using pymatgen
data_Fe3O4
_symmetry_space_group_name_H-M   'P 1'
_cell_length_a   6.03874621
_cell_length_b   6.03874621
_cell_length_c   14.83502552
_cell_angle_alpha   90.00000000
_cell_angle_beta   90.00000000
_cell_angle_gamma   120.00000000
_symmetry_Int_Tables_number   1
_chemical_formula_structural   Fe3O4
_chemical_formula_sum   'Fe18 O24'
_cell_volume   468.50311736
_cell_formula_units_Z   6
loop_
 _symmetry_equiv_pos_site_id
 _symmetry_equiv_pos_as_xyz
  1  'x, y, z'
loop_
 _atom_site_type_symbol
 _atom_site_label
 _atom_site_symmetry_multiplicity
 _atom_site_fract_x
 _atom_site_fract_y
 _atom_site_fract_z
 _atom_site_occupancy
  Fe  Fe0  1  0.66666667  0.33333333  0.83333333  1
  Fe  Fe1  1  0.50000000  0.00000000  0.00000000  1
  Fe  Fe2  1  0.00000000  0.00000000  0.87635750  1
  Fe  Fe3  1  0.33333333  0.66666667  0.79030917  1
  Fe  Fe4  1  0.50000000  0.50000000  0.00000000  1
  Fe  Fe5  1  0.00000000  0.50000000  0.00000000  1
  Fe  Fe6  1  0.33333333  0.66666667  0.16666667  1
  Fe  Fe7  1  0.16666667  0.33333333  0.33333333  1
  Fe  Fe8  1  0.66666667  0.33333333  0.20969083  1
  Fe  Fe9  1  1.00000000  0.00000000  0.12364250  1
  Fe  Fe10  1  0.16666667  0.83333333  0.33333333  1
  Fe  Fe11  1  0.66666667  0.83333333  0.33333333  1
  Fe  Fe12  1  1.00000000  1.00000000  0.50000000  1
  Fe  Fe13  1  0.83333333  0.66666667  0.66666667  1
  Fe  Fe14  1  0.33333333  0.66666667  0.54302417  1
  Fe  Fe15  1  0.66666667  0.33333333  0.45697583  1
  Fe  Fe16  1  0.83333333  0.16666667  0.66666667  1
  Fe  Fe17  1  0.33333333  0.16666667  0.66666667  1
  O  O18  1  0.34361650  0.17180825  0.92292850  1
  O  O19  1  0.50514158  0.49485842  0.74373817  1
  O  O20  1  0.98971683  0.49485842  0.74373817  1
  O  O21  1  0.82819175  0.17180825  0.92292850  1
  O  O22  1  0.33333333  0.66666667  0.92157333  1
  O  O23  1  0.00000000  0.00000000  0.74509333  1
  O  O24  1  0.82819175  0.65638350  0.92292850  1
  O  O25  1  0.50514158  0.01028317  0.74373817  1
  O  O26  1  0.01028317  0.50514158  0.25626183  1
  O  O27  1  0.17180825  0.82819175  0.07707150  1
  O  O28  1  0.65638350  0.82819175  0.07707150  1
  O  O29  1  0.49485842  0.50514158  0.25626183  1
  O  O30  1  0.00000000  0.00000000  0.25490667  1
  O  O31  1  0.66666667  0.33333333  0.07842667  1
  O  O32  1  0.49485842  0.98971683  0.25626183  1
  O  O33  1  0.17180825  0.34361650  0.07707150  1
  O  O34  1  0.67694983  0.83847492  0.58959517  1
  O  O35  1  0.83847492  0.16152508  0.41040483  1
  O  O36  1  0.32305017  0.16152508  0.41040483  1
  O  O37  1  0.16152508  0.83847492  0.58959517  1
  O  O38  1  0.66666667  0.33333333  0.58824000  1
  O  O39  1  0.33333333  0.66666667  0.41176000  1
  O  O40  1  0.16152508  0.32305017  0.58959517  1
  O  O41  1  0.83847492  0.67694983  0.41040483  1
