# generated using pymatgen
data_Li3NiO3
_symmetry_space_group_name_H-M   'P 1'
_cell_length_a   8.81373651
_cell_length_b   8.81373651
_cell_length_c   3.59769300
_cell_angle_alpha   90.00000000
_cell_angle_beta   90.00000000
_cell_angle_gamma   90.00000000
_symmetry_Int_Tables_number   1
_chemical_formula_structural   Li3NiO3
_chemical_formula_sum   'Li12 Ni4 O12'
_cell_volume   279.47581213
_cell_formula_units_Z   4
loop_
 _symmetry_equiv_pos_site_id
 _symmetry_equiv_pos_as_xyz
  1  'x, y, z'
loop_
 _atom_site_type_symbol
 _atom_site_label
 _atom_site_symmetry_multiplicity
 _atom_site_fract_x
 _atom_site_fract_y
 _atom_site_fract_z
 _atom_site_occupancy
  Li  Li0  1  0.16820850  0.16820850  0.00000000  1
  Li  Li1  1  0.66820850  0.33179150  0.50000000  1
  Li  Li2  1  0.33179150  0.66820850  0.50000000  1
  Li  Li3  1  0.83179150  0.83179150  0.00000000  1
  Li  Li4  1  0.35923950  0.10192050  0.50000000  1
  Li  Li5  1  0.60192050  0.14076050  0.00000000  1
  Li  Li6  1  0.10192050  0.35923950  0.50000000  1
  Li  Li7  1  0.85923950  0.39807950  0.00000000  1
  Li  Li8  1  0.14076050  0.60192050  0.00000000  1
  Li  Li9  1  0.89807950  0.64076050  0.50000000  1
  Li  Li10  1  0.39807950  0.85923950  0.00000000  1
  Li  Li11  1  0.64076050  0.89807950  0.50000000  1
  Ni  Ni12  1  0.61251000  0.61251000  0.00000000  1
  Ni  Ni13  1  0.11251000  0.88749000  0.50000000  1
  Ni  Ni14  1  0.88749000  0.11251000  0.50000000  1
  Ni  Ni15  1  0.38749000  0.38749000  0.00000000  1
  O  O16  1  0.10064150  0.10064150  0.50000000  1
  O  O17  1  0.60064150  0.39935850  0.00000000  1
  O  O18  1  0.39935850  0.60064150  0.00000000  1
  O  O19  1  0.89935850  0.89935850  0.50000000  1
  O  O20  1  0.67557650  0.11220350  0.50000000  1
  O  O21  1  0.38779650  0.17557650  0.00000000  1
  O  O22  1  0.88779650  0.32442350  0.50000000  1
  O  O23  1  0.17557650  0.38779650  0.00000000  1
  O  O24  1  0.82442350  0.61220350  0.00000000  1
  O  O25  1  0.11220350  0.67557650  0.50000000  1
  O  O26  1  0.61220350  0.82442350  0.00000000  1
  O  O27  1  0.32442350  0.88779650  0.50000000  1
