# generated using pymatgen
data_Al2O3
_symmetry_space_group_name_H-M   'P 1'
_cell_length_a   5.54032800
_cell_length_b   9.72873400
_cell_length_c   4.96874100
_cell_angle_alpha   90.00000000
_cell_angle_beta   90.00000000
_cell_angle_gamma   90.00000000
_symmetry_Int_Tables_number   1
_chemical_formula_structural   Al2O3
_chemical_formula_sum   'Al8 O12'
_cell_volume   267.81701503
_cell_formula_units_Z   4
loop_
 _symmetry_equiv_pos_site_id
 _symmetry_equiv_pos_as_xyz
  1  'x, y, z'
loop_
 _atom_site_type_symbol
 _atom_site_label
 _atom_site_symmetry_multiplicity
 _atom_site_fract_x
 _atom_site_fract_y
 _atom_site_fract_z
 _atom_site_occupancy
  Al  Al0  1  0.66238400  0.33301800  0.93113900  1
  Al  Al1  1  0.16238400  0.16698200  0.93113900  1
  Al  Al2  1  0.33761600  0.33301800  0.43113900  1
  Al  Al3  1  0.83761600  0.16698200  0.43113900  1
  Al  Al4  1  0.16238400  0.83301800  0.93113900  1
  Al  Al5  1  0.66238400  0.66698200  0.93113900  1
  Al  Al6  1  0.83761600  0.83301800  0.43113900  1
  Al  Al7  1  0.33761600  0.66698200  0.43113900  1
  O  O8  1  0.77156900  0.00000000  0.49432000  1
  O  O9  1  0.62093950  0.28130350  0.58557100  1
  O  O10  1  0.12093950  0.21869650  0.58557100  1
  O  O11  1  0.37906050  0.28130350  0.08557100  1
  O  O12  1  0.87906050  0.21869650  0.08557100  1
  O  O13  1  0.22843100  0.00000000  0.99432000  1
  O  O14  1  0.27156900  0.50000000  0.49432000  1
  O  O15  1  0.12093950  0.78130350  0.58557100  1
  O  O16  1  0.62093950  0.71869650  0.58557100  1
  O  O17  1  0.87906050  0.78130350  0.08557100  1
  O  O18  1  0.37906050  0.71869650  0.08557100  1
  O  O19  1  0.72843100  0.50000000  0.99432000  1
