# generated using pymatgen
data_Mn2OF3
_symmetry_space_group_name_H-M   'P 1'
_cell_length_a   9.71461200
_cell_length_b   6.38707600
_cell_length_c   4.85173525
_cell_angle_alpha   90.00000000
_cell_angle_beta   93.61940608
_cell_angle_gamma   90.00000000
_symmetry_Int_Tables_number   1
_chemical_formula_structural   Mn2OF3
_chemical_formula_sum   'Mn8 O4 F12'
_cell_volume   300.43984606
_cell_formula_units_Z   4
loop_
 _symmetry_equiv_pos_site_id
 _symmetry_equiv_pos_as_xyz
  1  'x, y, z'
loop_
 _atom_site_type_symbol
 _atom_site_label
 _atom_site_symmetry_multiplicity
 _atom_site_fract_x
 _atom_site_fract_y
 _atom_site_fract_z
 _atom_site_occupancy
  Mn  Mn0  1  0.75000000  0.25000000  0.50000000  1
  Mn  Mn1  1  0.75000000  0.75000000  0.50000000  1
  Mn  Mn2  1  0.50000000  0.00000000  0.00000000  1
  Mn  Mn3  1  0.00000000  0.00000000  0.00000000  1
  Mn  Mn4  1  0.25000000  0.75000000  0.50000000  1
  Mn  Mn5  1  0.25000000  0.25000000  0.50000000  1
  Mn  Mn6  1  0.00000000  0.50000000  0.00000000  1
  Mn  Mn7  1  0.50000000  0.50000000  0.00000000  1
  O  O8  1  0.34308900  0.00000000  0.69179100  1
  O  O9  1  0.65691100  0.00000000  0.30820900  1
  O  O10  1  0.84308900  0.50000000  0.69179100  1
  O  O11  1  0.15691100  0.50000000  0.30820900  1
  F  F12  1  0.59861200  0.75202300  0.80206100  1
  F  F13  1  0.59861200  0.24797700  0.80206100  1
  F  F14  1  0.84919200  0.00000000  0.69305800  1
  F  F15  1  0.15080800  0.00000000  0.30694200  1
  F  F16  1  0.40138800  0.24797700  0.19793900  1
  F  F17  1  0.40138800  0.75202300  0.19793900  1
  F  F18  1  0.09861200  0.25202300  0.80206100  1
  F  F19  1  0.09861200  0.74797700  0.80206100  1
  F  F20  1  0.34919200  0.50000000  0.69305800  1
  F  F21  1  0.65080800  0.50000000  0.30694200  1
  F  F22  1  0.90138800  0.74797700  0.19793900  1
  F  F23  1  0.90138800  0.25202300  0.19793900  1
