# generated using pymatgen
data_Sr8Mg3Fe(MoO6)4
_symmetry_space_group_name_H-M   'P 1'
_cell_length_a   7.95350693
_cell_length_b   7.95350693
_cell_length_c   16.17774094
_cell_angle_alpha   90.00000000
_cell_angle_beta   90.00000000
_cell_angle_gamma   90.00000000
_symmetry_Int_Tables_number   1
_chemical_formula_structural   Sr8Mg3Fe(MoO6)4
_chemical_formula_sum   'Sr16 Mg6 Fe2 Mo8 O48'
_cell_volume   1023.37594332
_cell_formula_units_Z   2
loop_
 _symmetry_equiv_pos_site_id
 _symmetry_equiv_pos_as_xyz
  1  'x, y, z'
loop_
 _atom_site_type_symbol
 _atom_site_label
 _atom_site_symmetry_multiplicity
 _atom_site_fract_x
 _atom_site_fract_y
 _atom_site_fract_z
 _atom_site_occupancy
  Sr  Sr0  1  0.74466250  0.24643750  0.62499650  1
  Sr  Sr1  1  0.24643750  0.25533750  0.62499650  1
  Sr  Sr2  1  0.75356250  0.74466250  0.37500350  1
  Sr  Sr3  1  0.25533750  0.75356250  0.62499650  1
  Sr  Sr4  1  0.25533750  0.75356250  0.37500350  1
  Sr  Sr5  1  0.75356250  0.74466250  0.62499650  1
  Sr  Sr6  1  0.24643750  0.25533750  0.37500350  1
  Sr  Sr7  1  0.74466250  0.24643750  0.37500350  1
  Sr  Sr8  1  0.24466250  0.74643750  0.12499650  1
  Sr  Sr9  1  0.74643750  0.75533750  0.12499650  1
  Sr  Sr10  1  0.25356250  0.24466250  0.87500350  1
  Sr  Sr11  1  0.75533750  0.25356250  0.12499650  1
  Sr  Sr12  1  0.75533750  0.25356250  0.87500350  1
  Sr  Sr13  1  0.25356250  0.24466250  0.12499650  1
  Sr  Sr14  1  0.74643750  0.75533750  0.87500350  1
  Sr  Sr15  1  0.24466250  0.74643750  0.87500350  1
  Mg  Mg16  1  0.00000000  0.50000000  0.25000000  1
  Mg  Mg17  1  0.00000000  0.50000000  0.75000000  1
  Mg  Mg18  1  0.00000000  0.00000000  0.50000000  1
  Mg  Mg19  1  0.50000000  0.00000000  0.75000000  1
  Mg  Mg20  1  0.50000000  0.00000000  0.25000000  1
  Mg  Mg21  1  0.50000000  0.50000000  0.00000000  1
  Fe  Fe22  1  0.50000000  0.50000000  0.50000000  1
  Fe  Fe23  1  0.00000000  0.00000000  0.00000000  1
  Mo  Mo24  1  0.00000000  0.50000000  0.50000000  1
  Mo  Mo25  1  0.00000000  0.00000000  0.25111400  1
  Mo  Mo26  1  0.50000000  0.00000000  0.50000000  1
  Mo  Mo27  1  0.00000000  0.00000000  0.74888600  1
  Mo  Mo28  1  0.50000000  0.00000000  0.00000000  1
  Mo  Mo29  1  0.50000000  0.50000000  0.75111400  1
  Mo  Mo30  1  0.00000000  0.50000000  0.00000000  1
  Mo  Mo31  1  0.50000000  0.50000000  0.24888600  1
  O  O32  1  0.25898200  0.53518900  0.25259400  1
  O  O33  1  0.50000000  0.50000000  0.37247900  1
  O  O34  1  0.96600600  0.25924900  0.50000000  1
  O  O35  1  0.03518900  0.24101800  0.75259400  1
  O  O36  1  0.75461850  0.53601250  0.50000000  1
  O  O37  1  0.00000000  0.50000000  0.61938500  1
  O  O38  1  0.00000000  0.50000000  0.38061500  1
  O  O39  1  0.24538150  0.46398750  0.50000000  1
  O  O40  1  0.96481100  0.75898200  0.24740600  1
  O  O41  1  0.03399400  0.74075100  0.50000000  1
  O  O42  1  0.25898200  0.53518900  0.74740600  1
  O  O43  1  0.50000000  0.50000000  0.62752100  1
  O  O44  1  0.00000000  0.00000000  0.37053400  1
  O  O45  1  0.74101800  0.46481100  0.74740600  1
  O  O46  1  0.46398750  0.75461850  0.50000000  1
  O  O47  1  0.03518900  0.24101800  0.24740600  1
  O  O48  1  0.25924900  0.03399400  0.50000000  1
  O  O49  1  0.50000000  0.00000000  0.61938500  1
  O  O50  1  0.50000000  0.00000000  0.38061500  1
  O  O51  1  0.74075100  0.96600600  0.50000000  1
  O  O52  1  0.96481100  0.75898200  0.75259400  1
  O  O53  1  0.53601250  0.24538150  0.50000000  1
  O  O54  1  0.00000000  0.00000000  0.62946600  1
  O  O55  1  0.74101800  0.46481100  0.25259400  1
  O  O56  1  0.75898200  0.03518900  0.75259400  1
  O  O57  1  0.00000000  0.00000000  0.87247900  1
  O  O58  1  0.46600600  0.75924900  0.00000000  1
  O  O59  1  0.53518900  0.74101800  0.25259400  1
  O  O60  1  0.25461850  0.03601250  0.00000000  1
  O  O61  1  0.50000000  0.00000000  0.11938500  1
  O  O62  1  0.50000000  0.00000000  0.88061500  1
  O  O63  1  0.74538150  0.96398750  0.00000000  1
  O  O64  1  0.46481100  0.25898200  0.74740600  1
  O  O65  1  0.53399400  0.24075100  0.00000000  1
  O  O66  1  0.75898200  0.03518900  0.24740600  1
  O  O67  1  0.00000000  0.00000000  0.12752100  1
  O  O68  1  0.50000000  0.50000000  0.87053400  1
  O  O69  1  0.24101800  0.96481100  0.24740600  1
  O  O70  1  0.96398750  0.25461850  0.00000000  1
  O  O71  1  0.53518900  0.74101800  0.74740600  1
  O  O72  1  0.75924900  0.53399400  0.00000000  1
  O  O73  1  0.00000000  0.50000000  0.11938500  1
  O  O74  1  0.00000000  0.50000000  0.88061500  1
  O  O75  1  0.24075100  0.46600600  0.00000000  1
  O  O76  1  0.46481100  0.25898200  0.25259400  1
  O  O77  1  0.03601250  0.74538150  0.00000000  1
  O  O78  1  0.50000000  0.50000000  0.12946600  1
  O  O79  1  0.24101800  0.96481100  0.75259400  1
