# generated using pymatgen
data_KB5(H2O3)4
_symmetry_space_group_name_H-M   'P 1'
_cell_length_a   9.08755400
_cell_length_b   11.19905800
_cell_length_c   11.17699400
_cell_angle_alpha   90.00000000
_cell_angle_beta   90.00000000
_cell_angle_gamma   90.00000000
_symmetry_Int_Tables_number   1
_chemical_formula_structural   KB5(H2O3)4
_chemical_formula_sum   'K4 B20 H32 O48'
_cell_volume   1137.50552878
_cell_formula_units_Z   4
loop_
 _symmetry_equiv_pos_site_id
 _symmetry_equiv_pos_as_xyz
  1  'x, y, z'
loop_
 _atom_site_type_symbol
 _atom_site_label
 _atom_site_symmetry_multiplicity
 _atom_site_fract_x
 _atom_site_fract_y
 _atom_site_fract_z
 _atom_site_occupancy
  K  K0  1  0.49277100  0.00000000  0.50000000  1
  K  K1  1  0.99277100  0.00000000  0.00000000  1
  K  K2  1  0.99277100  0.50000000  0.50000000  1
  K  K3  1  0.49277100  0.50000000  0.00000000  1
  B  B4  1  0.89481400  0.00000000  0.50000000  1
  B  B5  1  0.39481400  0.00000000  0.00000000  1
  B  B6  1  0.80014850  0.09552250  0.68825100  1
  B  B7  1  0.80014850  0.90447750  0.31174900  1
  B  B8  1  0.30014850  0.09552250  0.81174900  1
  B  B9  1  0.30014850  0.90447750  0.18825100  1
  B  B10  1  0.48572350  0.44459450  0.70471400  1
  B  B11  1  0.48572350  0.55540550  0.29528600  1
  B  B12  1  0.48572350  0.94459450  0.79528600  1
  B  B13  1  0.48572350  0.05540550  0.20471400  1
  B  B14  1  0.39481400  0.50000000  0.50000000  1
  B  B15  1  0.89481400  0.50000000  0.00000000  1
  B  B16  1  0.30014850  0.59552250  0.68825100  1
  B  B17  1  0.30014850  0.40447750  0.31174900  1
  B  B18  1  0.80014850  0.59552250  0.81174900  1
  B  B19  1  0.80014850  0.40447750  0.18825100  1
  B  B20  1  0.98572350  0.94459450  0.70471400  1
  B  B21  1  0.98572350  0.05540550  0.29528600  1
  B  B22  1  0.98572350  0.44459450  0.79528600  1
  B  B23  1  0.98572350  0.55540550  0.20471400  1
  H  H24  1  0.26811150  0.25932650  0.48900700  1
  H  H25  1  0.26811150  0.74067350  0.51099300  1
  H  H26  1  0.26811150  0.75932650  0.01099300  1
  H  H27  1  0.26811150  0.24067350  0.98900700  1
  H  H28  1  0.16073400  0.14735900  0.48002100  1
  H  H29  1  0.16073400  0.85264100  0.51997900  1
  H  H30  1  0.66073400  0.14735900  0.01997900  1
  H  H31  1  0.66073400  0.85264100  0.98002100  1
  H  H32  1  0.22379900  0.17421100  0.66609300  1
  H  H33  1  0.22379900  0.82578900  0.33390700  1
  H  H34  1  0.72379900  0.17421100  0.83390700  1
  H  H35  1  0.72379900  0.82578900  0.16609300  1
  H  H36  1  0.62668000  0.31250800  0.74626800  1
  H  H37  1  0.62668000  0.68749200  0.25373200  1
  H  H38  1  0.62668000  0.81250800  0.75373200  1
  H  H39  1  0.62668000  0.18749200  0.24626800  1
  H  H40  1  0.76811150  0.75932650  0.48900700  1
  H  H41  1  0.76811150  0.24067350  0.51099300  1
  H  H42  1  0.76811150  0.25932650  0.01099300  1
  H  H43  1  0.76811150  0.74067350  0.98900700  1
  H  H44  1  0.66073400  0.64735900  0.48002100  1
  H  H45  1  0.66073400  0.35264100  0.51997900  1
  H  H46  1  0.16073400  0.64735900  0.01997900  1
  H  H47  1  0.16073400  0.35264100  0.98002100  1
  H  H48  1  0.72379900  0.67421100  0.66609300  1
  H  H49  1  0.72379900  0.32578900  0.33390700  1
  H  H50  1  0.22379900  0.67421100  0.83390700  1
  H  H51  1  0.22379900  0.32578900  0.16609300  1
  H  H52  1  0.12668000  0.81250800  0.74626800  1
  H  H53  1  0.12668000  0.18749200  0.25373200  1
  H  H54  1  0.12668000  0.31250800  0.75373200  1
  H  H55  1  0.12668000  0.68749200  0.24626800  1
  O  O56  1  0.79864550  0.08596450  0.56600700  1
  O  O57  1  0.79864550  0.91403550  0.43399300  1
  O  O58  1  0.29864550  0.08596450  0.93399300  1
  O  O59  1  0.29864550  0.91403550  0.06600700  1
  O  O60  1  0.49029200  0.43213400  0.58284400  1
  O  O61  1  0.49029200  0.56786600  0.41715600  1
  O  O62  1  0.49029200  0.93213400  0.91715600  1
  O  O63  1  0.49029200  0.06786600  0.08284400  1
  O  O64  1  0.89203300  0.02607600  0.75944000  1
  O  O65  1  0.89203300  0.97392400  0.24056000  1
  O  O66  1  0.39203300  0.02607600  0.74056000  1
  O  O67  1  0.39203300  0.97392400  0.25944000  1
  O  O68  1  0.71000500  0.17632900  0.74409100  1
  O  O69  1  0.71000500  0.82367100  0.25590900  1
  O  O70  1  0.21000500  0.17632900  0.75590900  1
  O  O71  1  0.21000500  0.82367100  0.24409100  1
  O  O72  1  0.57268450  0.38099150  0.78138900  1
  O  O73  1  0.57268450  0.61900850  0.21861100  1
  O  O74  1  0.57268450  0.88099150  0.71861100  1
  O  O75  1  0.57268450  0.11900850  0.28138900  1
  O  O76  1  0.24985150  0.17806150  0.52024000  1
  O  O77  1  0.24985150  0.82193850  0.47976000  1
  O  O78  1  0.74985150  0.17806150  0.97976000  1
  O  O79  1  0.74985150  0.82193850  0.02024000  1
  O  O80  1  0.29864550  0.58596450  0.56600700  1
  O  O81  1  0.29864550  0.41403550  0.43399300  1
  O  O82  1  0.79864550  0.58596450  0.93399300  1
  O  O83  1  0.79864550  0.41403550  0.06600700  1
  O  O84  1  0.99029200  0.93213400  0.58284400  1
  O  O85  1  0.99029200  0.06786600  0.41715600  1
  O  O86  1  0.99029200  0.43213400  0.91715600  1
  O  O87  1  0.99029200  0.56786600  0.08284400  1
  O  O88  1  0.39203300  0.52607600  0.75944000  1
  O  O89  1  0.39203300  0.47392400  0.24056000  1
  O  O90  1  0.89203300  0.52607600  0.74056000  1
  O  O91  1  0.89203300  0.47392400  0.25944000  1
  O  O92  1  0.21000500  0.67632900  0.74409100  1
  O  O93  1  0.21000500  0.32367100  0.25590900  1
  O  O94  1  0.71000500  0.67632900  0.75590900  1
  O  O95  1  0.71000500  0.32367100  0.24409100  1
  O  O96  1  0.07268450  0.88099150  0.78138900  1
  O  O97  1  0.07268450  0.11900850  0.21861100  1
  O  O98  1  0.07268450  0.38099150  0.71861100  1
  O  O99  1  0.07268450  0.61900850  0.28138900  1
  O  O100  1  0.74985150  0.67806150  0.52024000  1
  O  O101  1  0.74985150  0.32193850  0.47976000  1
  O  O102  1  0.24985150  0.67806150  0.97976000  1
  O  O103  1  0.24985150  0.32193850  0.02024000  1
