# generated using pymatgen
data_HfO2
_symmetry_space_group_name_H-M   'P 1'
_cell_length_a   4.87030500
_cell_length_b   5.82594200
_cell_length_c   16.03650900
_cell_angle_alpha   90.00000000
_cell_angle_beta   90.00000000
_cell_angle_gamma   90.00000000
_symmetry_Int_Tables_number   1
_chemical_formula_structural   HfO2
_chemical_formula_sum   'Hf12 O24'
_cell_volume   455.02174178
_cell_formula_units_Z   12
loop_
 _symmetry_equiv_pos_site_id
 _symmetry_equiv_pos_as_xyz
  1  'x, y, z'
loop_
 _atom_site_type_symbol
 _atom_site_label
 _atom_site_symmetry_multiplicity
 _atom_site_fract_x
 _atom_site_fract_y
 _atom_site_fract_z
 _atom_site_occupancy
  Hf  Hf0  1  0.00277300  0.34650800  0.08410100  1
  Hf  Hf1  1  0.00000000  0.02209700  0.25000000  1
  Hf  Hf2  1  0.99722700  0.34650800  0.41589900  1
  Hf  Hf3  1  0.00000000  0.97790300  0.75000000  1
  Hf  Hf4  1  0.00277300  0.65349200  0.58410100  1
  Hf  Hf5  1  0.99722700  0.65349200  0.91589900  1
  Hf  Hf6  1  0.49722700  0.15349200  0.58410100  1
  Hf  Hf7  1  0.50000000  0.52209700  0.25000000  1
  Hf  Hf8  1  0.50277300  0.15349200  0.91589900  1
  Hf  Hf9  1  0.50000000  0.47790300  0.75000000  1
  Hf  Hf10  1  0.50277300  0.84650800  0.41589900  1
  Hf  Hf11  1  0.49722700  0.84650800  0.08410100  1
  O  O12  1  0.19986700  0.63143300  0.03075600  1
  O  O13  1  0.19986700  0.36856700  0.53075600  1
  O  O14  1  0.28056100  0.19084800  0.69622100  1
  O  O15  1  0.28056100  0.80915200  0.19622100  1
  O  O16  1  0.20742300  0.06725900  0.36329100  1
  O  O17  1  0.20742300  0.93274100  0.86329100  1
  O  O18  1  0.29257700  0.56725900  0.36329100  1
  O  O19  1  0.29257700  0.43274100  0.86329100  1
  O  O20  1  0.21943900  0.30915200  0.19622100  1
  O  O21  1  0.21943900  0.69084800  0.69622100  1
  O  O22  1  0.30013300  0.13143300  0.03075600  1
  O  O23  1  0.30013300  0.86856700  0.53075600  1
  O  O24  1  0.69986700  0.86856700  0.96924400  1
  O  O25  1  0.69986700  0.13143300  0.46924400  1
  O  O26  1  0.78056100  0.30915200  0.30377900  1
  O  O27  1  0.78056100  0.69084800  0.80377900  1
  O  O28  1  0.70742300  0.43274100  0.63670900  1
  O  O29  1  0.70742300  0.56725900  0.13670900  1
  O  O30  1  0.79257700  0.93274100  0.63670900  1
  O  O31  1  0.79257700  0.06725900  0.13670900  1
  O  O32  1  0.71943900  0.19084800  0.80377900  1
  O  O33  1  0.71943900  0.80915200  0.30377900  1
  O  O34  1  0.80013300  0.36856700  0.96924400  1
  O  O35  1  0.80013300  0.63143300  0.46924400  1
