# generated using pymatgen
data_Sr3(AsO4)2
_symmetry_space_group_name_H-M   'P 1'
_cell_length_a   5.67508017
_cell_length_b   5.67508017
_cell_length_c   20.34125199
_cell_angle_alpha   90.00000000
_cell_angle_beta   90.00000000
_cell_angle_gamma   120.00000000
_symmetry_Int_Tables_number   1
_chemical_formula_structural   Sr3(AsO4)2
_chemical_formula_sum   'Sr9 As6 O24'
_cell_volume   567.35163834
_cell_formula_units_Z   3
loop_
 _symmetry_equiv_pos_site_id
 _symmetry_equiv_pos_as_xyz
  1  'x, y, z'
loop_
 _atom_site_type_symbol
 _atom_site_label
 _atom_site_symmetry_multiplicity
 _atom_site_fract_x
 _atom_site_fract_y
 _atom_site_fract_z
 _atom_site_occupancy
  Sr  Sr0  1  0.00000000  0.00000000  0.00000000  1
  Sr  Sr1  1  0.66666667  0.33333333  0.12845633  1
  Sr  Sr2  1  0.00000000  0.00000000  0.20487700  1
  Sr  Sr3  1  0.66666667  0.33333333  0.33333333  1
  Sr  Sr4  1  0.33333333  0.66666667  0.46178967  1
  Sr  Sr5  1  0.66666667  0.33333333  0.53821033  1
  Sr  Sr6  1  0.33333333  0.66666667  0.66666667  1
  Sr  Sr7  1  0.00000000  0.00000000  0.79512300  1
  Sr  Sr8  1  0.33333333  0.66666667  0.87154367  1
  As  As9  1  0.33333333  0.66666667  0.07369567  1
  As  As10  1  0.33333333  0.66666667  0.25963767  1
  As  As11  1  0.00000000  0.00000000  0.40702900  1
  As  As12  1  0.00000000  0.00000000  0.59297100  1
  As  As13  1  0.66666667  0.33333333  0.74036233  1
  As  As14  1  0.66666667  0.33333333  0.92630433  1
  O  O15  1  0.49917200  0.99834400  0.23213500  1
  O  O16  1  0.16749467  0.83250533  0.10119833  1
  O  O17  1  0.00000000  0.00000000  0.32293700  1
  O  O18  1  0.66666667  0.33333333  0.01039633  1
  O  O19  1  0.66501067  0.83250533  0.10119833  1
  O  O20  1  0.00165600  0.50082800  0.23213500  1
  O  O21  1  0.49917200  0.50082800  0.23213500  1
  O  O22  1  0.16749467  0.33498933  0.10119833  1
  O  O23  1  0.16583867  0.33167733  0.56546833  1
  O  O24  1  0.83416133  0.16583867  0.43453167  1
  O  O25  1  0.66666667  0.33333333  0.65627033  1
  O  O26  1  0.33333333  0.66666667  0.34372967  1
  O  O27  1  0.33167733  0.16583867  0.43453167  1
  O  O28  1  0.66832267  0.83416133  0.56546833  1
  O  O29  1  0.16583867  0.83416133  0.56546833  1
  O  O30  1  0.83416133  0.66832267  0.43453167  1
  O  O31  1  0.83250533  0.66501067  0.89880167  1
  O  O32  1  0.50082800  0.49917200  0.76786500  1
  O  O33  1  0.33333333  0.66666667  0.98960367  1
  O  O34  1  0.00000000  0.00000000  0.67706300  1
  O  O35  1  0.99834400  0.49917200  0.76786500  1
  O  O36  1  0.33498933  0.16749467  0.89880167  1
  O  O37  1  0.83250533  0.16749467  0.89880167  1
  O  O38  1  0.50082800  0.00165600  0.76786500  1
