# generated using pymatgen
data_Nb3Cr(PO4)6
_symmetry_space_group_name_H-M   'P 1'
_cell_length_a   8.77191387
_cell_length_b   8.77191387
_cell_length_c   22.21689527
_cell_angle_alpha   90.00000000
_cell_angle_beta   90.00000000
_cell_angle_gamma   120.00000000
_symmetry_Int_Tables_number   1
_chemical_formula_structural   Nb3Cr(PO4)6
_chemical_formula_sum   'Nb9 Cr3 P18 O72'
_cell_volume   1480.48058562
_cell_formula_units_Z   3
loop_
 _symmetry_equiv_pos_site_id
 _symmetry_equiv_pos_as_xyz
  1  'x, y, z'
loop_
 _atom_site_type_symbol
 _atom_site_label
 _atom_site_symmetry_multiplicity
 _atom_site_fract_x
 _atom_site_fract_y
 _atom_site_fract_z
 _atom_site_occupancy
  Nb  Nb0  1  0.00000000  0.00000000  0.14054600  1
  Nb  Nb1  1  0.33333333  0.66666667  0.02510467  1
  Nb  Nb2  1  0.33333333  0.66666667  0.30619667  1
  Nb  Nb3  1  0.66666667  0.33333333  0.47387933  1
  Nb  Nb4  1  0.00000000  0.00000000  0.35843800  1
  Nb  Nb5  1  0.00000000  0.00000000  0.63953000  1
  Nb  Nb6  1  0.33333333  0.66666667  0.80721267  1
  Nb  Nb7  1  0.66666667  0.33333333  0.69177133  1
  Nb  Nb8  1  0.66666667  0.33333333  0.97286333  1
  Cr  Cr9  1  0.66666667  0.33333333  0.19049533  1
  Cr  Cr10  1  0.33333333  0.66666667  0.52382867  1
  Cr  Cr11  1  0.00000000  0.00000000  0.85716200  1
  P  P12  1  0.94730067  0.33437933  0.08482933  1
  P  P13  1  0.38707867  0.05269933  0.08482933  1
  P  P14  1  0.66562067  0.61292133  0.08482933  1
  P  P15  1  0.99221333  0.70821967  0.24920767  1
  P  P16  1  0.29178033  0.28399367  0.24920767  1
  P  P17  1  0.71600633  0.00778667  0.24920767  1
  P  P18  1  0.61396733  0.66771267  0.41816267  1
  P  P19  1  0.05374533  0.38603267  0.41816267  1
  P  P20  1  0.33228733  0.94625467  0.41816267  1
  P  P21  1  0.65888000  0.04155300  0.58254100  1
  P  P22  1  0.95844700  0.61732700  0.58254100  1
  P  P23  1  0.38267300  0.34112000  0.58254100  1
  P  P24  1  0.28063400  0.00104600  0.75149600  1
  P  P25  1  0.72041200  0.71936600  0.75149600  1
  P  P26  1  0.99895400  0.27958800  0.75149600  1
  P  P27  1  0.32554667  0.37488633  0.91587433  1
  P  P28  1  0.62511367  0.95066033  0.91587433  1
  P  P29  1  0.04933967  0.67445333  0.91587433  1
  O  O30  1  0.82742533  0.02338467  0.30561067  1
  O  O31  1  0.97661533  0.80404067  0.30561067  1
  O  O32  1  0.97151133  0.17067867  0.09052467  1
  O  O33  1  0.19595933  0.17257467  0.30561067  1
  O  O34  1  0.13499267  0.49511833  0.07523333  1
  O  O35  1  0.86896467  0.36367633  0.14061533  1
  O  O36  1  0.19916733  0.02848867  0.09052467  1
  O  O37  1  0.36012567  0.86500733  0.07523333  1
  O  O38  1  0.50488167  0.63987433  0.07523333  1
  O  O39  1  0.02610733  0.82875167  0.19372267  1
  O  O40  1  0.83295200  0.52896900  0.24399900  1
  O  O41  1  0.17124833  0.19735567  0.19372267  1
  O  O42  1  0.49471167  0.13103533  0.14061533  1
  O  O43  1  0.82932133  0.80083267  0.09052467  1
  O  O44  1  0.63632367  0.50528833  0.14061533  1
  O  O45  1  0.16294533  0.69585167  0.25719067  1
  O  O46  1  0.30414833  0.46709367  0.25719067  1
  O  O47  1  0.47103100  0.30398300  0.24399900  1
  O  O48  1  0.80264433  0.97389267  0.19372267  1
  O  O49  1  0.53290633  0.83705467  0.25719067  1
  O  O50  1  0.46984667  0.16205433  0.02717433  1
  O  O51  1  0.69601700  0.16704800  0.24399900  1
  O  O52  1  0.69220767  0.53015333  0.02717433  1
  O  O53  1  0.83794567  0.30779233  0.02717433  1
  O  O54  1  0.49409200  0.35671800  0.63894400  1
  O  O55  1  0.64328200  0.13737400  0.63894400  1
  O  O56  1  0.63817800  0.50401200  0.42385800  1
  O  O57  1  0.86262600  0.50590800  0.63894400  1
  O  O58  1  0.80165933  0.82845167  0.40856667  1
  O  O59  1  0.53563133  0.69700967  0.47394867  1
  O  O60  1  0.86583400  0.36182200  0.42385800  1
  O  O61  1  0.02679233  0.19834067  0.40856667  1
  O  O62  1  0.17154833  0.97320767  0.40856667  1
  O  O63  1  0.69277400  0.16208500  0.52705600  1
  O  O64  1  0.49961867  0.86230233  0.57733233  1
  O  O65  1  0.83791500  0.53068900  0.52705600  1
  O  O66  1  0.16137833  0.46436867  0.47394867  1
  O  O67  1  0.49598800  0.13416600  0.42385800  1
  O  O68  1  0.30299033  0.83862167  0.47394867  1
  O  O69  1  0.82961200  0.02918500  0.59052400  1
  O  O70  1  0.97081500  0.80042700  0.59052400  1
  O  O71  1  0.13769767  0.63731633  0.57733233  1
  O  O72  1  0.46931100  0.30722600  0.52705600  1
  O  O73  1  0.19957300  0.17038800  0.59052400  1
  O  O74  1  0.13651333  0.49538767  0.36050767  1
  O  O75  1  0.36268367  0.50038133  0.57733233  1
  O  O76  1  0.35887433  0.86348667  0.36050767  1
  O  O77  1  0.50461233  0.64112567  0.36050767  1
  O  O78  1  0.16075867  0.69005133  0.97227733  1
  O  O79  1  0.30994867  0.47070733  0.97227733  1
  O  O80  1  0.30484467  0.83734533  0.75719133  1
  O  O81  1  0.52929267  0.83924133  0.97227733  1
  O  O82  1  0.46832600  0.16178500  0.74190000  1
  O  O83  1  0.20229800  0.03034300  0.80728200  1
  O  O84  1  0.53250067  0.69515533  0.75719133  1
  O  O85  1  0.69345900  0.53167400  0.74190000  1
  O  O86  1  0.83821500  0.30654100  0.74190000  1
  O  O87  1  0.35944067  0.49541833  0.86038933  1
  O  O88  1  0.16628533  0.19563567  0.91066567  1
  O  O89  1  0.50458167  0.86402233  0.86038933  1
  O  O90  1  0.82804500  0.79770200  0.80728200  1
  O  O91  1  0.16265467  0.46749933  0.75719133  1
  O  O92  1  0.96965700  0.17195500  0.80728200  1
  O  O93  1  0.49627867  0.36251833  0.92385733  1
  O  O94  1  0.63748167  0.13376033  0.92385733  1
  O  O95  1  0.80436433  0.97064967  0.91066567  1
  O  O96  1  0.13597767  0.64055933  0.86038933  1
  O  O97  1  0.86623967  0.50372133  0.92385733  1
  O  O98  1  0.80318000  0.82872100  0.69384100  1
  O  O99  1  0.02935033  0.83371467  0.91066567  1
  O  O100  1  0.02554100  0.19682000  0.69384100  1
  O  O101  1  0.17127900  0.97445900  0.69384100  1
