# generated using pymatgen
data_KSb5O13
_symmetry_space_group_name_H-M   'P 1'
_cell_length_a   6.69131200
_cell_length_b   9.08884600
_cell_length_c   17.06160600
_cell_angle_alpha   90.00000000
_cell_angle_beta   90.00000000
_cell_angle_gamma   90.00000000
_symmetry_Int_Tables_number   1
_chemical_formula_structural   KSb5O13
_chemical_formula_sum   'K4 Sb20 O52'
_cell_volume   1037.62382244
_cell_formula_units_Z   4
loop_
 _symmetry_equiv_pos_site_id
 _symmetry_equiv_pos_as_xyz
  1  'x, y, z'
loop_
 _atom_site_type_symbol
 _atom_site_label
 _atom_site_symmetry_multiplicity
 _atom_site_fract_x
 _atom_site_fract_y
 _atom_site_fract_z
 _atom_site_occupancy
  K  K0  1  0.52867050  0.37422450  0.75000000  1
  K  K1  1  0.52867050  0.62577550  0.25000000  1
  K  K2  1  0.02867050  0.87422450  0.75000000  1
  K  K3  1  0.02867050  0.12577550  0.25000000  1
  Sb  Sb4  1  0.00011500  0.00000000  0.00000000  1
  Sb  Sb5  1  0.00011500  0.00000000  0.50000000  1
  Sb  Sb6  1  0.50198300  0.73169500  0.63814800  1
  Sb  Sb7  1  0.50198300  0.26830500  0.36185200  1
  Sb  Sb8  1  0.50198300  0.73169500  0.86185200  1
  Sb  Sb9  1  0.50198300  0.26830500  0.13814800  1
  Sb  Sb10  1  0.50031800  0.11389900  0.92235000  1
  Sb  Sb11  1  0.50031800  0.11389900  0.57765000  1
  Sb  Sb12  1  0.50031800  0.88610100  0.42235000  1
  Sb  Sb13  1  0.50031800  0.88610100  0.07765000  1
  Sb  Sb14  1  0.50011500  0.50000000  0.00000000  1
  Sb  Sb15  1  0.50011500  0.50000000  0.50000000  1
  Sb  Sb16  1  0.00198300  0.23169500  0.63814800  1
  Sb  Sb17  1  0.00198300  0.76830500  0.36185200  1
  Sb  Sb18  1  0.00198300  0.23169500  0.86185200  1
  Sb  Sb19  1  0.00198300  0.76830500  0.13814800  1
  Sb  Sb20  1  0.00031800  0.61389900  0.92235000  1
  Sb  Sb21  1  0.00031800  0.61389900  0.57765000  1
  Sb  Sb22  1  0.00031800  0.38610100  0.42235000  1
  Sb  Sb23  1  0.00031800  0.38610100  0.07765000  1
  O  O24  1  0.29960750  0.22852850  0.86601500  1
  O  O25  1  0.29960750  0.22852850  0.63398500  1
  O  O26  1  0.29960750  0.77147150  0.36601500  1
  O  O27  1  0.29960750  0.77147150  0.13398500  1
  O  O28  1  0.31098400  0.00000000  0.00000000  1
  O  O29  1  0.31098400  0.00000000  0.50000000  1
  O  O30  1  0.49822300  0.94631900  0.65121100  1
  O  O31  1  0.50103450  0.51531750  0.88698400  1
  O  O32  1  0.50103450  0.48468250  0.38698400  1
  O  O33  1  0.49804500  0.68237200  0.75000000  1
  O  O34  1  0.50062850  0.27473150  0.49010100  1
  O  O35  1  0.49822300  0.05368100  0.34878900  1
  O  O36  1  0.50062850  0.72526850  0.99010100  1
  O  O37  1  0.50103450  0.48468250  0.11301600  1
  O  O38  1  0.49822300  0.94631900  0.84878900  1
  O  O39  1  0.49822300  0.05368100  0.15121100  1
  O  O40  1  0.49804500  0.31762800  0.25000000  1
  O  O41  1  0.50062850  0.27473150  0.00989900  1
  O  O42  1  0.50103450  0.51531750  0.61301600  1
  O  O43  1  0.50062850  0.72526850  0.50989900  1
  O  O44  1  0.68932500  0.00000000  0.00000000  1
  O  O45  1  0.68932500  0.00000000  0.50000000  1
  O  O46  1  0.70446650  0.22699150  0.86764500  1
  O  O47  1  0.70446650  0.22699150  0.63235500  1
  O  O48  1  0.70446650  0.77300850  0.36764500  1
  O  O49  1  0.70446650  0.77300850  0.13235500  1
  O  O50  1  0.79960750  0.72852850  0.86601500  1
  O  O51  1  0.79960750  0.72852850  0.63398500  1
  O  O52  1  0.79960750  0.27147150  0.36601500  1
  O  O53  1  0.79960750  0.27147150  0.13398500  1
  O  O54  1  0.81098400  0.50000000  0.00000000  1
  O  O55  1  0.81098400  0.50000000  0.50000000  1
  O  O56  1  0.99822300  0.44631900  0.65121100  1
  O  O57  1  0.00103450  0.01531750  0.88698400  1
  O  O58  1  0.00103450  0.98468250  0.38698400  1
  O  O59  1  0.99804500  0.18237200  0.75000000  1
  O  O60  1  0.00062850  0.77473150  0.49010100  1
  O  O61  1  0.99822300  0.55368100  0.34878900  1
  O  O62  1  0.00062850  0.22526850  0.99010100  1
  O  O63  1  0.00103450  0.98468250  0.11301600  1
  O  O64  1  0.99822300  0.44631900  0.84878900  1
  O  O65  1  0.99822300  0.55368100  0.15121100  1
  O  O66  1  0.99804500  0.81762800  0.25000000  1
  O  O67  1  0.00062850  0.77473150  0.00989900  1
  O  O68  1  0.00103450  0.01531750  0.61301600  1
  O  O69  1  0.00062850  0.22526850  0.50989900  1
  O  O70  1  0.18932500  0.50000000  0.00000000  1
  O  O71  1  0.18932500  0.50000000  0.50000000  1
  O  O72  1  0.20446650  0.72699150  0.86764500  1
  O  O73  1  0.20446650  0.72699150  0.63235500  1
  O  O74  1  0.20446650  0.27300850  0.36764500  1
  O  O75  1  0.20446650  0.27300850  0.13235500  1
