# generated using pymatgen
data_Rb2SnO3
_symmetry_space_group_name_H-M   'P 1'
_cell_length_a   6.16634200
_cell_length_b   12.71756200
_cell_length_c   13.66465500
_cell_angle_alpha   90.00000000
_cell_angle_beta   90.00000000
_cell_angle_gamma   90.00000000
_symmetry_Int_Tables_number   1
_chemical_formula_structural   Rb2SnO3
_chemical_formula_sum   'Rb16 Sn8 O24'
_cell_volume   1071.59367829
_cell_formula_units_Z   8
loop_
 _symmetry_equiv_pos_site_id
 _symmetry_equiv_pos_as_xyz
  1  'x, y, z'
loop_
 _atom_site_type_symbol
 _atom_site_label
 _atom_site_symmetry_multiplicity
 _atom_site_fract_x
 _atom_site_fract_y
 _atom_site_fract_z
 _atom_site_occupancy
  Rb  Rb0  1  0.00000000  0.55197100  0.63604500  1
  Rb  Rb1  1  0.00000000  0.62672800  0.07622600  1
  Rb  Rb2  1  0.00000000  0.87327200  0.57622600  1
  Rb  Rb3  1  0.50000000  0.55197100  0.86395500  1
  Rb  Rb4  1  0.50000000  0.94802900  0.36395500  1
  Rb  Rb5  1  0.50000000  0.62672800  0.42377400  1
  Rb  Rb6  1  0.00000000  0.94802900  0.13604500  1
  Rb  Rb7  1  0.50000000  0.87327200  0.92377400  1
  Rb  Rb8  1  0.50000000  0.05197100  0.63604500  1
  Rb  Rb9  1  0.50000000  0.12672800  0.07622600  1
  Rb  Rb10  1  0.50000000  0.37327200  0.57622600  1
  Rb  Rb11  1  0.00000000  0.05197100  0.86395500  1
  Rb  Rb12  1  0.00000000  0.44802900  0.36395500  1
  Rb  Rb13  1  0.00000000  0.12672800  0.42377400  1
  Rb  Rb14  1  0.50000000  0.44802900  0.13604500  1
  Rb  Rb15  1  0.00000000  0.37327200  0.92377400  1
  Sn  Sn16  1  0.00000000  0.74121800  0.83684000  1
  Sn  Sn17  1  0.00000000  0.75878200  0.33684000  1
  Sn  Sn18  1  0.50000000  0.74121800  0.66316000  1
  Sn  Sn19  1  0.50000000  0.75878200  0.16316000  1
  Sn  Sn20  1  0.50000000  0.24121800  0.83684000  1
  Sn  Sn21  1  0.50000000  0.25878200  0.33684000  1
  Sn  Sn22  1  0.00000000  0.24121800  0.66316000  1
  Sn  Sn23  1  0.00000000  0.25878200  0.16316000  1
  O  O24  1  0.75000000  0.78530000  0.75000000  1
  O  O25  1  0.25000000  0.71470000  0.25000000  1
  O  O26  1  0.00000000  0.58923700  0.85914600  1
  O  O27  1  0.00000000  0.84096800  0.94521700  1
  O  O28  1  0.50000000  0.65903200  0.05478300  1
  O  O29  1  0.50000000  0.84096800  0.55478300  1
  O  O30  1  0.00000000  0.65903200  0.44521700  1
  O  O31  1  0.00000000  0.91076300  0.35914600  1
  O  O32  1  0.50000000  0.58923700  0.64085400  1
  O  O33  1  0.50000000  0.91076300  0.14085400  1
  O  O34  1  0.25000000  0.78530000  0.75000000  1
  O  O35  1  0.75000000  0.71470000  0.25000000  1
  O  O36  1  0.25000000  0.28530000  0.75000000  1
  O  O37  1  0.75000000  0.21470000  0.25000000  1
  O  O38  1  0.50000000  0.08923700  0.85914600  1
  O  O39  1  0.50000000  0.34096800  0.94521700  1
  O  O40  1  0.00000000  0.15903200  0.05478300  1
  O  O41  1  0.00000000  0.34096800  0.55478300  1
  O  O42  1  0.50000000  0.15903200  0.44521700  1
  O  O43  1  0.50000000  0.41076300  0.35914600  1
  O  O44  1  0.00000000  0.08923700  0.64085400  1
  O  O45  1  0.00000000  0.41076300  0.14085400  1
  O  O46  1  0.75000000  0.28530000  0.75000000  1
  O  O47  1  0.25000000  0.21470000  0.25000000  1
