# generated using pymatgen
data_Sc2H6(SeO4)3
_symmetry_space_group_name_H-M   'P 1'
_cell_length_a   9.84294645
_cell_length_b   9.84294645
_cell_length_c   21.10355777
_cell_angle_alpha   90.00000000
_cell_angle_beta   90.00000000
_cell_angle_gamma   120.00000000
_symmetry_Int_Tables_number   1
_chemical_formula_structural   Sc2H6(SeO4)3
_chemical_formula_sum   'Sc12 H36 Se18 O72'
_cell_volume   1770.66561659
_cell_formula_units_Z   6
loop_
 _symmetry_equiv_pos_site_id
 _symmetry_equiv_pos_as_xyz
  1  'x, y, z'
loop_
 _atom_site_type_symbol
 _atom_site_label
 _atom_site_symmetry_multiplicity
 _atom_site_fract_x
 _atom_site_fract_y
 _atom_site_fract_z
 _atom_site_occupancy
  Sc  Sc0  1  0.33333333  0.66666667  0.82486967  1
  Sc  Sc1  1  0.33333333  0.66666667  0.05873667  1
  Sc  Sc2  1  0.33333333  0.66666667  0.55873667  1
  Sc  Sc3  1  0.33333333  0.66666667  0.32486967  1
  Sc  Sc4  1  0.00000000  0.00000000  0.15820300  1
  Sc  Sc5  1  0.00000000  0.00000000  0.39207000  1
  Sc  Sc6  1  0.00000000  0.00000000  0.89207000  1
  Sc  Sc7  1  0.00000000  0.00000000  0.65820300  1
  Sc  Sc8  1  0.66666667  0.33333333  0.49153633  1
  Sc  Sc9  1  0.66666667  0.33333333  0.72540333  1
  Sc  Sc10  1  0.66666667  0.33333333  0.22540333  1
  Sc  Sc11  1  0.66666667  0.33333333  0.99153633  1
  H  H12  1  0.86889967  0.41565333  0.33698533  1
  H  H13  1  0.96337467  0.39467833  0.28076933  1
  H  H14  1  0.27198833  0.36995867  0.11410267  1
  H  H15  1  0.25101333  0.46443367  0.17031867  1
  H  H16  1  0.09797033  0.72801167  0.11410267  1
  H  H17  1  0.21342033  0.74898667  0.17031867  1
  H  H18  1  0.58434667  0.45324633  0.33698533  1
  H  H19  1  0.60532167  0.56869633  0.28076933  1
  H  H20  1  0.53556633  0.78657967  0.17031867  1
  H  H21  1  0.43130367  0.03662533  0.28076933  1
  H  H22  1  0.63004133  0.90202967  0.11410267  1
  H  H23  1  0.54675367  0.13110033  0.33698533  1
  H  H24  1  0.53556633  0.74898667  0.67031867  1
  H  H25  1  0.63004133  0.72801167  0.61410267  1
  H  H26  1  0.93865500  0.70329200  0.44743600  1
  H  H27  1  0.91768000  0.79776700  0.50365200  1
  H  H28  1  0.76463700  0.06134500  0.44743600  1
  H  H29  1  0.88008700  0.08232000  0.50365200  1
  H  H30  1  0.25101333  0.78657967  0.67031867  1
  H  H31  1  0.27198833  0.90202967  0.61410267  1
  H  H32  1  0.20223300  0.11991300  0.50365200  1
  H  H33  1  0.09797033  0.36995867  0.61410267  1
  H  H34  1  0.29670800  0.23536300  0.44743600  1
  H  H35  1  0.21342033  0.46443367  0.67031867  1
  H  H36  1  0.20223300  0.08232000  0.00365200  1
  H  H37  1  0.29670800  0.06134500  0.94743600  1
  H  H38  1  0.60532167  0.03662533  0.78076933  1
  H  H39  1  0.58434667  0.13110033  0.83698533  1
  H  H40  1  0.43130367  0.39467833  0.78076933  1
  H  H41  1  0.54675367  0.41565333  0.83698533  1
  H  H42  1  0.91768000  0.11991300  0.00365200  1
  H  H43  1  0.93865500  0.23536300  0.94743600  1
  H  H44  1  0.86889967  0.45324633  0.83698533  1
  H  H45  1  0.76463700  0.70329200  0.94743600  1
  H  H46  1  0.96337467  0.56869633  0.78076933  1
  H  H47  1  0.88008700  0.79776700  0.00365200  1
  Se  Se48  1  0.18166700  0.27808000  0.27707400  1
  Se  Se49  1  0.05525333  0.48499967  0.44374067  1
  Se  Se50  1  0.09641300  0.81833300  0.27707400  1
  Se  Se51  1  0.51500033  0.57025367  0.44374067  1
  Se  Se52  1  0.42974633  0.94474667  0.44374067  1
  Se  Se53  1  0.72192000  0.90358700  0.27707400  1
  Se  Se54  1  0.84833367  0.61141333  0.61040733  1
  Se  Se55  1  0.72192000  0.81833300  0.77707400  1
  Se  Se56  1  0.76307967  0.15166633  0.61040733  1
  Se  Se57  1  0.18166700  0.90358700  0.77707400  1
  Se  Se58  1  0.09641300  0.27808000  0.77707400  1
  Se  Se59  1  0.38858667  0.23692033  0.61040733  1
  Se  Se60  1  0.51500033  0.94474667  0.94374067  1
  Se  Se61  1  0.38858667  0.15166633  0.11040733  1
  Se  Se62  1  0.42974633  0.48499967  0.94374067  1
  Se  Se63  1  0.84833367  0.23692033  0.11040733  1
  Se  Se64  1  0.76307967  0.61141333  0.11040733  1
  Se  Se65  1  0.05525333  0.57025367  0.94374067  1
  O  O66  1  0.86095167  0.38264733  0.29241533  1
  O  O67  1  0.20539200  0.13623500  0.10142500  1
  O  O68  1  0.13412033  0.52433367  0.00840667  1
  O  O69  1  0.19709833  0.46127467  0.26809167  1
  O  O70  1  0.14082467  0.52753233  0.88190633  1
  O  O71  1  0.93084300  0.79460800  0.10142500  1
  O  O72  1  0.13412033  0.60978667  0.50840667  1
  O  O73  1  0.14082467  0.61329233  0.38190633  1
  O  O74  1  0.28401933  0.47238167  0.12574867  1
  O  O75  1  0.18836233  0.71598067  0.12574867  1
  O  O76  1  0.38670767  0.52753233  0.38190633  1
  O  O77  1  0.39021333  0.52433367  0.50840667  1
  O  O78  1  0.26417633  0.80290167  0.26809167  1
  O  O79  1  0.47566633  0.60978667  0.00840667  1
  O  O80  1  0.47246767  0.61329233  0.88190633  1
  O  O81  1  0.61735267  0.47830433  0.29241533  1
  O  O82  1  0.38670767  0.85917533  0.88190633  1
  O  O83  1  0.39021333  0.86587967  0.00840667  1
  O  O84  1  0.53872533  0.73582367  0.26809167  1
  O  O85  1  0.52761833  0.81163767  0.12574867  1
  O  O86  1  0.47246767  0.85917533  0.38190633  1
  O  O87  1  0.47566633  0.86587967  0.50840667  1
  O  O88  1  0.52169567  0.13904833  0.29241533  1
  O  O89  1  0.86376500  0.06915700  0.10142500  1
  O  O90  1  0.52761833  0.71598067  0.62574867  1
  O  O91  1  0.87205867  0.46956833  0.43475833  1
  O  O92  1  0.80078700  0.85766700  0.34174000  1
  O  O93  1  0.86376500  0.79460800  0.60142500  1
  O  O94  1  0.80749133  0.86086567  0.21523967  1
  O  O95  1  0.59750967  0.12794133  0.43475833  1
  O  O96  1  0.80078700  0.94312000  0.84174000  1
  O  O97  1  0.80749133  0.94662567  0.71523967  1
  O  O98  1  0.95068600  0.80571500  0.45908200  1
  O  O99  1  0.85502900  0.04931400  0.45908200  1
  O  O100  1  0.05337433  0.86086567  0.71523967  1
  O  O101  1  0.05688000  0.85766700  0.84174000  1
  O  O102  1  0.93084300  0.13623500  0.60142500  1
  O  O103  1  0.14233300  0.94312000  0.34174000  1
  O  O104  1  0.13913433  0.94662567  0.21523967  1
  O  O105  1  0.28401933  0.81163767  0.62574867  1
  O  O106  1  0.05337433  0.19250867  0.21523967  1
  O  O107  1  0.05688000  0.19921300  0.34174000  1
  O  O108  1  0.20539200  0.06915700  0.60142500  1
  O  O109  1  0.19428500  0.14497100  0.45908200  1
  O  O110  1  0.13913433  0.19250867  0.71523967  1
  O  O111  1  0.14233300  0.19921300  0.84174000  1
  O  O112  1  0.18836233  0.47238167  0.62574867  1
  O  O113  1  0.53043167  0.40249033  0.43475833  1
  O  O114  1  0.19428500  0.04931400  0.95908200  1
  O  O115  1  0.53872533  0.80290167  0.76809167  1
  O  O116  1  0.46745367  0.19100033  0.67507333  1
  O  O117  1  0.53043167  0.12794133  0.93475833  1
  O  O118  1  0.47415800  0.19419900  0.54857300  1
  O  O119  1  0.26417633  0.46127467  0.76809167  1
  O  O120  1  0.46745367  0.27645333  0.17507333  1
  O  O121  1  0.47415800  0.27995900  0.04857300  1
  O  O122  1  0.61735267  0.13904833  0.79241533  1
  O  O123  1  0.52169567  0.38264733  0.79241533  1
  O  O124  1  0.72004100  0.19419900  0.04857300  1
  O  O125  1  0.72354667  0.19100033  0.17507333  1
  O  O126  1  0.59750967  0.46956833  0.93475833  1
  O  O127  1  0.80899967  0.27645333  0.67507333  1
  O  O128  1  0.80580100  0.27995900  0.54857300  1
  O  O129  1  0.95068600  0.14497100  0.95908200  1
  O  O130  1  0.72004100  0.52584200  0.54857300  1
  O  O131  1  0.72354667  0.53254633  0.67507333  1
  O  O132  1  0.87205867  0.40249033  0.93475833  1
  O  O133  1  0.86095167  0.47830433  0.79241533  1
  O  O134  1  0.80580100  0.52584200  0.04857300  1
  O  O135  1  0.80899967  0.53254633  0.17507333  1
  O  O136  1  0.85502900  0.80571500  0.95908200  1
  O  O137  1  0.19709833  0.73582367  0.76809167  1
