# generated using pymatgen
data_Mn15CrO32
_symmetry_space_group_name_H-M   'P 1'
_cell_length_a   11.63082200
_cell_length_b   11.62893200
_cell_length_c   10.06577600
_cell_angle_alpha   90.00000000
_cell_angle_beta   125.24467354
_cell_angle_gamma   90.00000000
_symmetry_Int_Tables_number   1
_chemical_formula_structural   Mn15CrO32
_chemical_formula_sum   'Mn30 Cr2 O64'
_cell_volume   1111.87894899
_cell_formula_units_Z   2
loop_
 _symmetry_equiv_pos_site_id
 _symmetry_equiv_pos_as_xyz
  1  'x, y, z'
loop_
 _atom_site_type_symbol
 _atom_site_label
 _atom_site_symmetry_multiplicity
 _atom_site_fract_x
 _atom_site_fract_y
 _atom_site_fract_z
 _atom_site_occupancy
  Mn  Mn0  1  0.24928300  0.00000000  0.99945900  1
  Mn  Mn1  1  0.75071700  0.00000000  0.00054100  1
  Mn  Mn2  1  0.00000000  0.00000000  0.00000000  1
  Mn  Mn3  1  0.75016950  0.12641750  0.75086000  1
  Mn  Mn4  1  0.24962800  0.12641700  0.74867600  1
  Mn  Mn5  1  0.75016950  0.87358250  0.75086000  1
  Mn  Mn6  1  0.24962800  0.87358300  0.74867600  1
  Mn  Mn7  1  0.50000000  0.25145300  0.50000000  1
  Mn  Mn8  1  0.25000000  0.25000000  0.50000000  1
  Mn  Mn9  1  0.50000000  0.74854700  0.50000000  1
  Mn  Mn10  1  0.25000000  0.75000000  0.50000000  1
  Mn  Mn11  1  0.75037200  0.12641700  0.25132400  1
  Mn  Mn12  1  0.24983050  0.12641750  0.24914000  1
  Mn  Mn13  1  0.75037200  0.87358300  0.25132400  1
  Mn  Mn14  1  0.24983050  0.87358250  0.24914000  1
  Mn  Mn15  1  0.74928300  0.50000000  0.99945900  1
  Mn  Mn16  1  0.25071700  0.50000000  0.00054100  1
  Mn  Mn17  1  0.50000000  0.50000000  0.00000000  1
  Mn  Mn18  1  0.25016950  0.62641750  0.75086000  1
  Mn  Mn19  1  0.74962800  0.62641700  0.74867600  1
  Mn  Mn20  1  0.25016950  0.37358250  0.75086000  1
  Mn  Mn21  1  0.74962800  0.37358300  0.74867600  1
  Mn  Mn22  1  0.00000000  0.75145300  0.50000000  1
  Mn  Mn23  1  0.75000000  0.75000000  0.50000000  1
  Mn  Mn24  1  0.00000000  0.24854700  0.50000000  1
  Mn  Mn25  1  0.75000000  0.25000000  0.50000000  1
  Mn  Mn26  1  0.25037200  0.62641700  0.25132400  1
  Mn  Mn27  1  0.74983050  0.62641750  0.24914000  1
  Mn  Mn28  1  0.25037200  0.37358300  0.25132400  1
  Mn  Mn29  1  0.74983050  0.37358250  0.24914000  1
  Cr  Cr30  1  0.50000000  0.00000000  0.00000000  1
  Cr  Cr31  1  0.00000000  0.50000000  0.00000000  1
  O  O32  1  0.36569600  0.89180600  0.98381700  1
  O  O33  1  0.36569600  0.10819400  0.98381700  1
  O  O34  1  0.86780350  0.89039350  0.98458900  1
  O  O35  1  0.86780350  0.10960650  0.98458900  1
  O  O36  1  0.36687500  0.00000000  0.76388800  1
  O  O37  1  0.14601300  0.00000000  0.76303900  1
  O  O38  1  0.86682300  0.00000000  0.76333300  1
  O  O39  1  0.64690000  0.00000000  0.76576600  1
  O  O40  1  0.63235000  0.25129400  0.73650700  1
  O  O41  1  0.35317150  0.75148650  0.73578000  1
  O  O42  1  0.63235000  0.74870600  0.73650700  1
  O  O43  1  0.35317150  0.24851350  0.73578000  1
  O  O44  1  0.63167400  0.14051200  0.51548000  1
  O  O45  1  0.63149350  0.64006950  0.51292100  1
  O  O46  1  0.63149350  0.35993050  0.51292100  1
  O  O47  1  0.63167400  0.85948800  0.51548000  1
  O  O48  1  0.36832600  0.14051200  0.48452000  1
  O  O49  1  0.36850650  0.64006950  0.48707900  1
  O  O50  1  0.36850650  0.35993050  0.48707900  1
  O  O51  1  0.36832600  0.85948800  0.48452000  1
  O  O52  1  0.36765000  0.74870600  0.26349300  1
  O  O53  1  0.36765000  0.25129400  0.26349300  1
  O  O54  1  0.64682850  0.24851350  0.26422000  1
  O  O55  1  0.64682850  0.75148650  0.26422000  1
  O  O56  1  0.85398700  0.00000000  0.23696100  1
  O  O57  1  0.63312500  0.00000000  0.23611200  1
  O  O58  1  0.35310000  0.00000000  0.23423400  1
  O  O59  1  0.13317700  0.00000000  0.23666700  1
  O  O60  1  0.13219650  0.89039350  0.01541100  1
  O  O61  1  0.63430400  0.10819400  0.01618300  1
  O  O62  1  0.63430400  0.89180600  0.01618300  1
  O  O63  1  0.13219650  0.10960650  0.01541100  1
  O  O64  1  0.86569600  0.39180600  0.98381700  1
  O  O65  1  0.86569600  0.60819400  0.98381700  1
  O  O66  1  0.36780350  0.39039350  0.98458900  1
  O  O67  1  0.36780350  0.60960650  0.98458900  1
  O  O68  1  0.86687500  0.50000000  0.76388800  1
  O  O69  1  0.64601300  0.50000000  0.76303900  1
  O  O70  1  0.36682300  0.50000000  0.76333300  1
  O  O71  1  0.14690000  0.50000000  0.76576600  1
  O  O72  1  0.13235000  0.75129400  0.73650700  1
  O  O73  1  0.85317150  0.25148650  0.73578000  1
  O  O74  1  0.13235000  0.24870600  0.73650700  1
  O  O75  1  0.85317150  0.74851350  0.73578000  1
  O  O76  1  0.13167400  0.64051200  0.51548000  1
  O  O77  1  0.13149350  0.14006950  0.51292100  1
  O  O78  1  0.13149350  0.85993050  0.51292100  1
  O  O79  1  0.13167400  0.35948800  0.51548000  1
  O  O80  1  0.86832600  0.64051200  0.48452000  1
  O  O81  1  0.86850650  0.14006950  0.48707900  1
  O  O82  1  0.86850650  0.85993050  0.48707900  1
  O  O83  1  0.86832600  0.35948800  0.48452000  1
  O  O84  1  0.86765000  0.24870600  0.26349300  1
  O  O85  1  0.86765000  0.75129400  0.26349300  1
  O  O86  1  0.14682850  0.74851350  0.26422000  1
  O  O87  1  0.14682850  0.25148650  0.26422000  1
  O  O88  1  0.35398700  0.50000000  0.23696100  1
  O  O89  1  0.13312500  0.50000000  0.23611200  1
  O  O90  1  0.85310000  0.50000000  0.23423400  1
  O  O91  1  0.63317700  0.50000000  0.23666700  1
  O  O92  1  0.63219650  0.39039350  0.01541100  1
  O  O93  1  0.13430400  0.60819400  0.01618300  1
  O  O94  1  0.13430400  0.39180600  0.01618300  1
  O  O95  1  0.63219650  0.60960650  0.01541100  1
