# generated using pymatgen
data_HoBO3
_symmetry_space_group_name_H-M   'P 1'
_cell_length_a   4.98522932
_cell_length_b   4.98522932
_cell_length_c   16.72021205
_cell_angle_alpha   90.00000000
_cell_angle_beta   90.00000000
_cell_angle_gamma   120.00000000
_symmetry_Int_Tables_number   1
_chemical_formula_structural   HoBO3
_chemical_formula_sum   'Ho6 B6 O18'
_cell_volume   359.86755608
_cell_formula_units_Z   6
loop_
 _symmetry_equiv_pos_site_id
 _symmetry_equiv_pos_as_xyz
  1  'x, y, z'
loop_
 _atom_site_type_symbol
 _atom_site_label
 _atom_site_symmetry_multiplicity
 _atom_site_fract_x
 _atom_site_fract_y
 _atom_site_fract_z
 _atom_site_occupancy
  Ho  Ho0  1  0.33333333  0.66666667  0.16666667  1
  Ho  Ho1  1  0.00000000  0.00000000  0.00000000  1
  Ho  Ho2  1  1.00000000  0.00000000  0.50000000  1
  Ho  Ho3  1  0.66666667  0.33333333  0.33333333  1
  Ho  Ho4  1  0.66666667  0.33333333  0.83333333  1
  Ho  Ho5  1  0.33333333  0.66666667  0.66666667  1
  B  B6  1  0.66666667  0.33333333  0.08333333  1
  B  B7  1  0.00000000  0.00000000  0.25000000  1
  B  B8  1  0.33333333  0.66666667  0.41666667  1
  B  B9  1  0.66666667  0.33333333  0.58333333  1
  B  B10  1  0.00000000  0.00000000  0.75000000  1
  B  B11  1  0.33333333  0.66666667  0.91666667  1
  O  O12  1  0.66666667  0.61170133  0.08333333  1
  O  O13  1  0.27836800  0.27836800  0.25000000  1
  O  O14  1  0.72163200  0.00000000  0.25000000  1
  O  O15  1  0.94503467  0.33333333  0.08333333  1
  O  O16  1  0.38829867  0.05496533  0.08333333  1
  O  O17  1  0.00000000  0.72163200  0.25000000  1
  O  O18  1  0.33333333  0.94503467  0.41666667  1
  O  O19  1  0.94503467  0.61170133  0.58333333  1
  O  O20  1  0.38829867  0.33333333  0.58333333  1
  O  O21  1  0.61170133  0.66666667  0.41666667  1
  O  O22  1  0.05496533  0.38829867  0.41666667  1
  O  O23  1  0.66666667  0.05496533  0.58333333  1
  O  O24  1  0.00000000  0.27836800  0.75000000  1
  O  O25  1  0.61170133  0.94503467  0.91666667  1
  O  O26  1  0.05496533  0.66666667  0.91666667  1
  O  O27  1  0.27836800  0.00000000  0.75000000  1
  O  O28  1  0.72163200  0.72163200  0.75000000  1
  O  O29  1  0.33333333  0.38829867  0.91666667  1
