# generated using pymatgen
data_Ba3(LaI6)2
_symmetry_space_group_name_H-M   'P 1'
_cell_length_a   15.20030200
_cell_length_b   13.92024000
_cell_length_c   21.63600387
_cell_angle_alpha   90.00000000
_cell_angle_beta   134.08788391
_cell_angle_gamma   90.00000000
_symmetry_Int_Tables_number   1
_chemical_formula_structural   Ba3(LaI6)2
_chemical_formula_sum   'Ba12 La8 I48'
_cell_volume   3288.25735130
_cell_formula_units_Z   4
loop_
 _symmetry_equiv_pos_site_id
 _symmetry_equiv_pos_as_xyz
  1  'x, y, z'
loop_
 _atom_site_type_symbol
 _atom_site_label
 _atom_site_symmetry_multiplicity
 _atom_site_fract_x
 _atom_site_fract_y
 _atom_site_fract_z
 _atom_site_occupancy
  Ba  Ba0  1  0.73428800  0.78001800  0.78002000  1
  Ba  Ba1  1  0.70326500  0.40225000  0.70834100  1
  Ba  Ba2  1  0.31961900  0.01211600  0.50612700  1
  Ba  Ba3  1  0.68038100  0.51211600  0.99387300  1
  Ba  Ba4  1  0.29673500  0.90225000  0.79165900  1
  Ba  Ba5  1  0.26571200  0.28001800  0.71998000  1
  Ba  Ba6  1  0.73428800  0.71998200  0.28002000  1
  Ba  Ba7  1  0.70326500  0.09775000  0.20834100  1
  Ba  Ba8  1  0.31961900  0.48788400  0.00612700  1
  Ba  Ba9  1  0.68038100  0.98788400  0.49387300  1
  Ba  Ba10  1  0.29673500  0.59775000  0.29165900  1
  Ba  Ba11  1  0.26571200  0.21998200  0.21998000  1
  La  La12  1  0.73500100  0.14528900  0.92659100  1
  La  La13  1  0.96131100  0.83367400  0.14909000  1
  La  La14  1  0.26499900  0.64528900  0.57340900  1
  La  La15  1  0.03868900  0.33367400  0.35091000  1
  La  La16  1  0.96131100  0.66632600  0.64909000  1
  La  La17  1  0.73500100  0.35471100  0.42659100  1
  La  La18  1  0.03868900  0.16632600  0.85091000  1
  La  La19  1  0.26499900  0.85471100  0.07340900  1
  I  I20  1  0.89900000  0.25567900  0.89878700  1
  I  I21  1  0.55925900  0.86308000  0.56770400  1
  I  I22  1  0.75518800  0.55145600  0.85388700  1
  I  I23  1  0.43124400  0.55892100  0.55069800  1
  I  I24  1  0.22449600  0.88503900  0.31855900  1
  I  I25  1  0.20660100  0.37820800  0.31695000  1
  I  I26  1  0.98261700  0.03565200  0.08449200  1
  I  I27  1  0.64374500  0.01528600  0.77537200  1
  I  I28  1  0.86759500  0.31268300  0.05975400  1
  I  I29  1  0.99414400  0.61996200  0.20882300  1
  I  I30  1  0.72193100  0.76291900  0.96447700  1
  I  I31  1  0.55254500  0.29658200  0.78715100  1
  I  I32  1  0.44745500  0.79658200  0.71284900  1
  I  I33  1  0.27806900  0.26291900  0.53552300  1
  I  I34  1  0.00585600  0.11996200  0.29117700  1
  I  I35  1  0.13240500  0.81268300  0.44024600  1
  I  I36  1  0.35625500  0.51528600  0.72462800  1
  I  I37  1  0.01738300  0.53565200  0.41550800  1
  I  I38  1  0.79339900  0.87820800  0.18305000  1
  I  I39  1  0.56875600  0.05892100  0.94930200  1
  I  I40  1  0.77550400  0.38503900  0.18144100  1
  I  I41  1  0.24481200  0.05145600  0.64611300  1
  I  I42  1  0.44074100  0.36308000  0.93229600  1
  I  I43  1  0.10100000  0.75567900  0.60121300  1
  I  I44  1  0.89900000  0.24432100  0.39878700  1
  I  I45  1  0.55925900  0.63692000  0.06770400  1
  I  I46  1  0.75518800  0.94854400  0.35388700  1
  I  I47  1  0.22449600  0.61496100  0.81855900  1
  I  I48  1  0.43124400  0.94107900  0.05069800  1
  I  I49  1  0.20660100  0.12179200  0.81695000  1
  I  I50  1  0.98261700  0.46434800  0.58449200  1
  I  I51  1  0.64374500  0.48471400  0.27537200  1
  I  I52  1  0.86759500  0.18731700  0.55975400  1
  I  I53  1  0.99414400  0.88003800  0.70882300  1
  I  I54  1  0.72193100  0.73708100  0.46447700  1
  I  I55  1  0.55254500  0.20341800  0.28715100  1
  I  I56  1  0.44745500  0.70341800  0.21284900  1
  I  I57  1  0.27806900  0.23708100  0.03552300  1
  I  I58  1  0.00585600  0.38003800  0.79117700  1
  I  I59  1  0.13240500  0.68731700  0.94024600  1
  I  I60  1  0.35625500  0.98471400  0.22462800  1
  I  I61  1  0.01738300  0.96434800  0.91550800  1
  I  I62  1  0.79339900  0.62179200  0.68305000  1
  I  I63  1  0.77550400  0.11496100  0.68144100  1
  I  I64  1  0.56875600  0.44107900  0.44930200  1
  I  I65  1  0.24481200  0.44854400  0.14611300  1
  I  I66  1  0.44074100  0.13692000  0.43229600  1
  I  I67  1  0.10100000  0.74432100  0.10121300  1
