# generated using pymatgen
data_RbTaO3
_symmetry_space_group_name_H-M   'P 1'
_cell_length_a   5.78193330
_cell_length_b   5.78193330
_cell_length_c   7.09753272
_cell_angle_alpha   90.00000000
_cell_angle_beta   90.00000000
_cell_angle_gamma   120.00000000
_symmetry_Int_Tables_number   1
_chemical_formula_structural   RbTaO3
_chemical_formula_sum   'Rb3 Ta3 O9'
_cell_volume   205.48692319
_cell_formula_units_Z   3
loop_
 _symmetry_equiv_pos_site_id
 _symmetry_equiv_pos_as_xyz
  1  'x, y, z'
loop_
 _atom_site_type_symbol
 _atom_site_label
 _atom_site_symmetry_multiplicity
 _atom_site_fract_x
 _atom_site_fract_y
 _atom_site_fract_z
 _atom_site_occupancy
  Rb  Rb0  1  0.00000000  0.00000000  0.97718900  1
  Rb  Rb1  1  0.66666667  0.33333333  0.31052233  1
  Rb  Rb2  1  0.33333333  0.66666667  0.64385567  1
  Ta  Ta3  1  0.00000000  0.00000000  0.48841500  1
  Ta  Ta4  1  0.66666667  0.33333333  0.82174833  1
  Ta  Ta5  1  0.33333333  0.66666667  0.15508167  1
  O  O6  1  0.32917533  0.16458767  0.63280567  1
  O  O7  1  0.83541233  0.16458767  0.63280567  1
  O  O8  1  0.83541233  0.67082467  0.63280567  1
  O  O9  1  0.99584200  0.49792100  0.96613900  1
  O  O10  1  0.50207900  0.49792100  0.96613900  1
  O  O11  1  0.50207900  0.00415800  0.96613900  1
  O  O12  1  0.66250867  0.83125433  0.29947233  1
  O  O13  1  0.16874567  0.83125433  0.29947233  1
  O  O14  1  0.16874567  0.33749133  0.29947233  1
