# generated using pymatgen
data_LiMnSiO4
_symmetry_space_group_name_H-M   'P 1'
_cell_length_a   5.57775917
_cell_length_b   5.57775917
_cell_length_c   8.65444800
_cell_angle_alpha   90.00000000
_cell_angle_beta   90.00000000
_cell_angle_gamma   90.00000000
_symmetry_Int_Tables_number   1
_chemical_formula_structural   LiMnSiO4
_chemical_formula_sum   'Li4 Mn4 Si4 O16'
_cell_volume   269.25197076
_cell_formula_units_Z   4
loop_
 _symmetry_equiv_pos_site_id
 _symmetry_equiv_pos_as_xyz
  1  'x, y, z'
loop_
 _atom_site_type_symbol
 _atom_site_label
 _atom_site_symmetry_multiplicity
 _atom_site_fract_x
 _atom_site_fract_y
 _atom_site_fract_z
 _atom_site_occupancy
  Li  Li0  1  0.00000000  0.22712450  0.00000000  1
  Li  Li1  1  0.00000000  0.77287550  0.50000000  1
  Li  Li2  1  0.22712450  0.00000000  0.25000000  1
  Li  Li3  1  0.77287550  0.00000000  0.75000000  1
  Mn  Mn4  1  0.50000000  0.76943550  0.50000000  1
  Mn  Mn5  1  0.76943550  0.50000000  0.75000000  1
  Mn  Mn6  1  0.23056450  0.50000000  0.25000000  1
  Mn  Mn7  1  0.50000000  0.23056450  0.00000000  1
  Si  Si8  1  0.26245400  0.26245400  0.62500000  1
  Si  Si9  1  0.26245400  0.73754600  0.87500000  1
  Si  Si10  1  0.73754600  0.26245400  0.37500000  1
  Si  Si11  1  0.73754600  0.73754600  0.12500000  1
  O  O12  1  0.98378450  0.25983550  0.26761800  1
  O  O13  1  0.98378450  0.74016450  0.23238200  1
  O  O14  1  0.25983550  0.98378450  0.98238200  1
  O  O15  1  0.25983550  0.01621550  0.51761800  1
  O  O16  1  0.74016450  0.98378450  0.01761800  1
  O  O17  1  0.74016450  0.01621550  0.48238200  1
  O  O18  1  0.01621550  0.25983550  0.73238200  1
  O  O19  1  0.01621550  0.74016450  0.76761800  1
  O  O20  1  0.25957650  0.49367350  0.98875200  1
  O  O21  1  0.25957650  0.50632650  0.51124800  1
  O  O22  1  0.49367350  0.25957650  0.26124800  1
  O  O23  1  0.49367350  0.74042350  0.23875200  1
  O  O24  1  0.50632650  0.25957650  0.73875200  1
  O  O25  1  0.50632650  0.74042350  0.76124800  1
  O  O26  1  0.74042350  0.50632650  0.48875200  1
  O  O27  1  0.74042350  0.49367350  0.01124800  1
