# generated using pymatgen
data_Li3V5O10
_symmetry_space_group_name_H-M   'P 1'
_cell_length_a   5.13973816
_cell_length_b   5.18450193
_cell_length_c   7.87419457
_cell_angle_alpha   74.28540248
_cell_angle_beta   73.67608653
_cell_angle_gamma   76.88011918
_symmetry_Int_Tables_number   1
_chemical_formula_structural   Li3V5O10
_chemical_formula_sum   'Li3 V5 O10'
_cell_volume   191.23652295
_cell_formula_units_Z   1
loop_
 _symmetry_equiv_pos_site_id
 _symmetry_equiv_pos_as_xyz
  1  'x, y, z'
loop_
 _atom_site_type_symbol
 _atom_site_label
 _atom_site_symmetry_multiplicity
 _atom_site_fract_x
 _atom_site_fract_y
 _atom_site_fract_z
 _atom_site_occupancy
  Li  Li0  1  0.00000000  0.50000000  0.50000000  1
  Li  Li1  1  0.52116500  0.80063600  0.39317650  1
  Li  Li2  1  0.47883500  0.19936400  0.60682350  1
  V  V3  1  0.50000000  0.00000000  0.00000000  1
  V  V4  1  0.02002400  0.88094200  0.68807250  1
  V  V5  1  0.97997600  0.11905800  0.31192750  1
  V  V6  1  0.96056700  0.30788500  0.90102600  1
  V  V7  1  0.03943300  0.69211500  0.09897400  1
  O  O8  1  0.22599050  0.95630400  0.85896700  1
  O  O9  1  0.77400950  0.04369600  0.14103300  1
  O  O10  1  0.78906950  0.89279800  0.51879300  1
  O  O11  1  0.21093050  0.10720200  0.48120700  1
  O  O12  1  0.78573650  0.67885400  0.94012850  1
  O  O13  1  0.21426350  0.32114600  0.05987150  1
  O  O14  1  0.25695700  0.80378400  0.23055450  1
  O  O15  1  0.74304300  0.19621600  0.76944550  1
  O  O16  1  0.19180150  0.54277400  0.67037400  1
  O  O17  1  0.80819850  0.45722600  0.32962600  1
