# generated using pymatgen
data_Mn3Cr3(SnO8)2
_symmetry_space_group_name_H-M   'P 1'
_cell_length_a   10.14075000
_cell_length_b   5.83526400
_cell_length_c   9.51162963
_cell_angle_alpha   90.00000000
_cell_angle_beta   90.13558293
_cell_angle_gamma   90.00000000
_symmetry_Int_Tables_number   1
_chemical_formula_structural   Mn3Cr3(SnO8)2
_chemical_formula_sum   'Mn6 Cr6 Sn4 O32'
_cell_volume   562.83915276
_cell_formula_units_Z   2
loop_
 _symmetry_equiv_pos_site_id
 _symmetry_equiv_pos_as_xyz
  1  'x, y, z'
loop_
 _atom_site_type_symbol
 _atom_site_label
 _atom_site_symmetry_multiplicity
 _atom_site_fract_x
 _atom_site_fract_y
 _atom_site_fract_z
 _atom_site_occupancy
  Mn  Mn0  1  0.82973800  0.00000000  0.21463800  1
  Mn  Mn1  1  0.91510300  0.74839100  0.71431000  1
  Mn  Mn2  1  0.91510300  0.25160900  0.71431000  1
  Mn  Mn3  1  0.32973800  0.50000000  0.21463800  1
  Mn  Mn4  1  0.41510300  0.24839100  0.71431000  1
  Mn  Mn5  1  0.41510300  0.75160900  0.71431000  1
  Cr  Cr6  1  0.58063550  0.24797950  0.21380300  1
  Cr  Cr7  1  0.58063550  0.75202050  0.21380300  1
  Cr  Cr8  1  0.66544300  0.50000000  0.70838600  1
  Cr  Cr9  1  0.08063550  0.74797950  0.21380300  1
  Cr  Cr10  1  0.08063550  0.25202050  0.21380300  1
  Cr  Cr11  1  0.16544300  0.00000000  0.70838600  1
  Sn  Sn12  1  0.67019300  0.00000000  0.49167700  1
  Sn  Sn13  1  0.83408600  0.50000000  0.98964600  1
  Sn  Sn14  1  0.17019300  0.50000000  0.49167700  1
  Sn  Sn15  1  0.33408600  0.00000000  0.98964600  1
  O  O16  1  0.58330950  0.25829150  0.60904900  1
  O  O17  1  0.52370500  0.00000000  0.32810700  1
  O  O18  1  0.66960900  0.00000000  0.10696200  1
  O  O19  1  0.99681500  0.00000000  0.31171000  1
  O  O20  1  0.99694700  0.00000000  0.81254200  1
  O  O21  1  0.58330950  0.74170850  0.60904900  1
  O  O22  1  0.74172700  0.22306200  0.33084100  1
  O  O23  1  0.74172700  0.77693800  0.33084100  1
  O  O24  1  0.66506500  0.50000000  0.11049000  1
  O  O25  1  0.84186400  0.00000000  0.60508100  1
  O  O26  1  0.75976100  0.72245400  0.82819200  1
  O  O27  1  0.75976100  0.27754600  0.82819200  1
  O  O28  1  0.83771200  0.50000000  0.60777700  1
  O  O29  1  0.92009050  0.75895550  0.10690200  1
  O  O30  1  0.98272000  0.50000000  0.82989500  1
  O  O31  1  0.92009050  0.24104450  0.10690200  1
  O  O32  1  0.08330950  0.75829150  0.60904900  1
  O  O33  1  0.02370500  0.50000000  0.32810700  1
  O  O34  1  0.16960900  0.50000000  0.10696200  1
  O  O35  1  0.49681500  0.50000000  0.31171000  1
  O  O36  1  0.49694700  0.50000000  0.81254200  1
  O  O37  1  0.08330950  0.24170850  0.60904900  1
  O  O38  1  0.24172700  0.72306200  0.33084100  1
  O  O39  1  0.24172700  0.27693800  0.33084100  1
  O  O40  1  0.16506500  0.00000000  0.11049000  1
  O  O41  1  0.34186400  0.50000000  0.60508100  1
  O  O42  1  0.25976100  0.22245400  0.82819200  1
  O  O43  1  0.25976100  0.77754600  0.82819200  1
  O  O44  1  0.33771200  0.00000000  0.60777700  1
  O  O45  1  0.42009050  0.25895550  0.10690200  1
  O  O46  1  0.48272000  0.00000000  0.82989500  1
  O  O47  1  0.42009050  0.74104450  0.10690200  1
