# generated using pymatgen
data_TiO2
_symmetry_space_group_name_H-M   'P 1'
_cell_length_a   4.61023700
_cell_length_b   5.56601000
_cell_length_c   14.96758300
_cell_angle_alpha   90.00000000
_cell_angle_beta   90.00000000
_cell_angle_gamma   90.00000000
_symmetry_Int_Tables_number   1
_chemical_formula_structural   TiO2
_chemical_formula_sum   'Ti12 O24'
_cell_volume   384.07753818
_cell_formula_units_Z   12
loop_
 _symmetry_equiv_pos_site_id
 _symmetry_equiv_pos_as_xyz
  1  'x, y, z'
loop_
 _atom_site_type_symbol
 _atom_site_label
 _atom_site_symmetry_multiplicity
 _atom_site_fract_x
 _atom_site_fract_y
 _atom_site_fract_z
 _atom_site_occupancy
  Ti  Ti0  1  0.00156200  0.34979600  0.08349700  1
  Ti  Ti1  1  0.00000000  0.03612100  0.25000000  1
  Ti  Ti2  1  0.99843800  0.34979600  0.41650300  1
  Ti  Ti3  1  0.00000000  0.96387900  0.75000000  1
  Ti  Ti4  1  0.00156200  0.65020400  0.58349700  1
  Ti  Ti5  1  0.99843800  0.65020400  0.91650300  1
  Ti  Ti6  1  0.49843800  0.15020400  0.58349700  1
  Ti  Ti7  1  0.50000000  0.53612100  0.25000000  1
  Ti  Ti8  1  0.50000000  0.46387900  0.75000000  1
  Ti  Ti9  1  0.50156200  0.15020400  0.91650300  1
  Ti  Ti10  1  0.50156200  0.84979600  0.41650300  1
  Ti  Ti11  1  0.49843800  0.84979600  0.08349700  1
  O  O12  1  0.20551800  0.63220100  0.03013300  1
  O  O13  1  0.20551800  0.36779900  0.53013300  1
  O  O14  1  0.27460500  0.16613900  0.69586100  1
  O  O15  1  0.27460500  0.83386100  0.19586100  1
  O  O16  1  0.21147700  0.08675100  0.36333600  1
  O  O17  1  0.21147700  0.91324900  0.86333600  1
  O  O18  1  0.28852300  0.58675100  0.36333600  1
  O  O19  1  0.28852300  0.41324900  0.86333600  1
  O  O20  1  0.22539500  0.33386100  0.19586100  1
  O  O21  1  0.22539500  0.66613900  0.69586100  1
  O  O22  1  0.29448200  0.86779900  0.53013300  1
  O  O23  1  0.29448200  0.13220100  0.03013300  1
  O  O24  1  0.70551800  0.13220100  0.46986700  1
  O  O25  1  0.70551800  0.86779900  0.96986700  1
  O  O26  1  0.77460500  0.33386100  0.30413900  1
  O  O27  1  0.77460500  0.66613900  0.80413900  1
  O  O28  1  0.71147700  0.58675100  0.13666400  1
  O  O29  1  0.71147700  0.41324900  0.63666400  1
  O  O30  1  0.78852300  0.08675100  0.13666400  1
  O  O31  1  0.78852300  0.91324900  0.63666400  1
  O  O32  1  0.72539500  0.16613900  0.80413900  1
  O  O33  1  0.72539500  0.83386100  0.30413900  1
  O  O34  1  0.79448200  0.36779900  0.96986700  1
  O  O35  1  0.79448200  0.63220100  0.46986700  1
