# generated using pymatgen
data_Li4Ti3Mn2Fe3O16
_symmetry_space_group_name_H-M   'P 1'
_cell_length_a   10.37467000
_cell_length_b   5.90687400
_cell_length_c   9.59785017
_cell_angle_alpha   90.00000000
_cell_angle_beta   92.09023414
_cell_angle_gamma   90.00000000
_symmetry_Int_Tables_number   1
_chemical_formula_structural   Li4Ti3Mn2Fe3O16
_chemical_formula_sum   'Li8 Ti6 Mn4 Fe6 O32'
_cell_volume   587.78283539
_cell_formula_units_Z   2
loop_
 _symmetry_equiv_pos_site_id
 _symmetry_equiv_pos_as_xyz
  1  'x, y, z'
loop_
 _atom_site_type_symbol
 _atom_site_label
 _atom_site_symmetry_multiplicity
 _atom_site_fract_x
 _atom_site_fract_y
 _atom_site_fract_z
 _atom_site_occupancy
  Li  Li0  1  0.66776800  0.00000000  0.89257400  1
  Li  Li1  1  0.98818500  0.00000000  0.98889000  1
  Li  Li2  1  0.99747000  0.00000000  0.49829100  1
  Li  Li3  1  0.83401200  0.50000000  0.39969500  1
  Li  Li4  1  0.16776800  0.50000000  0.89257400  1
  Li  Li5  1  0.48818500  0.50000000  0.98889000  1
  Li  Li6  1  0.49747000  0.50000000  0.49829100  1
  Li  Li7  1  0.33401200  0.00000000  0.39969500  1
  Ti  Ti8  1  0.58150950  0.24983950  0.21382700  1
  Ti  Ti9  1  0.58150950  0.75016050  0.21382700  1
  Ti  Ti10  1  0.67693600  0.50000000  0.71593700  1
  Ti  Ti11  1  0.08150950  0.74983950  0.21382700  1
  Ti  Ti12  1  0.08150950  0.25016050  0.21382700  1
  Ti  Ti13  1  0.17693600  0.00000000  0.71593700  1
  Mn  Mn14  1  0.66931400  0.00000000  0.48618900  1
  Mn  Mn15  1  0.83765700  0.50000000  0.98290300  1
  Mn  Mn16  1  0.16931400  0.50000000  0.48618900  1
  Mn  Mn17  1  0.33765700  0.00000000  0.98290300  1
  Fe  Fe18  1  0.82730300  0.00000000  0.21449400  1
  Fe  Fe19  1  0.92184050  0.74079650  0.71015100  1
  Fe  Fe20  1  0.92184050  0.25920350  0.71015100  1
  Fe  Fe21  1  0.32730300  0.50000000  0.21449400  1
  Fe  Fe22  1  0.42184050  0.24079650  0.71015100  1
  Fe  Fe23  1  0.42184050  0.75920350  0.71015100  1
  O  O24  1  0.58949800  0.24779300  0.59608800  1
  O  O25  1  0.52100200  0.00000000  0.34192100  1
  O  O26  1  0.65568600  0.00000000  0.10595100  1
  O  O27  1  0.99993300  0.00000000  0.31278400  1
  O  O28  1  0.50964800  0.50000000  0.80248300  1
  O  O29  1  0.58949800  0.75220700  0.59608800  1
  O  O30  1  0.73479300  0.21974000  0.34398300  1
  O  O31  1  0.73479300  0.78026000  0.34398300  1
  O  O32  1  0.65380300  0.50000000  0.11131800  1
  O  O33  1  0.83323600  0.00000000  0.59526500  1
  O  O34  1  0.76179050  0.71638650  0.84381900  1
  O  O35  1  0.76179050  0.28361350  0.84381900  1
  O  O36  1  0.82625700  0.50000000  0.60159900  1
  O  O37  1  0.91642600  0.75040900  0.10395600  1
  O  O38  1  0.98960900  0.50000000  0.83389500  1
  O  O39  1  0.91642600  0.24959100  0.10395600  1
  O  O40  1  0.08949800  0.74779300  0.59608800  1
  O  O41  1  0.02100200  0.50000000  0.34192100  1
  O  O42  1  0.15568600  0.50000000  0.10595100  1
  O  O43  1  0.49993300  0.50000000  0.31278400  1
  O  O44  1  0.00964800  0.00000000  0.80248300  1
  O  O45  1  0.08949800  0.25220700  0.59608800  1
  O  O46  1  0.23479300  0.71974000  0.34398300  1
  O  O47  1  0.23479300  0.28026000  0.34398300  1
  O  O48  1  0.15380300  0.00000000  0.11131800  1
  O  O49  1  0.33323600  0.50000000  0.59526500  1
  O  O50  1  0.26179050  0.21638650  0.84381900  1
  O  O51  1  0.26179050  0.78361350  0.84381900  1
  O  O52  1  0.32625700  0.00000000  0.60159900  1
  O  O53  1  0.41642600  0.25040900  0.10395600  1
  O  O54  1  0.48960900  0.00000000  0.83389500  1
  O  O55  1  0.41642600  0.74959100  0.10395600  1
