# generated using pymatgen
data_K2TiPCO7
_symmetry_space_group_name_H-M   'P 1'
_cell_length_a   5.73155000
_cell_length_b   6.83681600
_cell_length_c   9.68983904
_cell_angle_alpha   90.00000000
_cell_angle_beta   90.90996829
_cell_angle_gamma   90.00000000
_symmetry_Int_Tables_number   1
_chemical_formula_structural   K2TiPCO7
_chemical_formula_sum   'K4 Ti2 P2 C2 O14'
_cell_volume   379.65381248
_cell_formula_units_Z   2
loop_
 _symmetry_equiv_pos_site_id
 _symmetry_equiv_pos_as_xyz
  1  'x, y, z'
loop_
 _atom_site_type_symbol
 _atom_site_label
 _atom_site_symmetry_multiplicity
 _atom_site_fract_x
 _atom_site_fract_y
 _atom_site_fract_z
 _atom_site_occupancy
  K  K0  1  0.24743700  0.98286500  0.23609000  1
  K  K1  1  0.24743700  0.51713500  0.23609000  1
  K  K2  1  0.75256300  0.48286500  0.76391000  1
  K  K3  1  0.75256300  0.01713500  0.76391000  1
  Ti  Ti4  1  0.77334300  0.25000000  0.36365400  1
  Ti  Ti5  1  0.22665700  0.75000000  0.63634600  1
  P  P6  1  0.72338600  0.75000000  0.43562600  1
  P  P7  1  0.27661400  0.25000000  0.56437400  1
  C  C8  1  0.72836800  0.25000000  0.10176600  1
  C  C9  1  0.27163200  0.75000000  0.89823400  1
  O  O10  1  0.29056600  0.75000000  0.02744600  1
  O  O11  1  0.93009700  0.25000000  0.16967300  1
  O  O12  1  0.55042100  0.25000000  0.18653000  1
  O  O13  1  0.75853300  0.93663900  0.34854400  1
  O  O14  1  0.75853300  0.56336100  0.34854400  1
  O  O15  1  0.10539200  0.25000000  0.43698600  1
  O  O16  1  0.46705100  0.75000000  0.49197200  1
  O  O17  1  0.53294900  0.25000000  0.50802800  1
  O  O18  1  0.89460800  0.75000000  0.56301400  1
  O  O19  1  0.24146700  0.43663900  0.65145600  1
  O  O20  1  0.24146700  0.06336100  0.65145600  1
  O  O21  1  0.44957900  0.75000000  0.81347000  1
  O  O22  1  0.06990300  0.75000000  0.83032700  1
  O  O23  1  0.70943400  0.25000000  0.97255400  1
