# generated using pymatgen
data_Li4Co3Sn5O16
_symmetry_space_group_name_H-M   'P 1'
_cell_length_a   6.15099906
_cell_length_b   9.87175917
_cell_length_c   10.61008403
_cell_angle_alpha   89.62787172
_cell_angle_beta   89.36358134
_cell_angle_gamma   89.56514503
_symmetry_Int_Tables_number   1
_chemical_formula_structural   Li4Co3Sn5O16
_chemical_formula_sum   'Li8 Co6 Sn10 O32'
_cell_volume   644.18529942
_cell_formula_units_Z   2
loop_
 _symmetry_equiv_pos_site_id
 _symmetry_equiv_pos_as_xyz
  1  'x, y, z'
loop_
 _atom_site_type_symbol
 _atom_site_label
 _atom_site_symmetry_multiplicity
 _atom_site_fract_x
 _atom_site_fract_y
 _atom_site_fract_z
 _atom_site_occupancy
  Li  Li0  1  0.49288400  0.10784900  0.83297600  1
  Li  Li1  1  0.99013700  0.10867300  0.33305700  1
  Li  Li2  1  0.02783900  0.01463600  0.98808300  1
  Li  Li3  1  0.52983000  0.01340100  0.48850200  1
  Li  Li4  1  0.01605400  0.50187100  0.99717100  1
  Li  Li5  1  0.51675200  0.50121700  0.49840900  1
  Li  Li6  1  0.49719600  0.59547200  0.16570600  1
  Li  Li7  1  0.00150800  0.59484900  0.66986500  1
  Co  Co8  1  0.75725700  0.78485400  0.41537900  1
  Co  Co9  1  0.74514900  0.28215300  0.59000700  1
  Co  Co10  1  0.49961200  0.28964900  0.33154500  1
  Co  Co11  1  0.25410000  0.78441400  0.91367500  1
  Co  Co12  1  0.25292100  0.28584000  0.08963900  1
  Co  Co13  1  0.99991200  0.28954500  0.83215400  1
  Sn  Sn14  1  0.50254700  0.78419700  0.66845400  1
  Sn  Sn15  1  0.99670700  0.78727600  0.16922600  1
  Sn  Sn16  1  0.49597100  0.50443500  0.83650200  1
  Sn  Sn17  1  0.99154900  0.50403500  0.33942600  1
  Sn  Sn18  1  0.74394400  0.78535800  0.91530100  1
  Sn  Sn19  1  0.24794600  0.78539400  0.41574200  1
  Sn  Sn20  1  0.74153600  0.28593600  0.08451900  1
  Sn  Sn21  1  0.24218900  0.28571400  0.58572900  1
  Sn  Sn22  1  0.49107600  0.01614600  0.16749600  1
  Sn  Sn23  1  0.98838500  0.01405800  0.66735400  1
  O  O24  1  0.50034500  0.40197600  0.66502000  1
  O  O25  1  0.99613500  0.40463800  0.16535000  1
  O  O26  1  0.73040400  0.65543600  0.75691000  1
  O  O27  1  0.22277700  0.65595200  0.25924400  1
  O  O28  1  0.50432700  0.90002600  0.82887500  1
  O  O29  1  0.98636700  0.89376900  0.33885900  1
  O  O30  1  0.99726300  0.68695700  0.00206100  1
  O  O31  1  0.51724300  0.68886100  0.49387900  1
  O  O32  1  0.00241200  0.19889800  0.99073000  1
  O  O33  1  0.49948400  0.19335100  0.50259000  1
  O  O34  1  0.76831300  0.40376900  0.91490100  1
  O  O35  1  0.25459800  0.41434100  0.42634900  1
  O  O36  1  0.28062400  0.65347800  0.75254100  1
  O  O37  1  0.77051400  0.66522100  0.26961800  1
  O  O38  1  0.50471200  0.65478400  0.98303900  1
  O  O39  1  0.98537900  0.66741800  0.48335300  1
  O  O40  1  0.75588800  0.90662700  0.07971800  1
  O  O41  1  0.25984100  0.90528400  0.57964600  1
  O  O42  1  0.25182300  0.39696600  0.92497600  1
  O  O43  1  0.75467500  0.39711500  0.43068000  1
  O  O44  1  0.49773700  0.15613200  0.01483600  1
  O  O45  1  0.99992200  0.15473000  0.51664400  1
  O  O46  1  0.72201500  0.15200500  0.23883500  1
  O  O47  1  0.20927600  0.15820000  0.74787600  1
  O  O48  1  0.49445800  0.39654600  0.16273700  1
  O  O49  1  0.99592700  0.38971200  0.67835800  1
  O  O50  1  0.24177300  0.90351800  0.08551100  1
  O  O51  1  0.74563700  0.89782400  0.57211800  1
  O  O52  1  0.26118500  0.16139100  0.23229700  1
  O  O53  1  0.76326800  0.16113200  0.73323300  1
  O  O54  1  0.50780600  0.89856200  0.33863600  1
  O  O55  1  0.99457300  0.90273500  0.83436400  1
