# generated using pymatgen
data_Li3Fe2(PO4)3
_symmetry_space_group_name_H-M   'P 1'
_cell_length_a   14.77014400
_cell_length_b   8.82588200
_cell_length_c   8.54441972
_cell_angle_alpha   90.00000000
_cell_angle_beta   123.50516870
_cell_angle_gamma   90.00000000
_symmetry_Int_Tables_number   1
_chemical_formula_structural   Li3Fe2(PO4)3
_chemical_formula_sum   'Li12 Fe8 P12 O48'
_cell_volume   928.76550234
_cell_formula_units_Z   4
loop_
 _symmetry_equiv_pos_site_id
 _symmetry_equiv_pos_as_xyz
  1  'x, y, z'
loop_
 _atom_site_type_symbol
 _atom_site_label
 _atom_site_symmetry_multiplicity
 _atom_site_fract_x
 _atom_site_fract_y
 _atom_site_fract_z
 _atom_site_occupancy
  Li  Li0  1  0.24907350  0.75464550  0.77390000  1
  Li  Li1  1  0.50000000  0.14966400  0.50000000  1
  Li  Li2  1  0.75092650  0.75464550  0.22610000  1
  Li  Li3  1  0.50000000  0.84749000  0.00000000  1
  Li  Li4  1  0.20183350  0.95330750  0.40517900  1
  Li  Li5  1  0.79816650  0.95330750  0.59482100  1
  Li  Li6  1  0.74907350  0.25464550  0.77390000  1
  Li  Li7  1  0.00000000  0.64966400  0.50000000  1
  Li  Li8  1  0.25092650  0.25464550  0.22610000  1
  Li  Li9  1  0.00000000  0.34749000  0.00000000  1
  Li  Li10  1  0.70183350  0.45330750  0.40517900  1
  Li  Li11  1  0.29816650  0.45330750  0.59482100  1
  Fe  Fe12  1  0.60853550  0.25473350  0.89752800  1
  Fe  Fe13  1  0.39146450  0.25473350  0.10247200  1
  Fe  Fe14  1  0.60169900  0.74949900  0.39765500  1
  Fe  Fe15  1  0.39830100  0.74949900  0.60234500  1
  Fe  Fe16  1  0.10853550  0.75473350  0.89752800  1
  Fe  Fe17  1  0.89146450  0.75473350  0.10247200  1
  Fe  Fe18  1  0.10169900  0.24949900  0.39765500  1
  Fe  Fe19  1  0.89830100  0.24949900  0.60234500  1
  P  P20  1  0.64981350  0.90146150  0.80028700  1
  P  P21  1  0.35018650  0.90146150  0.19971300  1
  P  P22  1  0.50000000  0.45130100  0.50000000  1
  P  P23  1  0.50000000  0.54454000  0.00000000  1
  P  P24  1  0.64416200  0.10478600  0.29685600  1
  P  P25  1  0.35583800  0.10478600  0.70314400  1
  P  P26  1  0.14981350  0.40146150  0.80028700  1
  P  P27  1  0.85018650  0.40146150  0.19971300  1
  P  P28  1  0.00000000  0.95130100  0.50000000  1
  P  P29  1  0.00000000  0.04454000  0.00000000  1
  P  P30  1  0.14416200  0.60478600  0.29685600  1
  P  P31  1  0.85583800  0.60478600  0.70314400  1
  O  O32  1  0.35591250  0.15091950  0.87606100  1
  O  O33  1  0.93729750  0.94559850  0.05592900  1
  O  O34  1  0.65561700  0.07673600  0.79624900  1
  O  O35  1  0.54029400  0.15884600  0.28108300  1
  O  O36  1  0.73810450  0.83279250  0.99044400  1
  O  O37  1  0.53970700  0.84822300  0.76531800  1
  O  O38  1  0.26189550  0.83279250  0.00955600  1
  O  O39  1  0.34438300  0.07673600  0.20375100  1
  O  O40  1  0.41367250  0.34498050  0.34404400  1
  O  O41  1  0.06270250  0.94559850  0.94407100  1
  O  O42  1  0.41433000  0.65160300  0.83994900  1
  O  O43  1  0.64408750  0.15091950  0.12393900  1
  O  O44  1  0.33803950  0.84972250  0.36115800  1
  O  O45  1  0.58632750  0.34498050  0.65595600  1
  O  O46  1  0.93789300  0.04923300  0.56105300  1
  O  O47  1  0.58567000  0.65160300  0.16005100  1
  O  O48  1  0.66067850  0.92868250  0.31442700  1
  O  O49  1  0.73983200  0.17223300  0.48606300  1
  O  O50  1  0.45970600  0.15884600  0.71891700  1
  O  O51  1  0.26016800  0.17223300  0.51393700  1
  O  O52  1  0.46029300  0.84822300  0.23468200  1
  O  O53  1  0.33932150  0.92868250  0.68557300  1
  O  O54  1  0.06210700  0.04923300  0.43894700  1
  O  O55  1  0.66196050  0.84972250  0.63884200  1
  O  O56  1  0.85591250  0.65091950  0.87606100  1
  O  O57  1  0.43729750  0.44559850  0.05592900  1
  O  O58  1  0.15561700  0.57673600  0.79624900  1
  O  O59  1  0.04029400  0.65884600  0.28108300  1
  O  O60  1  0.23810450  0.33279250  0.99044400  1
  O  O61  1  0.03970700  0.34822300  0.76531800  1
  O  O62  1  0.76189550  0.33279250  0.00955600  1
  O  O63  1  0.84438300  0.57673600  0.20375100  1
  O  O64  1  0.91367250  0.84498050  0.34404400  1
  O  O65  1  0.56270250  0.44559850  0.94407100  1
  O  O66  1  0.91433000  0.15160300  0.83994900  1
  O  O67  1  0.14408750  0.65091950  0.12393900  1
  O  O68  1  0.83803950  0.34972250  0.36115800  1
  O  O69  1  0.08632750  0.84498050  0.65595600  1
  O  O70  1  0.43789300  0.54923300  0.56105300  1
  O  O71  1  0.08567000  0.15160300  0.16005100  1
  O  O72  1  0.16067850  0.42868250  0.31442700  1
  O  O73  1  0.23983200  0.67223300  0.48606300  1
  O  O74  1  0.95970600  0.65884600  0.71891700  1
  O  O75  1  0.76016800  0.67223300  0.51393700  1
  O  O76  1  0.96029300  0.34822300  0.23468200  1
  O  O77  1  0.83932150  0.42868250  0.68557300  1
  O  O78  1  0.56210700  0.54923300  0.43894700  1
  O  O79  1  0.16196050  0.34972250  0.63884200  1
