# generated using pymatgen
data_VAs2H4O9
_symmetry_space_group_name_H-M   'P 1'
_cell_length_a   9.28543700
_cell_length_b   9.28543700
_cell_length_c   8.53959100
_cell_angle_alpha   90.00000000
_cell_angle_beta   90.00000000
_cell_angle_gamma   90.00000000
_symmetry_Int_Tables_number   1
_chemical_formula_structural   VAs2H4O9
_chemical_formula_sum   'V4 As8 H16 O36'
_cell_volume   736.27790229
_cell_formula_units_Z   4
loop_
 _symmetry_equiv_pos_site_id
 _symmetry_equiv_pos_as_xyz
  1  'x, y, z'
loop_
 _atom_site_type_symbol
 _atom_site_label
 _atom_site_symmetry_multiplicity
 _atom_site_fract_x
 _atom_site_fract_y
 _atom_site_fract_z
 _atom_site_occupancy
  V  V0  1  0.50000000  0.00000000  0.30387800  1
  V  V1  1  0.50000000  0.00000000  0.80387800  1
  V  V2  1  0.00000000  0.50000000  0.69612200  1
  V  V3  1  0.00000000  0.50000000  0.19612200  1
  As  As4  1  0.78499800  0.21500200  0.25000000  1
  As  As5  1  0.21500200  0.21500200  0.75000000  1
  As  As6  1  0.78499800  0.78499800  0.75000000  1
  As  As7  1  0.21500200  0.78499800  0.25000000  1
  As  As8  1  0.71500200  0.28499800  0.75000000  1
  As  As9  1  0.28499800  0.28499800  0.25000000  1
  As  As10  1  0.71500200  0.71500200  0.25000000  1
  As  As11  1  0.28499800  0.71500200  0.75000000  1
  H  H12  1  0.83721100  0.03823400  0.42931300  1
  H  H13  1  0.16278900  0.03823400  0.92931300  1
  H  H14  1  0.83721100  0.96176600  0.92931300  1
  H  H15  1  0.16278900  0.96176600  0.42931300  1
  H  H16  1  0.53823400  0.33721100  0.92931300  1
  H  H17  1  0.46176600  0.33721100  0.42931300  1
  H  H18  1  0.53823400  0.66278900  0.42931300  1
  H  H19  1  0.46176600  0.66278900  0.92931300  1
  H  H20  1  0.66278900  0.46176600  0.57068700  1
  H  H21  1  0.33721100  0.46176600  0.07068700  1
  H  H22  1  0.66278900  0.53823400  0.07068700  1
  H  H23  1  0.33721100  0.53823400  0.57068700  1
  H  H24  1  0.96176600  0.16278900  0.07068700  1
  H  H25  1  0.03823400  0.16278900  0.57068700  1
  H  H26  1  0.96176600  0.83721100  0.57068700  1
  H  H27  1  0.03823400  0.83721100  0.07068700  1
  O  O28  1  0.87098400  0.13865100  0.41527600  1
  O  O29  1  0.12901600  0.13865100  0.91527600  1
  O  O30  1  0.87098400  0.86134900  0.91527600  1
  O  O31  1  0.12901600  0.86134900  0.41527600  1
  O  O32  1  0.63865100  0.37098400  0.91527600  1
  O  O33  1  0.36134900  0.37098400  0.41527600  1
  O  O34  1  0.63865100  0.62901600  0.41527600  1
  O  O35  1  0.36134900  0.62901600  0.91527600  1
  O  O36  1  0.62901600  0.36134900  0.58472400  1
  O  O37  1  0.37098400  0.36134900  0.08472400  1
  O  O38  1  0.62901600  0.63865100  0.08472400  1
  O  O39  1  0.37098400  0.63865100  0.58472400  1
  O  O40  1  0.86134900  0.12901600  0.08472400  1
  O  O41  1  0.13865100  0.12901600  0.58472400  1
  O  O42  1  0.86134900  0.87098400  0.58472400  1
  O  O43  1  0.13865100  0.87098400  0.08472400  1
  O  O44  1  0.60530400  0.18368400  0.25444600  1
  O  O45  1  0.39469600  0.18368400  0.75444600  1
  O  O46  1  0.60530400  0.81631600  0.75444600  1
  O  O47  1  0.39469600  0.81631600  0.25444600  1
  O  O48  1  0.68368400  0.10530400  0.75444600  1
  O  O49  1  0.31631600  0.10530400  0.25444600  1
  O  O50  1  0.68368400  0.89469600  0.25444600  1
  O  O51  1  0.31631600  0.89469600  0.75444600  1
  O  O52  1  0.89469600  0.31631600  0.74555400  1
  O  O53  1  0.10530400  0.31631600  0.24555400  1
  O  O54  1  0.89469600  0.68368400  0.24555400  1
  O  O55  1  0.10530400  0.68368400  0.74555400  1
  O  O56  1  0.81631600  0.39469600  0.24555400  1
  O  O57  1  0.18368400  0.39469600  0.74555400  1
  O  O58  1  0.81631600  0.60530400  0.74555400  1
  O  O59  1  0.18368400  0.60530400  0.24555400  1
  O  O60  1  0.50000000  0.00000000  0.49610500  1
  O  O61  1  0.50000000  0.00000000  0.99610500  1
  O  O62  1  0.00000000  0.50000000  0.50389500  1
  O  O63  1  0.00000000  0.50000000  0.00389500  1
