# generated using pymatgen
data_Li2Ni(PO3)4
_symmetry_space_group_name_H-M   'P 1'
_cell_length_a   9.12555036
_cell_length_b   9.37787802
_cell_length_c   7.17293786
_cell_angle_alpha   90.00000000
_cell_angle_beta   129.36532715
_cell_angle_gamma   90.00000000
_symmetry_Int_Tables_number   1
_chemical_formula_structural   Li2Ni(PO3)4
_chemical_formula_sum   'Li4 Ni2 P8 O24'
_cell_volume   474.57651449
_cell_formula_units_Z   2
loop_
 _symmetry_equiv_pos_site_id
 _symmetry_equiv_pos_as_xyz
  1  'x, y, z'
loop_
 _atom_site_type_symbol
 _atom_site_label
 _atom_site_symmetry_multiplicity
 _atom_site_fract_x
 _atom_site_fract_y
 _atom_site_fract_z
 _atom_site_occupancy
  Li  Li0  1  0.50000000  0.84852938  0.50000000  1
  Li  Li1  1  0.50000000  0.14776838  0.50000000  1
  Li  Li2  1  0.00000000  0.34852938  0.50000000  1
  Li  Li3  1  0.00000000  0.64776838  0.50000000  1
  Ni  Ni4  1  0.50000000  0.68963900  0.00000000  1
  Ni  Ni5  1  0.00000000  0.18963900  0.00000000  1
  P  P6  1  0.20599212  0.05006312  0.50552750  1
  P  P7  1  0.79400788  0.05006312  0.49447250  1
  P  P8  1  0.17295688  0.95403638  0.86554950  1
  P  P9  1  0.82704312  0.95403638  0.13445050  1
  P  P10  1  0.70599212  0.55006312  0.50552750  1
  P  P11  1  0.29400788  0.55006312  0.49447250  1
  P  P12  1  0.67295688  0.45403638  0.86554950  1
  P  P13  1  0.32704312  0.45403638  0.13445050  1
  O  O14  1  0.39279388  0.00443412  0.57850250  1
  O  O15  1  0.60720612  0.00443412  0.42149750  1
  O  O16  1  0.22261825  0.06859600  0.74229300  1
  O  O17  1  0.77738175  0.06859600  0.25770700  1
  O  O18  1  0.62065550  0.68874200  0.36779500  1
  O  O19  1  0.37934450  0.68874200  0.63220500  1
  O  O20  1  0.18798900  0.02817100  0.06186800  1
  O  O21  1  0.81201100  0.02817100  0.93813200  1
  O  O22  1  0.27515225  0.81753500  0.91213500  1
  O  O23  1  0.72484775  0.81753500  0.08786500  1
  O  O24  1  0.44724575  0.42166400  0.64305300  1
  O  O25  1  0.55275425  0.42166400  0.35694700  1
  O  O26  1  0.89279388  0.50443412  0.57850250  1
  O  O27  1  0.10720612  0.50443412  0.42149750  1
  O  O28  1  0.72261825  0.56859600  0.74229300  1
  O  O29  1  0.27738175  0.56859600  0.25770700  1
  O  O30  1  0.12065550  0.18874200  0.36779500  1
  O  O31  1  0.87934450  0.18874200  0.63220500  1
  O  O32  1  0.68798900  0.52817100  0.06186800  1
  O  O33  1  0.31201100  0.52817100  0.93813200  1
  O  O34  1  0.77515225  0.31753500  0.91213500  1
  O  O35  1  0.22484775  0.31753500  0.08786500  1
  O  O36  1  0.94724575  0.92166400  0.64305300  1
  O  O37  1  0.05275425  0.92166400  0.35694700  1
