# generated using pymatgen
data_Li4Mn3Fe(PO4)4
_symmetry_space_group_name_H-M   'P 1'
_cell_length_a   4.78016800
_cell_length_b   6.15019600
_cell_length_c   10.52501525
_cell_angle_alpha   90.00000000
_cell_angle_beta   90.06245096
_cell_angle_gamma   90.00000000
_symmetry_Int_Tables_number   1
_chemical_formula_structural   Li4Mn3Fe(PO4)4
_chemical_formula_sum   'Li4 Mn3 Fe1 P4 O16'
_cell_volume   309.42442503
_cell_formula_units_Z   1
loop_
 _symmetry_equiv_pos_site_id
 _symmetry_equiv_pos_as_xyz
  1  'x, y, z'
loop_
 _atom_site_type_symbol
 _atom_site_label
 _atom_site_symmetry_multiplicity
 _atom_site_fract_x
 _atom_site_fract_y
 _atom_site_fract_z
 _atom_site_occupancy
  Li  Li0  1  0.99997700  0.75036100  0.99971800  1
  Li  Li1  1  0.99997700  0.24963900  0.99971800  1
  Li  Li2  1  0.49984700  0.24940900  0.50017700  1
  Li  Li3  1  0.49984700  0.75059100  0.50017700  1
  Mn  Mn4  1  0.02836100  0.50000000  0.28127600  1
  Mn  Mn5  1  0.47137200  0.50000000  0.78160000  1
  Mn  Mn6  1  0.52787000  0.00000000  0.21861200  1
  Fe  Fe7  1  0.97009500  0.00000000  0.71839500  1
  P  P8  1  0.08920100  0.00000000  0.40863300  1
  P  P9  1  0.40944600  0.00000000  0.90636600  1
  P  P10  1  0.58992900  0.50000000  0.09201400  1
  P  P11  1  0.91220400  0.50000000  0.59276600  1
  O  O12  1  0.21018400  0.00000000  0.54610300  1
  O  O13  1  0.22353900  0.79894700  0.33893200  1
  O  O14  1  0.22353900  0.20105300  0.33893200  1
  O  O15  1  0.23291200  0.50000000  0.59596400  1
  O  O16  1  0.26867400  0.50000000  0.09598600  1
  O  O17  1  0.27370400  0.79901200  0.83745300  1
  O  O18  1  0.27370400  0.20098800  0.83745300  1
  O  O19  1  0.28868100  0.00000000  0.04423000  1
  O  O20  1  0.71215700  0.50000000  0.95504300  1
  O  O21  1  0.72358400  0.29874100  0.16157500  1
  O  O22  1  0.72358400  0.70125900  0.16157500  1
  O  O23  1  0.73105200  0.00000000  0.90273400  1
  O  O24  1  0.76818900  0.00000000  0.40382000  1
  O  O25  1  0.78075500  0.29729000  0.66243100  1
  O  O26  1  0.78075500  0.70271000  0.66243100  1
  O  O27  1  0.78686600  0.50000000  0.45588800  1
