# generated using pymatgen
data_HgH10N2Cl4O
_symmetry_space_group_name_H-M   'P 1'
_cell_length_a   8.62160500
_cell_length_b   9.29965200
_cell_length_c   11.96480300
_cell_angle_alpha   90.00000000
_cell_angle_beta   90.00000000
_cell_angle_gamma   90.00000000
_symmetry_Int_Tables_number   1
_chemical_formula_structural   HgH10N2Cl4O
_chemical_formula_sum   'Hg4 H40 N8 Cl16 O4'
_cell_volume   959.31309171
_cell_formula_units_Z   4
loop_
 _symmetry_equiv_pos_site_id
 _symmetry_equiv_pos_as_xyz
  1  'x, y, z'
loop_
 _atom_site_type_symbol
 _atom_site_label
 _atom_site_symmetry_multiplicity
 _atom_site_fract_x
 _atom_site_fract_y
 _atom_site_fract_z
 _atom_site_occupancy
  Hg  Hg0  1  0.00000000  0.72142100  0.00000000  1
  Hg  Hg1  1  0.00000000  0.27857900  0.00000000  1
  Hg  Hg2  1  0.50000000  0.27857900  0.50000000  1
  Hg  Hg3  1  0.50000000  0.72142100  0.50000000  1
  H  H4  1  0.03951900  0.50000000  0.67576000  1
  H  H5  1  0.03397300  0.91047600  0.29842000  1
  H  H6  1  0.03397300  0.08952400  0.29842000  1
  H  H7  1  0.08548900  0.80324600  0.52195300  1
  H  H8  1  0.08548900  0.19675400  0.52195300  1
  H  H9  1  0.09858200  0.59058500  0.38996500  1
  H  H10  1  0.09858200  0.40941500  0.38996500  1
  H  H11  1  0.14039000  0.50000000  0.26810000  1
  H  H12  1  0.16697800  0.00000000  0.37813000  1
  H  H13  1  0.17659400  0.00000000  0.23371400  1
  H  H14  1  0.32340600  0.00000000  0.73371400  1
  H  H15  1  0.33302200  0.00000000  0.87813000  1
  H  H16  1  0.35961000  0.50000000  0.76810000  1
  H  H17  1  0.40141800  0.59058500  0.88996500  1
  H  H18  1  0.40141800  0.40941500  0.88996500  1
  H  H19  1  0.41451100  0.80324600  0.02195300  1
  H  H20  1  0.41451100  0.19675400  0.02195300  1
  H  H21  1  0.46602700  0.91047600  0.79842000  1
  H  H22  1  0.46602700  0.08952400  0.79842000  1
  H  H23  1  0.46048100  0.50000000  0.17576000  1
  H  H24  1  0.53951900  0.50000000  0.82424000  1
  H  H25  1  0.53397300  0.91047600  0.20158000  1
  H  H26  1  0.53397300  0.08952400  0.20158000  1
  H  H27  1  0.58548900  0.80324600  0.97804700  1
  H  H28  1  0.58548900  0.19675400  0.97804700  1
  H  H29  1  0.59858200  0.59058500  0.11003500  1
  H  H30  1  0.59858200  0.40941500  0.11003500  1
  H  H31  1  0.64039000  0.50000000  0.23190000  1
  H  H32  1  0.66697800  0.00000000  0.12187000  1
  H  H33  1  0.67659400  0.00000000  0.26628600  1
  H  H34  1  0.82340600  0.00000000  0.76628600  1
  H  H35  1  0.83302200  0.00000000  0.62187000  1
  H  H36  1  0.85961000  0.50000000  0.73190000  1
  H  H37  1  0.90141800  0.59058500  0.61003500  1
  H  H38  1  0.90141800  0.40941500  0.61003500  1
  H  H39  1  0.91451100  0.80324600  0.47804700  1
  H  H40  1  0.91451100  0.19675400  0.47804700  1
  H  H41  1  0.96602700  0.91047600  0.70158000  1
  H  H42  1  0.96602700  0.08952400  0.70158000  1
  H  H43  1  0.96048100  0.50000000  0.32424000  1
  N  N44  1  0.07716500  0.50000000  0.34244700  1
  N  N45  1  0.10424800  0.00000000  0.30357600  1
  N  N46  1  0.39575200  0.00000000  0.80357600  1
  N  N47  1  0.42283500  0.50000000  0.84244700  1
  N  N48  1  0.57716500  0.50000000  0.15755300  1
  N  N49  1  0.60424800  0.00000000  0.19642400  1
  N  N50  1  0.89575200  0.00000000  0.69642400  1
  N  N51  1  0.92283500  0.50000000  0.65755300  1
  Cl  Cl52  1  0.11733400  0.75068200  0.81897700  1
  Cl  Cl53  1  0.11733400  0.24931800  0.81897700  1
  Cl  Cl54  1  0.20171500  0.50000000  0.07975600  1
  Cl  Cl55  1  0.24174800  0.00000000  0.55795800  1
  Cl  Cl56  1  0.25825200  0.00000000  0.05795800  1
  Cl  Cl57  1  0.29828500  0.50000000  0.57975600  1
  Cl  Cl58  1  0.38266600  0.75068200  0.31897700  1
  Cl  Cl59  1  0.38266600  0.24931800  0.31897700  1
  Cl  Cl60  1  0.61733400  0.75068200  0.68102300  1
  Cl  Cl61  1  0.61733400  0.24931800  0.68102300  1
  Cl  Cl62  1  0.70171500  0.50000000  0.42024400  1
  Cl  Cl63  1  0.74174800  0.00000000  0.94204200  1
  Cl  Cl64  1  0.75825200  0.00000000  0.44204200  1
  Cl  Cl65  1  0.79828500  0.50000000  0.92024400  1
  Cl  Cl66  1  0.88266600  0.75068200  0.18102300  1
  Cl  Cl67  1  0.88266600  0.24931800  0.18102300  1
  O  O68  1  0.00000000  0.73828200  0.50000000  1
  O  O69  1  0.00000000  0.26171800  0.50000000  1
  O  O70  1  0.50000000  0.26171800  0.00000000  1
  O  O71  1  0.50000000  0.73828200  0.00000000  1
