# generated using pymatgen
data_Tm2Sb2O7
_symmetry_space_group_name_H-M   'P 1'
_cell_length_a   7.53816000
_cell_length_b   7.66427200
_cell_length_c   10.55370200
_cell_angle_alpha   90.00000000
_cell_angle_beta   90.00000000
_cell_angle_gamma   90.00000000
_symmetry_Int_Tables_number   1
_chemical_formula_structural   Tm2Sb2O7
_chemical_formula_sum   'Tm8 Sb8 O28'
_cell_volume   609.73494717
_cell_formula_units_Z   4
loop_
 _symmetry_equiv_pos_site_id
 _symmetry_equiv_pos_as_xyz
  1  'x, y, z'
loop_
 _atom_site_type_symbol
 _atom_site_label
 _atom_site_symmetry_multiplicity
 _atom_site_fract_x
 _atom_site_fract_y
 _atom_site_fract_z
 _atom_site_occupancy
  Tm  Tm0  1  0.00000000  0.74182800  0.00000000  1
  Tm  Tm1  1  0.29132200  0.48851700  0.25000000  1
  Tm  Tm2  1  0.50000000  0.24182800  0.00000000  1
  Tm  Tm3  1  0.20867800  0.98851700  0.25000000  1
  Tm  Tm4  1  0.50000000  0.24182800  0.50000000  1
  Tm  Tm5  1  0.79132200  0.98851700  0.75000000  1
  Tm  Tm6  1  0.00000000  0.74182800  0.50000000  1
  Tm  Tm7  1  0.70867800  0.48851700  0.75000000  1
  Sb  Sb8  1  0.00000000  0.26480800  0.00000000  1
  Sb  Sb9  1  0.24316450  0.98330050  0.75000000  1
  Sb  Sb10  1  0.00000000  0.26480800  0.50000000  1
  Sb  Sb11  1  0.25683550  0.48330050  0.75000000  1
  Sb  Sb12  1  0.50000000  0.76480800  0.50000000  1
  Sb  Sb13  1  0.74316450  0.48330050  0.25000000  1
  Sb  Sb14  1  0.50000000  0.76480800  0.00000000  1
  Sb  Sb15  1  0.75683550  0.98330050  0.25000000  1
  O  O16  1  0.45825550  0.47551450  0.62716050  1
  O  O17  1  0.45825550  0.47551450  0.87283950  1
  O  O18  1  0.25237200  0.24652100  0.11813500  1
  O  O19  1  0.93157650  0.49087250  0.11495250  1
  O  O20  1  0.75251950  0.73312150  0.25000000  1
  O  O21  1  0.93157650  0.49087250  0.38504750  1
  O  O22  1  0.25237200  0.24652100  0.38186500  1
  O  O23  1  0.24762800  0.74652100  0.11813500  1
  O  O24  1  0.56842350  0.99087250  0.11495250  1
  O  O25  1  0.74748050  0.23312150  0.25000000  1
  O  O26  1  0.56842350  0.99087250  0.38504750  1
  O  O27  1  0.74762800  0.24652100  0.88186500  1
  O  O28  1  0.04174450  0.97551450  0.62716050  1
  O  O29  1  0.04174450  0.97551450  0.87283950  1
  O  O30  1  0.95825550  0.97551450  0.12716050  1
  O  O31  1  0.95825550  0.97551450  0.37283950  1
  O  O32  1  0.75237200  0.74652100  0.61813500  1
  O  O33  1  0.43157650  0.99087250  0.61495250  1
  O  O34  1  0.25251950  0.23312150  0.75000000  1
  O  O35  1  0.43157650  0.99087250  0.88504750  1
  O  O36  1  0.75237200  0.74652100  0.88186500  1
  O  O37  1  0.74762800  0.24652100  0.61813500  1
  O  O38  1  0.06842350  0.49087250  0.61495250  1
  O  O39  1  0.24748050  0.73312150  0.75000000  1
  O  O40  1  0.06842350  0.49087250  0.88504750  1
  O  O41  1  0.24762800  0.74652100  0.38186500  1
  O  O42  1  0.54174450  0.47551450  0.12716050  1
  O  O43  1  0.54174450  0.47551450  0.37283950  1
