# generated using pymatgen
data_KAl11O17
_symmetry_space_group_name_H-M   'P 1'
_cell_length_a   5.67505600
_cell_length_b   9.77361600
_cell_length_c   22.95569600
_cell_angle_alpha   90.00000000
_cell_angle_beta   90.00000000
_cell_angle_gamma   90.00000000
_symmetry_Int_Tables_number   1
_chemical_formula_structural   KAl11O17
_chemical_formula_sum   'K4 Al44 O68'
_cell_volume   1273.25645921
_cell_formula_units_Z   4
loop_
 _symmetry_equiv_pos_site_id
 _symmetry_equiv_pos_as_xyz
  1  'x, y, z'
loop_
 _atom_site_type_symbol
 _atom_site_label
 _atom_site_symmetry_multiplicity
 _atom_site_fract_x
 _atom_site_fract_y
 _atom_site_fract_z
 _atom_site_occupancy
  K  K0  1  0.50000000  0.10516600  0.25000000  1
  K  K1  1  0.50000000  0.89483400  0.75000000  1
  K  K2  1  0.00000000  0.60516600  0.25000000  1
  K  K3  1  0.00000000  0.39483400  0.75000000  1
  Al  Al4  1  0.75165250  0.91873650  0.10636200  1
  Al  Al5  1  0.75165250  0.91873650  0.39363800  1
  Al  Al6  1  0.50000000  0.33473100  0.52533400  1
  Al  Al7  1  0.50000000  0.33255600  0.67475800  1
  Al  Al8  1  0.50000000  0.00000000  0.50000000  1
  Al  Al9  1  0.50000000  0.00000000  0.00000000  1
  Al  Al10  1  0.50000000  0.33255600  0.82524200  1
  Al  Al11  1  0.50000000  0.33473100  0.97466600  1
  Al  Al12  1  0.50000000  0.17095900  0.10431400  1
  Al  Al13  1  0.50000000  0.17095900  0.39568600  1
  Al  Al14  1  0.24834750  0.91873650  0.10636200  1
  Al  Al15  1  0.24834750  0.91873650  0.39363800  1
  Al  Al16  1  0.75165250  0.08126350  0.89363800  1
  Al  Al17  1  0.75165250  0.08126350  0.60636200  1
  Al  Al18  1  0.50000000  0.82904100  0.89568600  1
  Al  Al19  1  0.50000000  0.66744400  0.17475800  1
  Al  Al20  1  0.50000000  0.66526900  0.02533400  1
  Al  Al21  1  0.50000000  0.66744400  0.32524200  1
  Al  Al22  1  0.50000000  0.66526900  0.47466600  1
  Al  Al23  1  0.50000000  0.82904100  0.60431400  1
  Al  Al24  1  0.24834750  0.08126350  0.60636200  1
  Al  Al25  1  0.24834750  0.08126350  0.89363800  1
  Al  Al26  1  0.25165250  0.41873650  0.10636200  1
  Al  Al27  1  0.25165250  0.41873650  0.39363800  1
  Al  Al28  1  0.00000000  0.83473100  0.52533400  1
  Al  Al29  1  0.00000000  0.83255600  0.67475800  1
  Al  Al30  1  0.00000000  0.50000000  0.50000000  1
  Al  Al31  1  0.00000000  0.50000000  0.00000000  1
  Al  Al32  1  0.00000000  0.83255600  0.82524200  1
  Al  Al33  1  0.00000000  0.83473100  0.97466600  1
  Al  Al34  1  0.00000000  0.67095900  0.10431400  1
  Al  Al35  1  0.00000000  0.67095900  0.39568600  1
  Al  Al36  1  0.74834750  0.41873650  0.10636200  1
  Al  Al37  1  0.74834750  0.41873650  0.39363800  1
  Al  Al38  1  0.25165250  0.58126350  0.89363800  1
  Al  Al39  1  0.25165250  0.58126350  0.60636200  1
  Al  Al40  1  0.00000000  0.32904100  0.89568600  1
  Al  Al41  1  0.00000000  0.16744400  0.17475800  1
  Al  Al42  1  0.00000000  0.16526900  0.02533400  1
  Al  Al43  1  0.00000000  0.16744400  0.32524200  1
  Al  Al44  1  0.00000000  0.16526900  0.47466600  1
  Al  Al45  1  0.00000000  0.32904100  0.60431400  1
  Al  Al46  1  0.74834750  0.58126350  0.60636200  1
  Al  Al47  1  0.74834750  0.58126350  0.89363800  1
  O  O48  1  0.73240550  0.92224650  0.54908000  1
  O  O49  1  0.73240550  0.92224650  0.95092000  1
  O  O50  1  0.25404500  0.25277000  0.35560000  1
  O  O51  1  0.25404500  0.25277000  0.14440000  1
  O  O52  1  0.50000000  0.33697100  0.75000000  1
  O  O53  1  0.50000000  0.15806000  0.95005000  1
  O  O54  1  0.50000000  0.00320600  0.14077800  1
  O  O55  1  0.50000000  0.99679400  0.85922200  1
  O  O56  1  0.50000000  0.99679400  0.64077800  1
  O  O57  1  0.50000000  0.00320600  0.35922200  1
  O  O58  1  0.50000000  0.33568700  0.05456500  1
  O  O59  1  0.50000000  0.33568700  0.44543500  1
  O  O60  1  0.50000000  0.15806000  0.54995000  1
  O  O61  1  0.50000000  0.50278400  0.14311800  1
  O  O62  1  0.50000000  0.50278400  0.35688200  1
  O  O63  1  0.73240550  0.07775350  0.04908000  1
  O  O64  1  0.73240550  0.07775350  0.45092000  1
  O  O65  1  0.74595500  0.25277000  0.14440000  1
  O  O66  1  0.74595500  0.25277000  0.35560000  1
  O  O67  1  0.25404500  0.74723000  0.64440000  1
  O  O68  1  0.25404500  0.74723000  0.85560000  1
  O  O69  1  0.26759450  0.92224650  0.54908000  1
  O  O70  1  0.26759450  0.92224650  0.95092000  1
  O  O71  1  0.50000000  0.49721600  0.85688200  1
  O  O72  1  0.50000000  0.66431300  0.94543500  1
  O  O73  1  0.50000000  0.84194000  0.04995000  1
  O  O74  1  0.50000000  0.84194000  0.45005000  1
  O  O75  1  0.50000000  0.49721600  0.64311800  1
  O  O76  1  0.50000000  0.66431300  0.55456500  1
  O  O77  1  0.50000000  0.66302900  0.25000000  1
  O  O78  1  0.74595500  0.74723000  0.64440000  1
  O  O79  1  0.74595500  0.74723000  0.85560000  1
  O  O80  1  0.26759450  0.07775350  0.04908000  1
  O  O81  1  0.26759450  0.07775350  0.45092000  1
  O  O82  1  0.23240550  0.42224650  0.54908000  1
  O  O83  1  0.23240550  0.42224650  0.95092000  1
  O  O84  1  0.75404500  0.75277000  0.35560000  1
  O  O85  1  0.75404500  0.75277000  0.14440000  1
  O  O86  1  0.00000000  0.83697100  0.75000000  1
  O  O87  1  0.00000000  0.65806000  0.95005000  1
  O  O88  1  0.00000000  0.50320600  0.14077800  1
  O  O89  1  0.00000000  0.49679400  0.85922200  1
  O  O90  1  0.00000000  0.49679400  0.64077800  1
  O  O91  1  0.00000000  0.50320600  0.35922200  1
  O  O92  1  0.00000000  0.83568700  0.05456500  1
  O  O93  1  0.00000000  0.83568700  0.44543500  1
  O  O94  1  0.00000000  0.65806000  0.54995000  1
  O  O95  1  0.00000000  0.00278400  0.14311800  1
  O  O96  1  0.00000000  0.00278400  0.35688200  1
  O  O97  1  0.23240550  0.57775350  0.04908000  1
  O  O98  1  0.23240550  0.57775350  0.45092000  1
  O  O99  1  0.24595500  0.75277000  0.14440000  1
  O  O100  1  0.24595500  0.75277000  0.35560000  1
  O  O101  1  0.75404500  0.24723000  0.64440000  1
  O  O102  1  0.75404500  0.24723000  0.85560000  1
  O  O103  1  0.76759450  0.42224650  0.54908000  1
  O  O104  1  0.76759450  0.42224650  0.95092000  1
  O  O105  1  0.00000000  0.99721600  0.85688200  1
  O  O106  1  0.00000000  0.16431300  0.94543500  1
  O  O107  1  0.00000000  0.34194000  0.04995000  1
  O  O108  1  0.00000000  0.34194000  0.45005000  1
  O  O109  1  0.00000000  0.99721600  0.64311800  1
  O  O110  1  0.00000000  0.16431300  0.55456500  1
  O  O111  1  0.00000000  0.16302900  0.25000000  1
  O  O112  1  0.24595500  0.24723000  0.64440000  1
  O  O113  1  0.24595500  0.24723000  0.85560000  1
  O  O114  1  0.76759450  0.57775350  0.04908000  1
  O  O115  1  0.76759450  0.57775350  0.45092000  1
