# generated using pymatgen
data_KHoCoSi2O7
_symmetry_space_group_name_H-M   'P 1'
_cell_length_a   8.10950400
_cell_length_b   9.97826400
_cell_length_c   8.59137321
_cell_angle_alpha   90.00000000
_cell_angle_beta   108.56830015
_cell_angle_gamma   90.00000000
_symmetry_Int_Tables_number   1
_chemical_formula_structural   KHoCoSi2O7
_chemical_formula_sum   'K4 Ho4 Co4 Si8 O28'
_cell_volume   659.01437277
_cell_formula_units_Z   4
loop_
 _symmetry_equiv_pos_site_id
 _symmetry_equiv_pos_as_xyz
  1  'x, y, z'
loop_
 _atom_site_type_symbol
 _atom_site_label
 _atom_site_symmetry_multiplicity
 _atom_site_fract_x
 _atom_site_fract_y
 _atom_site_fract_z
 _atom_site_occupancy
  K  K0  1  0.70708450  0.08209650  0.25793400  1
  K  K1  1  0.29291550  0.08209650  0.74206600  1
  K  K2  1  0.20708450  0.58209650  0.25793400  1
  K  K3  1  0.79291550  0.58209650  0.74206600  1
  Ho  Ho4  1  0.74969050  0.00736750  0.79533500  1
  Ho  Ho5  1  0.25030950  0.00736750  0.20466500  1
  Ho  Ho6  1  0.24969050  0.50736750  0.79533500  1
  Ho  Ho7  1  0.75030950  0.50736750  0.20466500  1
  Co  Co8  1  0.50000000  0.29586100  0.50000000  1
  Co  Co9  1  0.50000000  0.78498200  0.00000000  1
  Co  Co10  1  0.00000000  0.79586100  0.50000000  1
  Co  Co11  1  0.00000000  0.28498200  0.00000000  1
  Si  Si12  1  0.39631000  0.32448400  0.12650500  1
  Si  Si13  1  0.60369000  0.32448400  0.87349500  1
  Si  Si14  1  0.57436950  0.73669750  0.35535400  1
  Si  Si15  1  0.42563050  0.73669750  0.64464600  1
  Si  Si16  1  0.89631000  0.82448400  0.12650500  1
  Si  Si17  1  0.10369000  0.82448400  0.87349500  1
  Si  Si18  1  0.07436950  0.23669750  0.35535400  1
  Si  Si19  1  0.92563050  0.23669750  0.64464600  1
  O  O20  1  0.28947200  0.89959500  0.96111800  1
  O  O21  1  0.50000000  0.38720900  0.00000000  1
  O  O22  1  0.49131250  0.65189250  0.82037400  1
  O  O23  1  0.37808800  0.16392700  0.11621000  1
  O  O24  1  0.62191200  0.16392700  0.88379000  1
  O  O25  1  0.50000000  0.67065500  0.50000000  1
  O  O26  1  0.28218150  0.19322150  0.41550800  1
  O  O27  1  0.71781850  0.19322150  0.58449200  1
  O  O28  1  0.46885400  0.37942900  0.69901700  1
  O  O29  1  0.50192100  0.88918600  0.68100700  1
  O  O30  1  0.53114600  0.37942900  0.30098300  1
  O  O31  1  0.50868750  0.65189250  0.17962600  1
  O  O32  1  0.49807900  0.88918600  0.31899300  1
  O  O33  1  0.71052800  0.89959500  0.03888200  1
  O  O34  1  0.78947200  0.39959500  0.96111800  1
  O  O35  1  0.00000000  0.88720900  0.00000000  1
  O  O36  1  0.99131250  0.15189250  0.82037400  1
  O  O37  1  0.87808800  0.66392700  0.11621000  1
  O  O38  1  0.12191200  0.66392700  0.88379000  1
  O  O39  1  0.00000000  0.17065500  0.50000000  1
  O  O40  1  0.78218150  0.69322150  0.41550800  1
  O  O41  1  0.21781850  0.69322150  0.58449200  1
  O  O42  1  0.96885400  0.87942900  0.69901700  1
  O  O43  1  0.00192100  0.38918600  0.68100700  1
  O  O44  1  0.03114600  0.87942900  0.30098300  1
  O  O45  1  0.00868750  0.15189250  0.17962600  1
  O  O46  1  0.99807900  0.38918600  0.31899300  1
  O  O47  1  0.21052800  0.39959500  0.03888200  1
