# generated using pymatgen
data_Sr3La2Cl12
_symmetry_space_group_name_H-M   'P 1'
_cell_length_a   9.97574600
_cell_length_b   14.23067800
_cell_length_c   15.53471428
_cell_angle_alpha   90.00000000
_cell_angle_beta   108.50613662
_cell_angle_gamma   90.00000000
_symmetry_Int_Tables_number   1
_chemical_formula_structural   Sr3La2Cl12
_chemical_formula_sum   'Sr12 La8 Cl48'
_cell_volume   2091.29482111
_cell_formula_units_Z   4
loop_
 _symmetry_equiv_pos_site_id
 _symmetry_equiv_pos_as_xyz
  1  'x, y, z'
loop_
 _atom_site_type_symbol
 _atom_site_label
 _atom_site_symmetry_multiplicity
 _atom_site_fract_x
 _atom_site_fract_y
 _atom_site_fract_z
 _atom_site_occupancy
  Sr  Sr0  1  0.32968700  0.12201100  0.92326500  1
  Sr  Sr1  1  0.32968700  0.87798900  0.42326500  1
  Sr  Sr2  1  0.50000000  0.38089000  0.75000000  1
  Sr  Sr3  1  0.50000000  0.61911000  0.25000000  1
  Sr  Sr4  1  0.67031300  0.12201100  0.57673500  1
  Sr  Sr5  1  0.67031300  0.87798900  0.07673500  1
  Sr  Sr6  1  0.82968700  0.62201100  0.92326500  1
  Sr  Sr7  1  0.82968700  0.37798900  0.42326500  1
  Sr  Sr8  1  0.00000000  0.88089000  0.75000000  1
  Sr  Sr9  1  0.00000000  0.11911000  0.25000000  1
  Sr  Sr10  1  0.17031300  0.62201100  0.57673500  1
  Sr  Sr11  1  0.17031300  0.37798900  0.07673500  1
  La  La12  1  0.17121400  0.12831200  0.59417600  1
  La  La13  1  0.17121400  0.87168800  0.09417600  1
  La  La14  1  0.82878600  0.12831200  0.90582400  1
  La  La15  1  0.82878600  0.87168800  0.40582400  1
  La  La16  1  0.67121400  0.62831200  0.59417600  1
  La  La17  1  0.67121400  0.37168800  0.09417600  1
  La  La18  1  0.32878600  0.62831200  0.90582400  1
  La  La19  1  0.32878600  0.37168800  0.40582400  1
  Cl  Cl20  1  0.28049500  0.23488400  0.75715900  1
  Cl  Cl21  1  0.23248650  0.00069050  0.74546100  1
  Cl  Cl22  1  0.60828950  0.27417650  0.91997300  1
  Cl  Cl23  1  0.43270750  0.74927250  0.57978600  1
  Cl  Cl24  1  0.08139900  0.01163700  0.92609600  1
  Cl  Cl25  1  0.40598600  0.03023700  0.57398800  1
  Cl  Cl26  1  0.28049500  0.76511600  0.25715900  1
  Cl  Cl27  1  0.59401400  0.03023700  0.92601200  1
  Cl  Cl28  1  0.91860100  0.01163700  0.57390400  1
  Cl  Cl29  1  0.56729250  0.74927250  0.92021400  1
  Cl  Cl30  1  0.39171050  0.27417650  0.58002700  1
  Cl  Cl31  1  0.23248650  0.99930950  0.24546100  1
  Cl  Cl32  1  0.76751350  0.00069050  0.75453900  1
  Cl  Cl33  1  0.60828950  0.72582350  0.41997300  1
  Cl  Cl34  1  0.43270750  0.25072750  0.07978600  1
  Cl  Cl35  1  0.08139900  0.98836300  0.42609600  1
  Cl  Cl36  1  0.40598600  0.96976300  0.07398800  1
  Cl  Cl37  1  0.71950500  0.23488400  0.74284100  1
  Cl  Cl38  1  0.59401400  0.96976300  0.42601200  1
  Cl  Cl39  1  0.91860100  0.98836300  0.07390400  1
  Cl  Cl40  1  0.56729250  0.25072750  0.42021400  1
  Cl  Cl41  1  0.39171050  0.72582350  0.08002700  1
  Cl  Cl42  1  0.76751350  0.99930950  0.25453900  1
  Cl  Cl43  1  0.71950500  0.76511600  0.24284100  1
  Cl  Cl44  1  0.78049500  0.73488400  0.75715900  1
  Cl  Cl45  1  0.73248650  0.50069050  0.74546100  1
  Cl  Cl46  1  0.10828950  0.77417650  0.91997300  1
  Cl  Cl47  1  0.93270750  0.24927250  0.57978600  1
  Cl  Cl48  1  0.58139900  0.51163700  0.92609600  1
  Cl  Cl49  1  0.90598600  0.53023700  0.57398800  1
  Cl  Cl50  1  0.78049500  0.26511600  0.25715900  1
  Cl  Cl51  1  0.09401400  0.53023700  0.92601200  1
  Cl  Cl52  1  0.41860100  0.51163700  0.57390400  1
  Cl  Cl53  1  0.06729250  0.24927250  0.92021400  1
  Cl  Cl54  1  0.89171050  0.77417650  0.58002700  1
  Cl  Cl55  1  0.73248650  0.49930950  0.24546100  1
  Cl  Cl56  1  0.26751350  0.50069050  0.75453900  1
  Cl  Cl57  1  0.10828950  0.22582350  0.41997300  1
  Cl  Cl58  1  0.93270750  0.75072750  0.07978600  1
  Cl  Cl59  1  0.58139900  0.48836300  0.42609600  1
  Cl  Cl60  1  0.90598600  0.46976300  0.07398800  1
  Cl  Cl61  1  0.21950500  0.73488400  0.74284100  1
  Cl  Cl62  1  0.09401400  0.46976300  0.42601200  1
  Cl  Cl63  1  0.41860100  0.48836300  0.07390400  1
  Cl  Cl64  1  0.06729250  0.75072750  0.42021400  1
  Cl  Cl65  1  0.89171050  0.22582350  0.08002700  1
  Cl  Cl66  1  0.26751350  0.49930950  0.25453900  1
  Cl  Cl67  1  0.21950500  0.26511600  0.24284100  1
