# generated using pymatgen
data_InH10N2Cl5O
_symmetry_space_group_name_H-M   'P 1'
_cell_length_a   7.24004600
_cell_length_b   10.25436800
_cell_length_c   14.06326500
_cell_angle_alpha   90.00000000
_cell_angle_beta   90.00000000
_cell_angle_gamma   90.00000000
_symmetry_Int_Tables_number   1
_chemical_formula_structural   InH10N2Cl5O
_chemical_formula_sum   'In4 H40 N8 Cl20 O4'
_cell_volume   1044.08627050
_cell_formula_units_Z   4
loop_
 _symmetry_equiv_pos_site_id
 _symmetry_equiv_pos_as_xyz
  1  'x, y, z'
loop_
 _atom_site_type_symbol
 _atom_site_label
 _atom_site_symmetry_multiplicity
 _atom_site_fract_x
 _atom_site_fract_y
 _atom_site_fract_z
 _atom_site_occupancy
  In  In0  1  0.19107400  0.25000000  0.88501700  1
  In  In1  1  0.69107400  0.75000000  0.61498300  1
  In  In2  1  0.30892600  0.25000000  0.38501700  1
  In  In3  1  0.80892600  0.75000000  0.11498300  1
  H  H4  1  0.06954900  0.67156500  0.96333000  1
  H  H5  1  0.06954900  0.82843500  0.96333000  1
  H  H6  1  0.66969400  0.53016600  0.92466000  1
  H  H7  1  0.66969400  0.96983400  0.92466000  1
  H  H8  1  0.64045100  0.10605200  0.85864800  1
  H  H9  1  0.64045100  0.39394800  0.85864800  1
  H  H10  1  0.54761100  0.53692900  0.82338500  1
  H  H11  1  0.54761100  0.96307100  0.82338500  1
  H  H12  1  0.77677400  0.98396200  0.81876500  1
  H  H13  1  0.77677400  0.51603800  0.81876500  1
  H  H14  1  0.27677400  0.01603800  0.68123500  1
  H  H15  1  0.27677400  0.48396200  0.68123500  1
  H  H16  1  0.04761100  0.03692900  0.67661500  1
  H  H17  1  0.04761100  0.46307100  0.67661500  1
  H  H18  1  0.14045100  0.60605200  0.64135200  1
  H  H19  1  0.14045100  0.89394800  0.64135200  1
  H  H20  1  0.16969400  0.03016600  0.57534000  1
  H  H21  1  0.16969400  0.46983400  0.57534000  1
  H  H22  1  0.56954900  0.17156500  0.53667000  1
  H  H23  1  0.56954900  0.32843500  0.53667000  1
  H  H24  1  0.43045100  0.67156500  0.46333000  1
  H  H25  1  0.43045100  0.82843500  0.46333000  1
  H  H26  1  0.83030600  0.53016600  0.42466000  1
  H  H27  1  0.83030600  0.96983400  0.42466000  1
  H  H28  1  0.85954900  0.10605200  0.35864800  1
  H  H29  1  0.85954900  0.39394800  0.35864800  1
  H  H30  1  0.95238900  0.53692900  0.32338500  1
  H  H31  1  0.95238900  0.96307100  0.32338500  1
  H  H32  1  0.72322600  0.51603800  0.31876500  1
  H  H33  1  0.72322600  0.98396200  0.31876500  1
  H  H34  1  0.22322600  0.01603800  0.18123500  1
  H  H35  1  0.22322600  0.48396200  0.18123500  1
  H  H36  1  0.45238900  0.03692900  0.17661500  1
  H  H37  1  0.45238900  0.46307100  0.17661500  1
  H  H38  1  0.35954900  0.60605200  0.14135200  1
  H  H39  1  0.35954900  0.89394800  0.14135200  1
  H  H40  1  0.33030600  0.03016600  0.07534000  1
  H  H41  1  0.33030600  0.46983400  0.07534000  1
  H  H42  1  0.93045100  0.17156500  0.03667000  1
  H  H43  1  0.93045100  0.32843500  0.03667000  1
  N  N44  1  0.65902800  0.00587000  0.85637300  1
  N  N45  1  0.65902800  0.49413000  0.85637300  1
  N  N46  1  0.15902800  0.50587000  0.64362700  1
  N  N47  1  0.15902800  0.99413000  0.64362700  1
  N  N48  1  0.84097200  0.00587000  0.35637300  1
  N  N49  1  0.84097200  0.49413000  0.35637300  1
  N  N50  1  0.34097200  0.50587000  0.14362700  1
  N  N51  1  0.34097200  0.99413000  0.14362700  1
  Cl  Cl52  1  0.46392800  0.25000000  0.99720600  1
  Cl  Cl53  1  0.18234300  0.00143900  0.89619400  1
  Cl  Cl54  1  0.18234300  0.49856100  0.89619400  1
  Cl  Cl55  1  0.91902900  0.25000000  0.77397500  1
  Cl  Cl56  1  0.90810600  0.75000000  0.75488000  1
  Cl  Cl57  1  0.40810600  0.25000000  0.74512000  1
  Cl  Cl58  1  0.41902900  0.75000000  0.72602500  1
  Cl  Cl59  1  0.68234300  0.50143900  0.60380600  1
  Cl  Cl60  1  0.68234300  0.99856100  0.60380600  1
  Cl  Cl61  1  0.96392800  0.75000000  0.50279400  1
  Cl  Cl62  1  0.03607200  0.25000000  0.49720600  1
  Cl  Cl63  1  0.31765700  0.00143900  0.39619400  1
  Cl  Cl64  1  0.31765700  0.49856100  0.39619400  1
  Cl  Cl65  1  0.58097100  0.25000000  0.27397500  1
  Cl  Cl66  1  0.59189400  0.75000000  0.25488000  1
  Cl  Cl67  1  0.09189400  0.25000000  0.24512000  1
  Cl  Cl68  1  0.08097100  0.75000000  0.22602500  1
  Cl  Cl69  1  0.81765700  0.50143900  0.10380600  1
  Cl  Cl70  1  0.81765700  0.99856100  0.10380600  1
  Cl  Cl71  1  0.53607200  0.75000000  0.00279400  1
  O  O72  1  0.01047400  0.75000000  0.99043300  1
  O  O73  1  0.51047400  0.25000000  0.50956700  1
  O  O74  1  0.48952600  0.75000000  0.49043300  1
  O  O75  1  0.98952600  0.25000000  0.00956700  1
