# generated using pymatgen
data_KPH5C2SN3O4
_symmetry_space_group_name_H-M   'P 1'
_cell_length_a   6.20993800
_cell_length_b   6.92508256
_cell_length_c   10.81269075
_cell_angle_alpha   88.10689403
_cell_angle_beta   103.39105357
_cell_angle_gamma   101.55351441
_symmetry_Int_Tables_number   1
_chemical_formula_structural   KPH5C2SN3O4
_chemical_formula_sum   'K2 P2 H10 C4 S2 N6 O8'
_cell_volume   443.14139501
_cell_formula_units_Z   2
loop_
 _symmetry_equiv_pos_site_id
 _symmetry_equiv_pos_as_xyz
  1  'x, y, z'
loop_
 _atom_site_type_symbol
 _atom_site_label
 _atom_site_symmetry_multiplicity
 _atom_site_fract_x
 _atom_site_fract_y
 _atom_site_fract_z
 _atom_site_occupancy
  K  K0  1  0.98647800  0.18068900  0.68309800  1
  K  K1  1  0.01352200  0.81931100  0.31690200  1
  P  P2  1  0.44025200  0.74428400  0.72808600  1
  P  P3  1  0.55974800  0.25571600  0.27191400  1
  H  H4  1  0.40334600  0.92175200  0.90247100  1
  H  H5  1  0.59665400  0.07824800  0.09752900  1
  H  H6  1  0.49468200  0.42297200  0.68537700  1
  H  H7  1  0.50531800  0.57702800  0.31462300  1
  H  H8  1  0.07533600  0.36800200  0.97710100  1
  H  H9  1  0.92466400  0.63199800  0.02289900  1
  H  H10  1  0.63702500  0.79940900  0.50808400  1
  H  H11  1  0.36297500  0.20059100  0.49191600  1
  H  H12  1  0.45260000  0.09421600  0.61472200  1
  H  H13  1  0.54740000  0.90578400  0.38527800  1
  C  C14  1  0.71942400  0.50693000  0.85369800  1
  C  C15  1  0.28057600  0.49307000  0.14630200  1
  C  C16  1  0.66636200  0.78503500  0.97628300  1
  C  C17  1  0.33363800  0.21496500  0.02371700  1
  S  S18  1  0.11708300  0.68781000  0.64910400  1
  S  S19  1  0.88291700  0.31219000  0.35089600  1
  N  N20  1  0.48661900  0.81307900  0.88375000  1
  N  N21  1  0.51338100  0.18692100  0.11625000  1
  N  N22  1  0.54650300  0.53350100  0.75515700  1
  N  N23  1  0.45349700  0.46649900  0.24484300  1
  N  N24  1  0.77847500  0.64015800  0.95461000  1
  N  N25  1  0.22152500  0.35984200  0.04539000  1
  O  O26  1  0.59323800  0.89297300  0.66329200  1
  O  O27  1  0.40676200  0.10702700  0.33670800  1
  O  O28  1  0.82132500  0.36810600  0.85728300  1
  O  O29  1  0.17867500  0.63189400  0.14271700  1
  O  O30  1  0.26829200  0.12065200  0.92054600  1
  O  O31  1  0.73170800  0.87934800  0.07945400  1
  O  O32  1  0.37496200  0.20524500  0.58444300  1
  O  O33  1  0.62503800  0.79475500  0.41555700  1
