# generated using pymatgen
data_Sr3Hf2O7
_symmetry_space_group_name_H-M   'P 1'
_cell_length_a   5.77065600
_cell_length_b   21.36605000
_cell_length_c   5.77096000
_cell_angle_alpha   90.00000000
_cell_angle_beta   90.00000000
_cell_angle_gamma   90.00000000
_symmetry_Int_Tables_number   1
_chemical_formula_structural   Sr3Hf2O7
_chemical_formula_sum   'Sr12 Hf8 O28'
_cell_volume   711.53700339
_cell_formula_units_Z   4
loop_
 _symmetry_equiv_pos_site_id
 _symmetry_equiv_pos_as_xyz
  1  'x, y, z'
loop_
 _atom_site_type_symbol
 _atom_site_label
 _atom_site_symmetry_multiplicity
 _atom_site_fract_x
 _atom_site_fract_y
 _atom_site_fract_z
 _atom_site_occupancy
  Sr  Sr0  1  0.00000000  0.81154300  0.50000000  1
  Sr  Sr1  1  0.50000000  0.68845700  0.50000000  1
  Sr  Sr2  1  0.50000000  0.81154300  0.00000000  1
  Sr  Sr3  1  0.00000000  0.00000000  0.50000000  1
  Sr  Sr4  1  0.50000000  0.00000000  0.00000000  1
  Sr  Sr5  1  0.00000000  0.68845700  0.00000000  1
  Sr  Sr6  1  0.50000000  0.31154300  0.50000000  1
  Sr  Sr7  1  0.00000000  0.18845700  0.50000000  1
  Sr  Sr8  1  0.00000000  0.31154300  0.00000000  1
  Sr  Sr9  1  0.50000000  0.50000000  0.50000000  1
  Sr  Sr10  1  0.00000000  0.50000000  0.00000000  1
  Sr  Sr11  1  0.50000000  0.18845700  0.00000000  1
  Hf  Hf12  1  0.00000000  0.90146300  0.00000000  1
  Hf  Hf13  1  0.50000000  0.90146300  0.50000000  1
  Hf  Hf14  1  0.50000000  0.59853700  0.00000000  1
  Hf  Hf15  1  0.00000000  0.59853700  0.50000000  1
  Hf  Hf16  1  0.50000000  0.40146300  0.00000000  1
  Hf  Hf17  1  0.00000000  0.40146300  0.50000000  1
  Hf  Hf18  1  0.00000000  0.09853700  0.00000000  1
  Hf  Hf19  1  0.50000000  0.09853700  0.50000000  1
  O  O20  1  0.00000000  0.80379000  0.00000000  1
  O  O21  1  0.20121200  0.59717400  0.20123800  1
  O  O22  1  0.20121200  0.90282600  0.70123800  1
  O  O23  1  0.29878800  0.59717400  0.70123800  1
  O  O24  1  0.29878800  0.90282600  0.20123800  1
  O  O25  1  0.00000000  0.00000000  0.00000000  1
  O  O26  1  0.50000000  0.80379000  0.50000000  1
  O  O27  1  0.50000000  0.69621000  0.00000000  1
  O  O28  1  0.70121200  0.59717400  0.29876200  1
  O  O29  1  0.70121200  0.90282600  0.79876200  1
  O  O30  1  0.79878800  0.90282600  0.29876200  1
  O  O31  1  0.79878800  0.59717400  0.79876200  1
  O  O32  1  0.50000000  0.00000000  0.50000000  1
  O  O33  1  0.00000000  0.69621000  0.50000000  1
  O  O34  1  0.50000000  0.30379000  0.00000000  1
  O  O35  1  0.70121200  0.09717400  0.20123800  1
  O  O36  1  0.70121200  0.40282600  0.70123800  1
  O  O37  1  0.79878800  0.09717400  0.70123800  1
  O  O38  1  0.79878800  0.40282600  0.20123800  1
  O  O39  1  0.50000000  0.50000000  0.00000000  1
  O  O40  1  0.00000000  0.30379000  0.50000000  1
  O  O41  1  0.00000000  0.19621000  0.00000000  1
  O  O42  1  0.20121200  0.09717400  0.29876200  1
  O  O43  1  0.20121200  0.40282600  0.79876200  1
  O  O44  1  0.29878800  0.40282600  0.29876200  1
  O  O45  1  0.29878800  0.09717400  0.79876200  1
  O  O46  1  0.00000000  0.50000000  0.50000000  1
  O  O47  1  0.50000000  0.19621000  0.50000000  1
