# generated using pymatgen
data_BaTm2O4
_symmetry_space_group_name_H-M   'P 1'
_cell_length_a   10.34976400
_cell_length_b   6.11411400
_cell_length_c   21.79902628
_cell_angle_alpha   90.00000000
_cell_angle_beta   90.41407872
_cell_angle_gamma   90.00000000
_symmetry_Int_Tables_number   1
_chemical_formula_structural   BaTm2O4
_chemical_formula_sum   'Ba12 Tm24 O48'
_cell_volume   1379.39844545
_cell_formula_units_Z   12
loop_
 _symmetry_equiv_pos_site_id
 _symmetry_equiv_pos_as_xyz
  1  'x, y, z'
loop_
 _atom_site_type_symbol
 _atom_site_label
 _atom_site_symmetry_multiplicity
 _atom_site_fract_x
 _atom_site_fract_y
 _atom_site_fract_z
 _atom_site_occupancy
  Ba  Ba0  1  0.33601900  0.88912000  0.85609200  1
  Ba  Ba1  1  0.33601900  0.11088000  0.35609200  1
  Ba  Ba2  1  0.50000000  0.38913100  0.75000000  1
  Ba  Ba3  1  0.50000000  0.61086900  0.25000000  1
  Ba  Ba4  1  0.66398100  0.11088000  0.14390800  1
  Ba  Ba5  1  0.66398100  0.88912000  0.64390800  1
  Ba  Ba6  1  0.83601900  0.38912000  0.85609200  1
  Ba  Ba7  1  0.83601900  0.61088000  0.35609200  1
  Ba  Ba8  1  0.00000000  0.88913100  0.75000000  1
  Ba  Ba9  1  0.00000000  0.11086900  0.25000000  1
  Ba  Ba10  1  0.16398100  0.61088000  0.14390800  1
  Ba  Ba11  1  0.16398100  0.38912000  0.64390800  1
  Tm  Tm12  1  0.33098250  0.88782850  0.69427200  1
  Tm  Tm13  1  0.33098250  0.11217150  0.19427200  1
  Tm  Tm14  1  0.33548550  0.88022350  0.55229900  1
  Tm  Tm15  1  0.33548550  0.11977650  0.05229900  1
  Tm  Tm16  1  0.49579450  0.38169850  0.57062400  1
  Tm  Tm17  1  0.49579450  0.61830150  0.07062400  1
  Tm  Tm18  1  0.50420550  0.38169850  0.92937600  1
  Tm  Tm19  1  0.50420550  0.61830150  0.42937600  1
  Tm  Tm20  1  0.66451450  0.88022350  0.94770100  1
  Tm  Tm21  1  0.66451450  0.11977650  0.44770100  1
  Tm  Tm22  1  0.66901750  0.88782850  0.80572800  1
  Tm  Tm23  1  0.66901750  0.11217150  0.30572800  1
  Tm  Tm24  1  0.83098250  0.38782850  0.69427200  1
  Tm  Tm25  1  0.83098250  0.61217150  0.19427200  1
  Tm  Tm26  1  0.83548550  0.38022350  0.55229900  1
  Tm  Tm27  1  0.83548550  0.61977650  0.05229900  1
  Tm  Tm28  1  0.99579450  0.88169850  0.57062400  1
  Tm  Tm29  1  0.99579450  0.11830150  0.07062400  1
  Tm  Tm30  1  0.00420550  0.88169850  0.92937600  1
  Tm  Tm31  1  0.00420550  0.11830150  0.42937600  1
  Tm  Tm32  1  0.16451450  0.38022350  0.94770100  1
  Tm  Tm33  1  0.16451450  0.61977650  0.44770100  1
  Tm  Tm34  1  0.16901750  0.38782850  0.80572800  1
  Tm  Tm35  1  0.16901750  0.61217150  0.30572800  1
  O  O36  1  0.14956700  0.94288600  0.49709400  1
  O  O37  1  0.14956700  0.05711400  0.99709400  1
  O  O38  1  0.66976700  0.32617600  0.62442300  1
  O  O39  1  0.66976700  0.67382400  0.12442300  1
  O  O40  1  0.22091550  0.88378950  0.24806000  1
  O  O41  1  0.22091550  0.11621050  0.74806000  1
  O  O42  1  0.37992200  0.14787700  0.61945600  1
  O  O43  1  0.37992200  0.85212300  0.11945600  1
  O  O44  1  0.44071850  0.66973050  0.62353400  1
  O  O45  1  0.44071850  0.33026950  0.12353400  1
  O  O46  1  0.50000000  0.95424900  0.75000000  1
  O  O47  1  0.50000000  0.00000000  0.00000000  1
  O  O48  1  0.50000000  0.00000000  0.50000000  1
  O  O49  1  0.50000000  0.04575100  0.25000000  1
  O  O50  1  0.55928150  0.66973050  0.87646600  1
  O  O51  1  0.55928150  0.33026950  0.37646600  1
  O  O52  1  0.62007800  0.14787700  0.88054400  1
  O  O53  1  0.62007800  0.85212300  0.38054400  1
  O  O54  1  0.77908450  0.11621050  0.75194000  1
  O  O55  1  0.77908450  0.88378950  0.25194000  1
  O  O56  1  0.33023300  0.32617600  0.87557700  1
  O  O57  1  0.33023300  0.67382400  0.37557700  1
  O  O58  1  0.85043300  0.05711400  0.50290600  1
  O  O59  1  0.85043300  0.94288600  0.00290600  1
  O  O60  1  0.64956700  0.44288600  0.49709400  1
  O  O61  1  0.64956700  0.55711400  0.99709400  1
  O  O62  1  0.16976700  0.82617600  0.62442300  1
  O  O63  1  0.16976700  0.17382400  0.12442300  1
  O  O64  1  0.72091550  0.38378950  0.24806000  1
  O  O65  1  0.72091550  0.61621050  0.74806000  1
  O  O66  1  0.87992200  0.64787700  0.61945600  1
  O  O67  1  0.87992200  0.35212300  0.11945600  1
  O  O68  1  0.94071850  0.16973050  0.62353400  1
  O  O69  1  0.94071850  0.83026950  0.12353400  1
  O  O70  1  0.00000000  0.45424900  0.75000000  1
  O  O71  1  0.00000000  0.50000000  0.00000000  1
  O  O72  1  0.00000000  0.50000000  0.50000000  1
  O  O73  1  0.00000000  0.54575100  0.25000000  1
  O  O74  1  0.05928150  0.16973050  0.87646600  1
  O  O75  1  0.05928150  0.83026950  0.37646600  1
  O  O76  1  0.12007800  0.64787700  0.88054400  1
  O  O77  1  0.12007800  0.35212300  0.38054400  1
  O  O78  1  0.27908450  0.61621050  0.75194000  1
  O  O79  1  0.27908450  0.38378950  0.25194000  1
  O  O80  1  0.83023300  0.82617600  0.87557700  1
  O  O81  1  0.83023300  0.17382400  0.37557700  1
  O  O82  1  0.35043300  0.55711400  0.50290600  1
  O  O83  1  0.35043300  0.44288600  0.00290600  1
