# generated using pymatgen
data_RbH2O2F
_symmetry_space_group_name_H-M   'P 1'
_cell_length_a   12.20790800
_cell_length_b   12.20790800
_cell_length_c   4.49138300
_cell_angle_alpha   90.00000000
_cell_angle_beta   90.00000000
_cell_angle_gamma   90.00000000
_symmetry_Int_Tables_number   1
_chemical_formula_structural   RbH2O2F
_chemical_formula_sum   'Rb8 H16 O16 F8'
_cell_volume   669.36436230
_cell_formula_units_Z   8
loop_
 _symmetry_equiv_pos_site_id
 _symmetry_equiv_pos_as_xyz
  1  'x, y, z'
loop_
 _atom_site_type_symbol
 _atom_site_label
 _atom_site_symmetry_multiplicity
 _atom_site_fract_x
 _atom_site_fract_y
 _atom_site_fract_z
 _atom_site_occupancy
  Rb  Rb0  1  0.00000000  0.00000000  0.00000000  1
  Rb  Rb1  1  0.00000000  0.50000000  0.73411400  1
  Rb  Rb2  1  0.23643400  0.73643400  0.75218600  1
  Rb  Rb3  1  0.26356600  0.23643400  0.24781400  1
  Rb  Rb4  1  0.50000000  0.50000000  0.00000000  1
  Rb  Rb5  1  0.50000000  0.00000000  0.26588600  1
  Rb  Rb6  1  0.73643400  0.76356600  0.24781400  1
  Rb  Rb7  1  0.76356600  0.26356600  0.75218600  1
  H  H8  1  0.04036400  0.71503700  0.27154800  1
  H  H9  1  0.06969800  0.25789300  0.69377300  1
  H  H10  1  0.21503700  0.54036400  0.27154800  1
  H  H11  1  0.24210700  0.43030200  0.69377300  1
  H  H12  1  0.25789300  0.93030200  0.30622700  1
  H  H13  1  0.28496300  0.04036400  0.72845200  1
  H  H14  1  0.43030200  0.75789300  0.30622700  1
  H  H15  1  0.45963600  0.21503700  0.72845200  1
  H  H16  1  0.54036400  0.78496300  0.72845200  1
  H  H17  1  0.56969800  0.24210700  0.30622700  1
  H  H18  1  0.71503700  0.95963600  0.72845200  1
  H  H19  1  0.74210700  0.06969800  0.30622700  1
  H  H20  1  0.75789300  0.56969800  0.69377300  1
  H  H21  1  0.78496300  0.45963600  0.27154800  1
  H  H22  1  0.93030200  0.74210700  0.69377300  1
  H  H23  1  0.95963600  0.28496300  0.27154800  1
  O  O24  1  0.00298500  0.21215400  0.63894400  1
  O  O25  1  0.00701400  0.21750200  0.31094300  1
  O  O26  1  0.21215400  0.99701500  0.36105600  1
  O  O27  1  0.21750200  0.99298600  0.68905700  1
  O  O28  1  0.28249800  0.49298600  0.31094300  1
  O  O29  1  0.28784600  0.49701500  0.63894400  1
  O  O30  1  0.49298600  0.71750200  0.68905700  1
  O  O31  1  0.49701500  0.71215400  0.36105600  1
  O  O32  1  0.50298500  0.28784600  0.36105600  1
  O  O33  1  0.50701400  0.28249800  0.68905700  1
  O  O34  1  0.71215400  0.50298500  0.63894400  1
  O  O35  1  0.71750200  0.50701400  0.31094300  1
  O  O36  1  0.78249800  0.00701400  0.68905700  1
  O  O37  1  0.78784600  0.00298500  0.36105600  1
  O  O38  1  0.99298600  0.78249800  0.31094300  1
  O  O39  1  0.99701500  0.78784600  0.63894400  1
  F  F40  1  0.11356000  0.61356000  0.22748200  1
  F  F41  1  0.16661000  0.33339000  0.75819100  1
  F  F42  1  0.33339000  0.83339000  0.24180900  1
  F  F43  1  0.38644000  0.11356000  0.77251800  1
  F  F44  1  0.61356000  0.88644000  0.77251800  1
  F  F45  1  0.66661000  0.16661000  0.24180900  1
  F  F46  1  0.83339000  0.66661000  0.75819100  1
  F  F47  1  0.88644000  0.38644000  0.22748200  1
