# generated using pymatgen
data_SrMgUH24C3O23
_symmetry_space_group_name_H-M   'P 1'
_cell_length_a   6.55127700
_cell_length_b   14.82618000
_cell_length_c   11.36695964
_cell_angle_alpha   90.00000000
_cell_angle_beta   99.81274983
_cell_angle_gamma   90.00000000
_symmetry_Int_Tables_number   1
_chemical_formula_structural   SrMgUH24C3O23
_chemical_formula_sum   'Sr2 Mg2 U2 H48 C6 O46'
_cell_volume   1087.92481796
_cell_formula_units_Z   2
loop_
 _symmetry_equiv_pos_site_id
 _symmetry_equiv_pos_as_xyz
  1  'x, y, z'
loop_
 _atom_site_type_symbol
 _atom_site_label
 _atom_site_symmetry_multiplicity
 _atom_site_fract_x
 _atom_site_fract_y
 _atom_site_fract_z
 _atom_site_occupancy
  Sr  Sr0  1  0.78836300  0.75000000  0.59021300  1
  Sr  Sr1  1  0.21163700  0.25000000  0.40978700  1
  Mg  Mg2  1  0.00000000  0.50000000  0.00000000  1
  Mg  Mg3  1  0.00000000  0.00000000  0.00000000  1
  U  U4  1  0.55067100  0.75000000  0.21745400  1
  U  U5  1  0.44932900  0.25000000  0.78254600  1
  H  H6  1  0.12052400  0.75000000  0.39873200  1
  H  H7  1  0.87947600  0.25000000  0.60126800  1
  H  H8  1  0.25370200  0.75000000  0.52670400  1
  H  H9  1  0.74629800  0.25000000  0.47329600  1
  H  H10  1  0.11904600  0.75000000  0.81672000  1
  H  H11  1  0.88095400  0.25000000  0.18328000  1
  H  H12  1  0.92753700  0.75000000  0.88075700  1
  H  H13  1  0.07246300  0.25000000  0.11924300  1
  H  H14  1  0.83259400  0.54597700  0.55399600  1
  H  H15  1  0.16740600  0.04597700  0.44600400  1
  H  H16  1  0.16740600  0.45402300  0.44600400  1
  H  H17  1  0.83259400  0.95402300  0.55399600  1
  H  H18  1  0.06362600  0.55160500  0.61992300  1
  H  H19  1  0.93637400  0.05160500  0.38007700  1
  H  H20  1  0.93637400  0.44839500  0.38007700  1
  H  H21  1  0.06362600  0.94839500  0.61992300  1
  H  H22  1  0.45617000  0.66911400  0.73040300  1
  H  H23  1  0.54383000  0.16911400  0.26959700  1
  H  H24  1  0.54383000  0.33088600  0.26959700  1
  H  H25  1  0.45617000  0.83088600  0.73040300  1
  H  H26  1  0.43542000  0.59150000  0.63327200  1
  H  H27  1  0.56458000  0.09150000  0.36672800  1
  H  H28  1  0.56458000  0.40850000  0.36672800  1
  H  H29  1  0.43542000  0.90850000  0.63327200  1
  H  H30  1  0.34902400  0.58216000  0.94833900  1
  H  H31  1  0.65097600  0.08216000  0.05166100  1
  H  H32  1  0.65097600  0.41784000  0.05166100  1
  H  H33  1  0.34902400  0.91784000  0.94833900  1
  H  H34  1  0.32322100  0.49448200  0.86604000  1
  H  H35  1  0.67677900  0.99448200  0.13396000  1
  H  H36  1  0.67677900  0.50551800  0.13396000  1
  H  H37  1  0.32322100  0.00551800  0.86604000  1
  H  H38  1  0.31975000  0.52242700  0.19141700  1
  H  H39  1  0.68025000  0.02242700  0.80858300  1
  H  H40  1  0.68025000  0.47757300  0.80858300  1
  H  H41  1  0.31975000  0.97757300  0.19141700  1
  H  H42  1  0.14460200  0.46739700  0.24107800  1
  H  H43  1  0.85539800  0.96739700  0.75892200  1
  H  H44  1  0.85539800  0.53260300  0.75892200  1
  H  H45  1  0.14460200  0.03260300  0.24107800  1
  H  H46  1  0.99459500  0.66530600  0.10136000  1
  H  H47  1  0.00540500  0.16530600  0.89864000  1
  H  H48  1  0.00540500  0.33469400  0.89864000  1
  H  H49  1  0.99459500  0.83469400  0.10136000  1
  H  H50  1  0.79078000  0.64697100  0.01299300  1
  H  H51  1  0.20922000  0.14697100  0.98700700  1
  H  H52  1  0.20922000  0.35302900  0.98700700  1
  H  H53  1  0.79078000  0.85302900  0.01299300  1
  C  C54  1  0.45979500  0.75000000  0.95524700  1
  C  C55  1  0.54020500  0.25000000  0.04475300  1
  C  C56  1  0.63579600  0.58134400  0.34901300  1
  C  C57  1  0.36420400  0.08134400  0.65098700  1
  C  C58  1  0.36420400  0.41865600  0.65098700  1
  C  C59  1  0.63579600  0.91865600  0.34901300  1
  O  O60  1  0.27349200  0.75000000  0.22313800  1
  O  O61  1  0.72650800  0.25000000  0.77686200  1
  O  O62  1  0.82666000  0.75000000  0.20878800  1
  O  O63  1  0.17334000  0.25000000  0.79121200  1
  O  O64  1  0.49628400  0.67550300  0.01808500  1
  O  O65  1  0.50371600  0.17550300  0.98191500  1
  O  O66  1  0.50371600  0.32449700  0.98191500  1
  O  O67  1  0.49628400  0.82449700  0.01808500  1
  O  O68  1  0.39373200  0.75000000  0.84377000  1
  O  O69  1  0.60626800  0.25000000  0.15623000  1
  O  O70  1  0.56739400  0.58074700  0.23307200  1
  O  O71  1  0.43260600  0.08074700  0.76692800  1
  O  O72  1  0.43260600  0.41925300  0.76692800  1
  O  O73  1  0.56739400  0.91925300  0.23307200  1
  O  O74  1  0.63508300  0.66100300  0.39799800  1
  O  O75  1  0.36491700  0.16100300  0.60200200  1
  O  O76  1  0.36491700  0.33899700  0.60200200  1
  O  O77  1  0.63508300  0.83899700  0.39799800  1
  O  O78  1  0.69833100  0.51118600  0.40879400  1
  O  O79  1  0.30166900  0.01118600  0.59120600  1
  O  O80  1  0.30166900  0.48881400  0.59120600  1
  O  O81  1  0.69833100  0.98881400  0.40879400  1
  O  O82  1  0.11128900  0.75000000  0.48352200  1
  O  O83  1  0.88871100  0.25000000  0.51647800  1
  O  O84  1  0.96576100  0.75000000  0.80188100  1
  O  O85  1  0.03423900  0.25000000  0.19811900  1
  O  O86  1  0.92192500  0.57091100  0.62649400  1
  O  O87  1  0.07807500  0.07091100  0.37350600  1
  O  O88  1  0.07807500  0.42908900  0.37350600  1
  O  O89  1  0.92192500  0.92908900  0.62649400  1
  O  O90  1  0.50105600  0.65065700  0.65573800  1
  O  O91  1  0.49894400  0.15065700  0.34426200  1
  O  O92  1  0.49894400  0.34934300  0.34426200  1
  O  O93  1  0.50105600  0.84934300  0.65573800  1
  O  O94  1  0.25377700  0.53206800  0.91908600  1
  O  O95  1  0.74622300  0.03206800  0.08091400  1
  O  O96  1  0.74622300  0.46793200  0.08091400  1
  O  O97  1  0.25377700  0.96793200  0.91908600  1
  O  O98  1  0.18257000  0.49455700  0.16744700  1
  O  O99  1  0.81743000  0.99455700  0.83255300  1
  O  O100  1  0.81743000  0.50544300  0.83255300  1
  O  O101  1  0.18257000  0.00544300  0.16744700  1
  O  O102  1  0.94234400  0.63987400  0.02257700  1
  O  O103  1  0.05765600  0.13987400  0.97742300  1
  O  O104  1  0.05765600  0.36012600  0.97742300  1
  O  O105  1  0.94234400  0.86012600  0.02257700  1
