# generated using pymatgen
data_Na3AlP2H2O9
_symmetry_space_group_name_H-M   'P 1'
_cell_length_a   15.43622200
_cell_length_b   7.11605800
_cell_length_c   7.13941117
_cell_angle_alpha   90.00000000
_cell_angle_beta   96.64215243
_cell_angle_gamma   90.00000000
_symmetry_Int_Tables_number   1
_chemical_formula_structural   Na3AlP2H2O9
_chemical_formula_sum   'Na12 Al4 P8 H8 O36'
_cell_volume   778.96519094
_cell_formula_units_Z   4
loop_
 _symmetry_equiv_pos_site_id
 _symmetry_equiv_pos_as_xyz
  1  'x, y, z'
loop_
 _atom_site_type_symbol
 _atom_site_label
 _atom_site_symmetry_multiplicity
 _atom_site_fract_x
 _atom_site_fract_y
 _atom_site_fract_z
 _atom_site_occupancy
  Na  Na0  1  0.00000000  0.23489500  0.00000000  1
  Na  Na1  1  0.00000000  0.76510500  0.00000000  1
  Na  Na2  1  0.88976500  0.50000000  0.29072700  1
  Na  Na3  1  0.61023500  0.00000000  0.70927300  1
  Na  Na4  1  0.75000000  0.25000000  0.50000000  1
  Na  Na5  1  0.75000000  0.75000000  0.50000000  1
  Na  Na6  1  0.50000000  0.73489500  0.00000000  1
  Na  Na7  1  0.50000000  0.26510500  0.00000000  1
  Na  Na8  1  0.38976500  0.00000000  0.29072700  1
  Na  Na9  1  0.11023500  0.50000000  0.70927300  1
  Na  Na10  1  0.25000000  0.75000000  0.50000000  1
  Na  Na11  1  0.25000000  0.25000000  0.50000000  1
  Al  Al12  1  0.75000000  0.25000000  0.00000000  1
  Al  Al13  1  0.75000000  0.75000000  0.00000000  1
  Al  Al14  1  0.25000000  0.75000000  0.00000000  1
  Al  Al15  1  0.25000000  0.25000000  0.00000000  1
  P  P16  1  0.62288900  0.00000000  0.22583800  1
  P  P17  1  0.87711100  0.50000000  0.77416200  1
  P  P18  1  0.88023200  0.00000000  0.29002800  1
  P  P19  1  0.61976800  0.50000000  0.70997200  1
  P  P20  1  0.12288900  0.50000000  0.22583800  1
  P  P21  1  0.37711100  0.00000000  0.77416200  1
  P  P22  1  0.38023200  0.50000000  0.29002800  1
  P  P23  1  0.11976800  0.00000000  0.70997200  1
  H  H24  1  0.93753000  0.00000000  0.59624200  1
  H  H25  1  0.56247000  0.50000000  0.40375800  1
  H  H26  1  0.80681400  0.00000000  0.82478000  1
  H  H27  1  0.69318600  0.50000000  0.17522000  1
  H  H28  1  0.43753000  0.50000000  0.59624200  1
  H  H29  1  0.06247000  0.00000000  0.40375800  1
  H  H30  1  0.30681400  0.50000000  0.82478000  1
  H  H31  1  0.19318600  0.00000000  0.17522000  1
  O  O32  1  0.52354900  0.00000000  0.21267800  1
  O  O33  1  0.97645100  0.50000000  0.78732200  1
  O  O34  1  0.66641400  0.00000000  0.43024700  1
  O  O35  1  0.83358600  0.50000000  0.56975300  1
  O  O36  1  0.65204100  0.17965900  0.11918800  1
  O  O37  1  0.65204100  0.82034100  0.11918800  1
  O  O38  1  0.84795900  0.32034100  0.88081200  1
  O  O39  1  0.84795900  0.67965900  0.88081200  1
  O  O40  1  0.82960400  0.18012600  0.22340300  1
  O  O41  1  0.82960400  0.81987400  0.22340300  1
  O  O42  1  0.67039600  0.31987400  0.77659700  1
  O  O43  1  0.67039600  0.68012600  0.77659700  1
  O  O44  1  0.97412600  0.00000000  0.24145100  1
  O  O45  1  0.52587400  0.50000000  0.75854900  1
  O  O46  1  0.87904100  0.00000000  0.51577100  1
  O  O47  1  0.62095900  0.50000000  0.48422900  1
  O  O48  1  0.75656900  0.00000000  0.89507800  1
  O  O49  1  0.74343100  0.50000000  0.10492200  1
  O  O50  1  0.02354900  0.50000000  0.21267800  1
  O  O51  1  0.47645100  0.00000000  0.78732200  1
  O  O52  1  0.16641400  0.50000000  0.43024700  1
  O  O53  1  0.33358600  0.00000000  0.56975300  1
  O  O54  1  0.15204100  0.67965900  0.11918800  1
  O  O55  1  0.15204100  0.32034100  0.11918800  1
  O  O56  1  0.34795900  0.82034100  0.88081200  1
  O  O57  1  0.34795900  0.17965900  0.88081200  1
  O  O58  1  0.32960400  0.68012600  0.22340300  1
  O  O59  1  0.32960400  0.31987400  0.22340300  1
  O  O60  1  0.17039600  0.81987400  0.77659700  1
  O  O61  1  0.17039600  0.18012600  0.77659700  1
  O  O62  1  0.47412600  0.50000000  0.24145100  1
  O  O63  1  0.02587400  0.00000000  0.75854900  1
  O  O64  1  0.37904100  0.50000000  0.51577100  1
  O  O65  1  0.12095900  0.00000000  0.48422900  1
  O  O66  1  0.25656900  0.50000000  0.89507800  1
  O  O67  1  0.24343100  0.00000000  0.10492200  1
