# generated using pymatgen
data_CaPbI4
_symmetry_space_group_name_H-M   'P 1'
_cell_length_a   17.13422000
_cell_length_b   4.61322800
_cell_length_c   8.06402824
_cell_angle_alpha   90.00000000
_cell_angle_beta   118.06993578
_cell_angle_gamma   90.00000000
_symmetry_Int_Tables_number   1
_chemical_formula_structural   CaPbI4
_chemical_formula_sum   'Ca2 Pb2 I8'
_cell_volume   562.43708504
_cell_formula_units_Z   2
loop_
 _symmetry_equiv_pos_site_id
 _symmetry_equiv_pos_as_xyz
  1  'x, y, z'
loop_
 _atom_site_type_symbol
 _atom_site_label
 _atom_site_symmetry_multiplicity
 _atom_site_fract_x
 _atom_site_fract_y
 _atom_site_fract_z
 _atom_site_occupancy
  Ca  Ca0  1  0.00000000  0.50000000  0.50000000  1
  Ca  Ca1  1  0.50000000  0.00000000  0.50000000  1
  Pb  Pb2  1  0.00000000  0.00000000  0.00000000  1
  Pb  Pb3  1  0.50000000  0.50000000  0.00000000  1
  I  I4  1  0.38092500  0.00000000  0.05587100  1
  I  I5  1  0.38271700  0.50000000  0.54244700  1
  I  I6  1  0.11907500  0.50000000  0.94412900  1
  I  I7  1  0.11728300  0.00000000  0.45755300  1
  I  I8  1  0.88092500  0.50000000  0.05587100  1
  I  I9  1  0.88271700  0.00000000  0.54244700  1
  I  I10  1  0.61907500  0.00000000  0.94412900  1
  I  I11  1  0.61728300  0.50000000  0.45755300  1
