# generated using pymatgen
data_Sr2CaI6
_symmetry_space_group_name_H-M   'P 1'
_cell_length_a   7.66206400
_cell_length_b   7.66206400
_cell_length_c   14.62393800
_cell_angle_alpha   90.00000000
_cell_angle_beta   90.00000000
_cell_angle_gamma   90.00000000
_symmetry_Int_Tables_number   1
_chemical_formula_structural   Sr2CaI6
_chemical_formula_sum   'Sr4 Ca2 I12'
_cell_volume   858.53081475
_cell_formula_units_Z   2
loop_
 _symmetry_equiv_pos_site_id
 _symmetry_equiv_pos_as_xyz
  1  'x, y, z'
loop_
 _atom_site_type_symbol
 _atom_site_label
 _atom_site_symmetry_multiplicity
 _atom_site_fract_x
 _atom_site_fract_y
 _atom_site_fract_z
 _atom_site_occupancy
  Sr  Sr0  1  0.00000000  0.00000000  0.33359300  1
  Sr  Sr1  1  0.00000000  0.00000000  0.66640700  1
  Sr  Sr2  1  0.50000000  0.50000000  0.16640700  1
  Sr  Sr3  1  0.50000000  0.50000000  0.83359300  1
  Ca  Ca4  1  0.00000000  0.00000000  0.00000000  1
  Ca  Ca5  1  0.50000000  0.50000000  0.50000000  1
  I  I6  1  0.19408500  0.80591500  0.16006700  1
  I  I7  1  0.19408500  0.80591500  0.83993300  1
  I  I8  1  0.20533600  0.79466400  0.50000000  1
  I  I9  1  0.29466400  0.29466400  0.00000000  1
  I  I10  1  0.30591500  0.30591500  0.33993300  1
  I  I11  1  0.30591500  0.30591500  0.66006700  1
  I  I12  1  0.69408500  0.69408500  0.33993300  1
  I  I13  1  0.69408500  0.69408500  0.66006700  1
  I  I14  1  0.70533600  0.70533600  0.00000000  1
  I  I15  1  0.79466400  0.20533600  0.50000000  1
  I  I16  1  0.80591500  0.19408500  0.16006700  1
  I  I17  1  0.80591500  0.19408500  0.83993300  1
