# generated using pymatgen
data_Li3Nb3P8O29
_symmetry_space_group_name_H-M   'P 1'
_cell_length_a   17.38578000
_cell_length_b   10.03849000
_cell_length_c   14.08451811
_cell_angle_alpha   90.00000000
_cell_angle_beta   90.23164866
_cell_angle_gamma   90.00000000
_symmetry_Int_Tables_number   1
_chemical_formula_structural   Li3Nb3P8O29
_chemical_formula_sum   'Li12 Nb12 P32 O116'
_cell_volume   2458.10830199
_cell_formula_units_Z   4
loop_
 _symmetry_equiv_pos_site_id
 _symmetry_equiv_pos_as_xyz
  1  'x, y, z'
loop_
 _atom_site_type_symbol
 _atom_site_label
 _atom_site_symmetry_multiplicity
 _atom_site_fract_x
 _atom_site_fract_y
 _atom_site_fract_z
 _atom_site_occupancy
  Li  Li0  1  0.00000000  0.00000000  0.50000000  1
  Li  Li1  1  0.00000000  0.00000000  0.00000000  1
  Li  Li2  1  0.61547750  0.71042150  0.05557200  1
  Li  Li3  1  0.61547750  0.28957850  0.55557200  1
  Li  Li4  1  0.38452250  0.71042150  0.44442800  1
  Li  Li5  1  0.38452250  0.28957850  0.94442800  1
  Li  Li6  1  0.50000000  0.50000000  0.50000000  1
  Li  Li7  1  0.50000000  0.50000000  0.00000000  1
  Li  Li8  1  0.11547750  0.21042150  0.05557200  1
  Li  Li9  1  0.11547750  0.78957850  0.55557200  1
  Li  Li10  1  0.88452250  0.21042150  0.44442800  1
  Li  Li11  1  0.88452250  0.78957850  0.94442800  1
  Nb  Nb12  1  0.78269600  0.78450800  0.74122800  1
  Nb  Nb13  1  0.21730400  0.21549200  0.25877200  1
  Nb  Nb14  1  0.78269600  0.21549200  0.24122800  1
  Nb  Nb15  1  0.21730400  0.78450800  0.75877200  1
  Nb  Nb16  1  0.50000000  0.93293100  0.75000000  1
  Nb  Nb17  1  0.50000000  0.06706900  0.25000000  1
  Nb  Nb18  1  0.28269600  0.28450800  0.74122800  1
  Nb  Nb19  1  0.71730400  0.71549200  0.25877200  1
  Nb  Nb20  1  0.28269600  0.71549200  0.24122800  1
  Nb  Nb21  1  0.71730400  0.28450800  0.75877200  1
  Nb  Nb22  1  0.00000000  0.43293100  0.75000000  1
  Nb  Nb23  1  0.00000000  0.56706900  0.25000000  1
  P  P24  1  0.84943600  0.93263000  0.34400200  1
  P  P25  1  0.84943600  0.06737000  0.84400200  1
  P  P26  1  0.61488900  0.69536400  0.84368800  1
  P  P27  1  0.66530200  0.99370500  0.12391700  1
  P  P28  1  0.66530200  0.00629500  0.62391700  1
  P  P29  1  0.53853250  0.76493950  0.34552600  1
  P  P30  1  0.46146750  0.76493950  0.15447400  1
  P  P31  1  0.61488900  0.30463600  0.34368800  1
  P  P32  1  0.38511100  0.69536400  0.65631200  1
  P  P33  1  0.53853250  0.23506050  0.84552600  1
  P  P34  1  0.46146750  0.23506050  0.65447400  1
  P  P35  1  0.33469800  0.00629500  0.87608300  1
  P  P36  1  0.33469800  0.99370500  0.37608300  1
  P  P37  1  0.38511100  0.30463600  0.15631200  1
  P  P38  1  0.15056400  0.93263000  0.15599800  1
  P  P39  1  0.15056400  0.06737000  0.65599800  1
  P  P40  1  0.34943600  0.43263000  0.34400200  1
  P  P41  1  0.34943600  0.56737000  0.84400200  1
  P  P42  1  0.11488900  0.19536400  0.84368800  1
  P  P43  1  0.16530200  0.49370500  0.12391700  1
  P  P44  1  0.16530200  0.50629500  0.62391700  1
  P  P45  1  0.03853250  0.26493950  0.34552600  1
  P  P46  1  0.96146750  0.26493950  0.15447400  1
  P  P47  1  0.11488900  0.80463600  0.34368800  1
  P  P48  1  0.88511100  0.19536400  0.65631200  1
  P  P49  1  0.03853250  0.73506050  0.84552600  1
  P  P50  1  0.96146750  0.73506050  0.65447400  1
  P  P51  1  0.83469800  0.50629500  0.87608300  1
  P  P52  1  0.83469800  0.49370500  0.37608300  1
  P  P53  1  0.88511100  0.80463600  0.15631200  1
  P  P54  1  0.65056400  0.43263000  0.15599800  1
  P  P55  1  0.65056400  0.56737000  0.65599800  1
  O  O56  1  0.89377600  0.90540400  0.24428700  1
  O  O57  1  0.38928600  0.37889800  0.06521700  1
  O  O58  1  0.82998800  0.91504300  0.83729000  1
  O  O59  1  0.89377600  0.09459600  0.74428700  1
  O  O60  1  0.38928600  0.62110200  0.56521700  1
  O  O61  1  0.82998800  0.08495700  0.33729000  1
  O  O62  1  0.77135300  0.85503900  0.33295700  1
  O  O63  1  0.73725950  0.93081750  0.66970400  1
  O  O64  1  0.69066250  0.77311050  0.82710000  1
  O  O65  1  0.10171200  0.10091800  0.57373800  1
  O  O66  1  0.10622400  0.09459600  0.75571300  1
  O  O67  1  0.62380450  0.71733850  0.33928000  1
  O  O68  1  0.73725950  0.06918250  0.16970400  1
  O  O69  1  0.77135300  0.14496100  0.83295700  1
  O  O70  1  0.66649900  0.84937400  0.16944800  1
  O  O71  1  0.66496550  0.98992750  0.01915300  1
  O  O72  1  0.66496550  0.01007250  0.51915300  1
  O  O73  1  0.59484850  0.93551650  0.67229600  1
  O  O74  1  0.69066250  0.22688950  0.32710000  1
  O  O75  1  0.66649900  0.15062600  0.66944800  1
  O  O76  1  0.54749150  0.79616650  0.83186600  1
  O  O77  1  0.50000000  0.70596500  0.25000000  1
  O  O78  1  0.50520500  0.71009900  0.07304900  1
  O  O79  1  0.49479500  0.71009900  0.42695100  1
  O  O80  1  0.53918000  0.91824200  0.33403200  1
  O  O81  1  0.59484850  0.06448350  0.17229600  1
  O  O82  1  0.45250850  0.79616650  0.66813400  1
  O  O83  1  0.53918000  0.08175800  0.83403200  1
  O  O84  1  0.62380450  0.28266150  0.83928000  1
  O  O85  1  0.89828800  0.10091800  0.92626200  1
  O  O86  1  0.10171200  0.89908200  0.07373800  1
  O  O87  1  0.10622400  0.90540400  0.25571300  1
  O  O88  1  0.37619550  0.71733850  0.16072000  1
  O  O89  1  0.46082000  0.91824200  0.16596800  1
  O  O90  1  0.54749150  0.20383350  0.33186600  1
  O  O91  1  0.40515150  0.93551650  0.82770400  1
  O  O92  1  0.46082000  0.08175800  0.66596800  1
  O  O93  1  0.50520500  0.28990100  0.57304900  1
  O  O94  1  0.49479500  0.28990100  0.92695100  1
  O  O95  1  0.50000000  0.29403500  0.75000000  1
  O  O96  1  0.45250850  0.20383350  0.16813400  1
  O  O97  1  0.33350100  0.84937400  0.33055200  1
  O  O98  1  0.30933750  0.77311050  0.67290000  1
  O  O99  1  0.40515150  0.06448350  0.32770400  1
  O  O100  1  0.33503450  0.01007250  0.98084700  1
  O  O101  1  0.33503450  0.98992750  0.48084700  1
  O  O102  1  0.33350100  0.15062600  0.83055200  1
  O  O103  1  0.22864700  0.85503900  0.16704300  1
  O  O104  1  0.26274050  0.93081750  0.83029600  1
  O  O105  1  0.37619550  0.28266150  0.66072000  1
  O  O106  1  0.89828800  0.89908200  0.42626200  1
  O  O107  1  0.30933750  0.22688950  0.17290000  1
  O  O108  1  0.26274050  0.06918250  0.33029600  1
  O  O109  1  0.22864700  0.14496100  0.66704300  1
  O  O110  1  0.17001200  0.91504300  0.66271000  1
  O  O111  1  0.61071400  0.37889800  0.43478300  1
  O  O112  1  0.17001200  0.08495700  0.16271000  1
  O  O113  1  0.61071400  0.62110200  0.93478300  1
  O  O114  1  0.39377600  0.40540400  0.24428700  1
  O  O115  1  0.88928600  0.87889800  0.06521700  1
  O  O116  1  0.32998800  0.41504300  0.83729000  1
  O  O117  1  0.39377600  0.59459600  0.74428700  1
  O  O118  1  0.88928600  0.12110200  0.56521700  1
  O  O119  1  0.32998800  0.58495700  0.33729000  1
  O  O120  1  0.27135300  0.35503900  0.33295700  1
  O  O121  1  0.23725950  0.43081750  0.66970400  1
  O  O122  1  0.19066250  0.27311050  0.82710000  1
  O  O123  1  0.60171200  0.60091800  0.57373800  1
  O  O124  1  0.60622400  0.59459600  0.75571300  1
  O  O125  1  0.12380450  0.21733850  0.33928000  1
  O  O126  1  0.23725950  0.56918250  0.16970400  1
  O  O127  1  0.27135300  0.64496100  0.83295700  1
  O  O128  1  0.16649900  0.34937400  0.16944800  1
  O  O129  1  0.16496550  0.48992750  0.01915300  1
  O  O130  1  0.16496550  0.51007250  0.51915300  1
  O  O131  1  0.09484850  0.43551650  0.67229600  1
  O  O132  1  0.19066250  0.72688950  0.32710000  1
  O  O133  1  0.16649900  0.65062600  0.66944800  1
  O  O134  1  0.04749150  0.29616650  0.83186600  1
  O  O135  1  0.00000000  0.20596500  0.25000000  1
  O  O136  1  0.00520500  0.21009900  0.07304900  1
  O  O137  1  0.99479500  0.21009900  0.42695100  1
  O  O138  1  0.03918000  0.41824200  0.33403200  1
  O  O139  1  0.09484850  0.56448350  0.17229600  1
  O  O140  1  0.95250850  0.29616650  0.66813400  1
  O  O141  1  0.03918000  0.58175800  0.83403200  1
  O  O142  1  0.12380450  0.78266150  0.83928000  1
  O  O143  1  0.39828800  0.60091800  0.92626200  1
  O  O144  1  0.60171200  0.39908200  0.07373800  1
  O  O145  1  0.60622400  0.40540400  0.25571300  1
  O  O146  1  0.87619550  0.21733850  0.16072000  1
  O  O147  1  0.96082000  0.41824200  0.16596800  1
  O  O148  1  0.04749150  0.70383350  0.33186600  1
  O  O149  1  0.90515150  0.43551650  0.82770400  1
  O  O150  1  0.96082000  0.58175800  0.66596800  1
  O  O151  1  0.00520500  0.78990100  0.57304900  1
  O  O152  1  0.99479500  0.78990100  0.92695100  1
  O  O153  1  0.00000000  0.79403500  0.75000000  1
  O  O154  1  0.95250850  0.70383350  0.16813400  1
  O  O155  1  0.83350100  0.34937400  0.33055200  1
  O  O156  1  0.80933750  0.27311050  0.67290000  1
  O  O157  1  0.90515150  0.56448350  0.32770400  1
  O  O158  1  0.83503450  0.51007250  0.98084700  1
  O  O159  1  0.83503450  0.48992750  0.48084700  1
  O  O160  1  0.83350100  0.65062600  0.83055200  1
  O  O161  1  0.72864700  0.35503900  0.16704300  1
  O  O162  1  0.76274050  0.43081750  0.83029600  1
  O  O163  1  0.87619550  0.78266150  0.66072000  1
  O  O164  1  0.39828800  0.39908200  0.42626200  1
  O  O165  1  0.80933750  0.72688950  0.17290000  1
  O  O166  1  0.76274050  0.56918250  0.33029600  1
  O  O167  1  0.72864700  0.64496100  0.66704300  1
  O  O168  1  0.67001200  0.41504300  0.66271000  1
  O  O169  1  0.11071400  0.87889800  0.43478300  1
  O  O170  1  0.67001200  0.58495700  0.16271000  1
  O  O171  1  0.11071400  0.12110200  0.93478300  1
