# generated using pymatgen
data_Li3CrSiBO7
_symmetry_space_group_name_H-M   'P 1'
_cell_length_a   5.09787164
_cell_length_b   6.28526000
_cell_length_c   8.35564251
_cell_angle_alpha   90.00000000
_cell_angle_beta   95.27922436
_cell_angle_gamma   90.00000000
_symmetry_Int_Tables_number   1
_chemical_formula_structural   Li3CrSiBO7
_chemical_formula_sum   'Li6 Cr2 Si2 B2 O14'
_cell_volume   266.59122707
_cell_formula_units_Z   2
loop_
 _symmetry_equiv_pos_site_id
 _symmetry_equiv_pos_as_xyz
  1  'x, y, z'
loop_
 _atom_site_type_symbol
 _atom_site_label
 _atom_site_symmetry_multiplicity
 _atom_site_fract_x
 _atom_site_fract_y
 _atom_site_fract_z
 _atom_site_occupancy
  Li  Li0  1  0.23367450  0.75000000  0.60195750  1
  Li  Li1  1  0.73982550  0.99732000  0.74929150  1
  Li  Li2  1  0.73982550  0.50268000  0.74929150  1
  Li  Li3  1  0.26017450  0.49732000  0.25070850  1
  Li  Li4  1  0.26017450  0.00268000  0.25070850  1
  Li  Li5  1  0.76632550  0.25000000  0.39804250  1
  Cr  Cr6  1  0.20125850  0.25000000  0.81701350  1
  Cr  Cr7  1  0.79874150  0.75000000  0.18298650  1
  Si  Si8  1  0.27734250  0.75000000  0.92761850  1
  Si  Si9  1  0.72265750  0.25000000  0.07238150  1
  B  B10  1  0.29105350  0.25000000  0.53844950  1
  B  B11  1  0.70894650  0.75000000  0.46155050  1
  O  O12  1  0.63271750  0.75000000  0.61142850  1
  O  O13  1  0.03527850  0.25000000  0.58495950  1
  O  O14  1  0.47709550  0.25000000  0.67669650  1
  O  O15  1  0.18148250  0.94759300  0.80512450  1
  O  O16  1  0.18148250  0.55240700  0.80512450  1
  O  O17  1  0.59719650  0.75000000  0.97014750  1
  O  O18  1  0.86621950  0.25000000  0.90592950  1
  O  O19  1  0.13378050  0.75000000  0.09407050  1
  O  O20  1  0.40280350  0.25000000  0.02985250  1
  O  O21  1  0.81851750  0.44759300  0.19487550  1
  O  O22  1  0.81851750  0.05240700  0.19487550  1
  O  O23  1  0.52290450  0.75000000  0.32330350  1
  O  O24  1  0.96472150  0.75000000  0.41504050  1
  O  O25  1  0.36728250  0.25000000  0.38857150  1
