# generated using pymatgen
data_Li6MnAlO6
_symmetry_space_group_name_H-M   'P 1'
_cell_length_a   5.60930800
_cell_length_b   9.12075800
_cell_length_c   9.79593138
_cell_angle_alpha   90.00000000
_cell_angle_beta   92.64539600
_cell_angle_gamma   90.00000000
_symmetry_Int_Tables_number   1
_chemical_formula_structural   Li6MnAlO6
_chemical_formula_sum   'Li24 Mn4 Al4 O24'
_cell_volume   500.63693416
_cell_formula_units_Z   4
loop_
 _symmetry_equiv_pos_site_id
 _symmetry_equiv_pos_as_xyz
  1  'x, y, z'
loop_
 _atom_site_type_symbol
 _atom_site_label
 _atom_site_symmetry_multiplicity
 _atom_site_fract_x
 _atom_site_fract_y
 _atom_site_fract_z
 _atom_site_occupancy
  Li  Li0  1  0.62796450  0.68800050  0.07847700  1
  Li  Li1  1  0.22426500  0.15620000  0.58078100  1
  Li  Li2  1  0.65570850  0.02899950  0.57321000  1
  Li  Li3  1  0.77573500  0.84380000  0.41921900  1
  Li  Li4  1  0.65570850  0.97100050  0.07321000  1
  Li  Li5  1  0.37203550  0.31199950  0.92152300  1
  Li  Li6  1  0.77573500  0.15620000  0.91921900  1
  Li  Li7  1  0.22426500  0.84380000  0.08078100  1
  Li  Li8  1  0.62796450  0.31199950  0.57847700  1
  Li  Li9  1  0.37203550  0.68800050  0.42152300  1
  Li  Li10  1  0.34429150  0.97100050  0.42679000  1
  Li  Li11  1  0.34429150  0.02899950  0.92679000  1
  Li  Li12  1  0.12796450  0.18800050  0.07847700  1
  Li  Li13  1  0.72426500  0.65620000  0.58078100  1
  Li  Li14  1  0.15570850  0.52899950  0.57321000  1
  Li  Li15  1  0.27573500  0.34380000  0.41921900  1
  Li  Li16  1  0.15570850  0.47100050  0.07321000  1
  Li  Li17  1  0.87203550  0.81199950  0.92152300  1
  Li  Li18  1  0.27573500  0.65620000  0.91921900  1
  Li  Li19  1  0.72426500  0.34380000  0.08078100  1
  Li  Li20  1  0.12796450  0.81199950  0.57847700  1
  Li  Li21  1  0.87203550  0.18800050  0.42152300  1
  Li  Li22  1  0.84429150  0.47100050  0.42679000  1
  Li  Li23  1  0.84429150  0.52899950  0.92679000  1
  Mn  Mn24  1  0.50000000  0.49725300  0.25000000  1
  Mn  Mn25  1  0.50000000  0.50274700  0.75000000  1
  Mn  Mn26  1  0.00000000  0.99725300  0.25000000  1
  Mn  Mn27  1  0.00000000  0.00274700  0.75000000  1
  Al  Al28  1  0.50000000  0.83933500  0.75000000  1
  Al  Al29  1  0.50000000  0.16066500  0.25000000  1
  Al  Al30  1  0.00000000  0.33933500  0.75000000  1
  Al  Al31  1  0.00000000  0.66066500  0.25000000  1
  O  O32  1  0.18763350  0.14591650  0.36170600  1
  O  O33  1  0.60893400  0.67263600  0.86683000  1
  O  O34  1  0.65499950  0.02989050  0.37252200  1
  O  O35  1  0.39106600  0.32736400  0.13317000  1
  O  O36  1  0.81236650  0.85408350  0.63829400  1
  O  O37  1  0.65499950  0.97010950  0.87252200  1
  O  O38  1  0.18763350  0.85408350  0.86170600  1
  O  O39  1  0.39106600  0.67263600  0.63317000  1
  O  O40  1  0.60893400  0.32736400  0.36683000  1
  O  O41  1  0.81236650  0.14591650  0.13829400  1
  O  O42  1  0.34500050  0.02989050  0.12747800  1
  O  O43  1  0.34500050  0.97010950  0.62747800  1
  O  O44  1  0.68763350  0.64591650  0.36170600  1
  O  O45  1  0.10893400  0.17263600  0.86683000  1
  O  O46  1  0.15499950  0.52989050  0.37252200  1
  O  O47  1  0.89106600  0.82736400  0.13317000  1
  O  O48  1  0.31236650  0.35408350  0.63829400  1
  O  O49  1  0.15499950  0.47010950  0.87252200  1
  O  O50  1  0.68763350  0.35408350  0.86170600  1
  O  O51  1  0.89106600  0.17263600  0.63317000  1
  O  O52  1  0.10893400  0.82736400  0.36683000  1
  O  O53  1  0.31236650  0.64591650  0.13829400  1
  O  O54  1  0.84500050  0.52989050  0.12747800  1
  O  O55  1  0.84500050  0.47010950  0.62747800  1
