# generated using pymatgen
data_Ti2N2O
_symmetry_space_group_name_H-M   'P 1'
_cell_length_a   8.21402477
_cell_length_b   8.22768951
_cell_length_c   8.23181711
_cell_angle_alpha   109.55984439
_cell_angle_beta   109.42252523
_cell_angle_gamma   109.34800448
_symmetry_Int_Tables_number   1
_chemical_formula_structural   Ti2N2O
_chemical_formula_sum   'Ti16 N16 O8'
_cell_volume   428.69871366
_cell_formula_units_Z   8
loop_
 _symmetry_equiv_pos_site_id
 _symmetry_equiv_pos_as_xyz
  1  'x, y, z'
loop_
 _atom_site_type_symbol
 _atom_site_label
 _atom_site_symmetry_multiplicity
 _atom_site_fract_x
 _atom_site_fract_y
 _atom_site_fract_z
 _atom_site_occupancy
  Ti  Ti0  1  0.98789057  0.99116839  0.51858124  1
  Ti  Ti1  1  0.76335029  0.96893320  0.28700595  1
  Ti  Ti2  1  0.95586686  0.70606094  0.25083591  1
  Ti  Ti3  1  0.54698295  0.78711967  0.75655280  1
  Ti  Ti4  1  0.21429250  0.26760886  0.03294911  1
  Ti  Ti5  1  0.70197701  0.25252843  0.53547504  1
  Ti  Ti6  1  0.51479824  0.50405228  0.48641457  1
  Ti  Ti7  1  0.48887219  0.99341243  0.00888961  1
  Ti  Ti8  1  0.26270488  0.55488648  0.20432311  1
  Ti  Ti9  1  0.99822643  0.50250120  0.98873312  1
  Ti  Ti10  1  0.74339327  0.45568062  0.79892092  1
  Ti  Ti11  1  0.28164587  0.73673506  0.46469088  1
  Ti  Ti12  1  0.79503377  0.74593007  0.96371967  1
  Ti  Ti13  1  0.04522547  0.29349285  0.74662688  1
  Ti  Ti14  1  0.45402491  0.20604704  0.24812436  1
  Ti  Ti15  1  0.23960644  0.03191937  0.70349557  1
  N  N16  1  0.94985293  0.22217342  0.04292127  1
  N  N17  1  0.77323516  0.04950291  0.49003126  1
  N  N18  1  0.53960325  0.76833089  0.00943943  1
  N  N19  1  0.27946364  0.53899948  0.94919037  1
  N  N20  1  0.73464185  0.50733354  0.53943796  1
  N  N21  1  0.26452454  0.48828915  0.45893141  1
  N  N22  1  0.76445188  0.72320972  0.72503205  1
  N  N23  1  0.22582714  0.77715786  0.23215769  1
  N  N24  1  0.72369288  0.45564078  0.05428716  1
  N  N25  1  0.99399449  0.04496817  0.73024276  1
  N  N26  1  0.45713420  0.23123985  0.99344242  1
  N  N27  1  0.04064953  0.54995665  0.72463539  1
  N  N28  1  0.72562573  0.73611232  0.22613721  1
  N  N29  1  0.22613999  0.95186108  0.50844774  1
  N  N30  1  0.51107170  0.27442992  0.45135436  1
  N  N31  1  0.05473013  0.77550065  0.95688050  1
  O  O32  1  0.48843701  0.72789205  0.54761735  1
  O  O33  1  0.27509214  0.27134613  0.77532288  1
  O  O34  1  0.95807412  0.45105959  0.27589429  1
  O  O35  1  0.00770656  0.95621901  0.26888563  1
  O  O36  1  0.77469568  0.22409455  0.76984624  1
  O  O37  1  0.23341095  0.27246299  0.27274392  1
  O  O38  1  0.45497212  0.99799935  0.77662607  1
  O  O39  1  0.54907975  0.00614108  0.22515786  1
