# generated using pymatgen
data_Na2GeH16Se3O8
_symmetry_space_group_name_H-M   'P 1'
_cell_length_a   9.93809100
_cell_length_b   11.88097000
_cell_length_c   12.31170663
_cell_angle_alpha   90.00000000
_cell_angle_beta   92.79915650
_cell_angle_gamma   90.00000000
_symmetry_Int_Tables_number   1
_chemical_formula_structural   Na2GeH16Se3O8
_chemical_formula_sum   'Na8 Ge4 H64 Se12 O32'
_cell_volume   1451.95996543
_cell_formula_units_Z   4
loop_
 _symmetry_equiv_pos_site_id
 _symmetry_equiv_pos_as_xyz
  1  'x, y, z'
loop_
 _atom_site_type_symbol
 _atom_site_label
 _atom_site_symmetry_multiplicity
 _atom_site_fract_x
 _atom_site_fract_y
 _atom_site_fract_z
 _atom_site_occupancy
  Na  Na0  1  0.43388300  0.33917100  0.14711100  1
  Na  Na1  1  0.56611700  0.83917100  0.35288900  1
  Na  Na2  1  0.56611700  0.66082900  0.85288900  1
  Na  Na3  1  0.43388300  0.16082900  0.64711100  1
  Na  Na4  1  0.35652500  0.14929200  0.32096500  1
  Na  Na5  1  0.64347500  0.64929200  0.17903500  1
  Na  Na6  1  0.64347500  0.85070800  0.67903500  1
  Na  Na7  1  0.35652500  0.35070800  0.82096500  1
  Ge  Ge8  1  0.88231400  0.09534200  0.01459700  1
  Ge  Ge9  1  0.11768600  0.59534200  0.48540300  1
  Ge  Ge10  1  0.11768600  0.90465800  0.98540300  1
  Ge  Ge11  1  0.88231400  0.40465800  0.51459700  1
  H  H12  1  0.27327700  0.12731100  0.09347900  1
  H  H13  1  0.72672300  0.62731100  0.40652100  1
  H  H14  1  0.72672300  0.87268900  0.90652100  1
  H  H15  1  0.27327700  0.37268900  0.59347900  1
  H  H16  1  0.16623400  0.22094000  0.11537600  1
  H  H17  1  0.83376600  0.72094000  0.38462400  1
  H  H18  1  0.83376600  0.77906000  0.88462400  1
  H  H19  1  0.16623400  0.27906000  0.61537600  1
  H  H20  1  0.65914000  0.43245000  0.27987300  1
  H  H21  1  0.34086000  0.93245000  0.22012700  1
  H  H22  1  0.34086000  0.56755000  0.72012700  1
  H  H23  1  0.65914000  0.06755000  0.77987300  1
  H  H24  1  0.71887700  0.39704200  0.16814200  1
  H  H25  1  0.28112300  0.89704200  0.33185800  1
  H  H26  1  0.28112300  0.60295800  0.83185800  1
  H  H27  1  0.71887700  0.10295800  0.66814200  1
  H  H28  1  0.59355800  0.10582000  0.46198100  1
  H  H29  1  0.40644200  0.60582000  0.03801900  1
  H  H30  1  0.40644200  0.89418000  0.53801900  1
  H  H31  1  0.59355800  0.39418000  0.96198100  1
  H  H32  1  0.57330200  0.23750000  0.47135700  1
  H  H33  1  0.42669800  0.73750000  0.02864300  1
  H  H34  1  0.42669800  0.76250000  0.52864300  1
  H  H35  1  0.57330200  0.26250000  0.97135700  1
  H  H36  1  0.37888100  0.39893300  0.38773600  1
  H  H37  1  0.62111900  0.89893300  0.11226400  1
  H  H38  1  0.62111900  0.60106700  0.61226400  1
  H  H39  1  0.37888100  0.10106700  0.88773600  1
  H  H40  1  0.24282000  0.37407500  0.32920600  1
  H  H41  1  0.75718000  0.87407500  0.17079400  1
  H  H42  1  0.75718000  0.62592500  0.67079400  1
  H  H43  1  0.24282000  0.12592500  0.82920600  1
  H  H44  1  0.56829800  0.12481800  0.14868900  1
  H  H45  1  0.43170200  0.62481800  0.35131100  1
  H  H46  1  0.43170200  0.87518200  0.85131100  1
  H  H47  1  0.56829800  0.37518200  0.64868900  1
  H  H48  1  0.64100700  0.17582100  0.25212900  1
  H  H49  1  0.35899300  0.67582100  0.24787100  1
  H  H50  1  0.35899300  0.82417900  0.74787100  1
  H  H51  1  0.64100700  0.32417900  0.75212900  1
  H  H52  1  0.08237900  0.16124100  0.42496700  1
  H  H53  1  0.91762100  0.66124100  0.07503300  1
  H  H54  1  0.91762100  0.83875900  0.57503300  1
  H  H55  1  0.08237900  0.33875900  0.92496700  1
  H  H56  1  0.08959600  0.05818000  0.34578600  1
  H  H57  1  0.91040400  0.55818000  0.15421400  1
  H  H58  1  0.91040400  0.94182000  0.65421400  1
  H  H59  1  0.08959600  0.44182000  0.84578600  1
  H  H60  1  0.23862400  0.53402100  0.12689000  1
  H  H61  1  0.76137600  0.03402100  0.37311000  1
  H  H62  1  0.76137600  0.46597900  0.87311000  1
  H  H63  1  0.23862400  0.96597900  0.62689000  1
  H  H64  1  0.22664600  0.46230800  0.01841800  1
  H  H65  1  0.77335400  0.96230800  0.48158200  1
  H  H66  1  0.77335400  0.53769200  0.98158200  1
  H  H67  1  0.22664600  0.03769200  0.51841800  1
  H  H68  1  0.84708400  0.19813600  0.38633100  1
  H  H69  1  0.15291600  0.69813600  0.11366900  1
  H  H70  1  0.15291600  0.80186400  0.61366900  1
  H  H71  1  0.84708400  0.30186400  0.88633100  1
  H  H72  1  0.87024600  0.20106400  0.25817800  1
  H  H73  1  0.12975400  0.70106400  0.24182200  1
  H  H74  1  0.12975400  0.79893600  0.74182200  1
  H  H75  1  0.87024600  0.29893600  0.75817800  1
  Se  Se76  1  0.01862500  0.04404100  0.85956700  1
  Se  Se77  1  0.98137500  0.54404100  0.64043300  1
  Se  Se78  1  0.98137500  0.95595900  0.14043300  1
  Se  Se79  1  0.01862500  0.45595900  0.35956700  1
  Se  Se80  1  0.93397800  0.27883300  0.07226000  1
  Se  Se81  1  0.06602200  0.77883300  0.42774000  1
  Se  Se82  1  0.06602200  0.72116700  0.92774000  1
  Se  Se83  1  0.93397800  0.22116700  0.57226000  1
  Se  Se84  1  0.65332000  0.05839400  0.97174400  1
  Se  Se85  1  0.34668000  0.55839400  0.52825600  1
  Se  Se86  1  0.34668000  0.94160600  0.02825600  1
  Se  Se87  1  0.65332000  0.44160600  0.47174400  1
  O  O88  1  0.26193500  0.20067600  0.12983900  1
  O  O89  1  0.73806500  0.70067600  0.37016100  1
  O  O90  1  0.73806500  0.79932400  0.87016100  1
  O  O91  1  0.26193500  0.29932400  0.62983900  1
  O  O92  1  0.64460700  0.43916800  0.19993900  1
  O  O93  1  0.35539300  0.93916800  0.30006100  1
  O  O94  1  0.35539300  0.56083200  0.80006100  1
  O  O95  1  0.64460700  0.06083200  0.69993900  1
  O  O96  1  0.52491000  0.16498800  0.47151500  1
  O  O97  1  0.47509000  0.66498800  0.02848500  1
  O  O98  1  0.47509000  0.83501200  0.52848500  1
  O  O99  1  0.52491000  0.33501200  0.97151500  1
  O  O100  1  0.33937800  0.35547900  0.32616100  1
  O  O101  1  0.66062200  0.85547900  0.17383900  1
  O  O102  1  0.66062200  0.64452100  0.67383900  1
  O  O103  1  0.33937800  0.14452100  0.82616100  1
  O  O104  1  0.55060600  0.16412100  0.21672900  1
  O  O105  1  0.44939400  0.66412100  0.28327100  1
  O  O106  1  0.44939400  0.83587900  0.78327100  1
  O  O107  1  0.55060600  0.33587900  0.71672900  1
  O  O108  1  0.14541500  0.10728300  0.39367900  1
  O  O109  1  0.85458500  0.60728300  0.10632100  1
  O  O110  1  0.85458500  0.89271700  0.60632100  1
  O  O111  1  0.14541500  0.39271700  0.89367900  1
  O  O112  1  0.29008300  0.48606300  0.07862100  1
  O  O113  1  0.70991700  0.98606300  0.42137900  1
  O  O114  1  0.70991700  0.51393700  0.92137900  1
  O  O115  1  0.29008300  0.01393700  0.57862100  1
  O  O116  1  0.81487500  0.16764200  0.31459800  1
  O  O117  1  0.18512500  0.66764200  0.18540200  1
  O  O118  1  0.18512500  0.83235800  0.68540200  1
  O  O119  1  0.81487500  0.33235800  0.81459800  1
