# generated using pymatgen
data_LiMn(PO3)4
_symmetry_space_group_name_H-M   'P 1'
_cell_length_a   9.57039000
_cell_length_b   11.36349400
_cell_length_c   18.11383600
_cell_angle_alpha   90.00000000
_cell_angle_beta   90.00000000
_cell_angle_gamma   90.00000000
_symmetry_Int_Tables_number   1
_chemical_formula_structural   LiMn(PO3)4
_chemical_formula_sum   'Li8 Mn8 P32 O96'
_cell_volume   1969.93526257
_cell_formula_units_Z   8
loop_
 _symmetry_equiv_pos_site_id
 _symmetry_equiv_pos_as_xyz
  1  'x, y, z'
loop_
 _atom_site_type_symbol
 _atom_site_label
 _atom_site_symmetry_multiplicity
 _atom_site_fract_x
 _atom_site_fract_y
 _atom_site_fract_z
 _atom_site_occupancy
  Li  Li0  1  0.15172600  0.94724800  0.64454400  1
  Li  Li1  1  0.84827400  0.94724800  0.85545600  1
  Li  Li2  1  0.84827400  0.05275200  0.14454400  1
  Li  Li3  1  0.15172600  0.05275200  0.35545600  1
  Li  Li4  1  0.65172600  0.44724800  0.64454400  1
  Li  Li5  1  0.34827400  0.44724800  0.85545600  1
  Li  Li6  1  0.34827400  0.55275200  0.14454400  1
  Li  Li7  1  0.65172600  0.55275200  0.35545600  1
  Mn  Mn8  1  0.77112900  0.19436200  0.88395400  1
  Mn  Mn9  1  0.22887100  0.19436200  0.61604600  1
  Mn  Mn10  1  0.22887100  0.80563800  0.38395400  1
  Mn  Mn11  1  0.77112900  0.80563800  0.11604600  1
  Mn  Mn12  1  0.27112900  0.69436200  0.88395400  1
  Mn  Mn13  1  0.72887100  0.69436200  0.61604600  1
  Mn  Mn14  1  0.72887100  0.30563800  0.38395400  1
  Mn  Mn15  1  0.27112900  0.30563800  0.11604600  1
  P  P16  1  0.40416800  0.36210100  0.34781200  1
  P  P17  1  0.59583200  0.36210100  0.15218800  1
  P  P18  1  0.54305800  0.24465500  0.00845500  1
  P  P19  1  0.45694200  0.24465500  0.49154500  1
  P  P20  1  0.50000000  0.12216500  0.75000000  1
  P  P21  1  0.70998300  0.04975900  0.30885800  1
  P  P22  1  0.29001700  0.04975900  0.19114200  1
  P  P23  1  0.35571400  0.00000000  0.50000000  1
  P  P24  1  0.64428600  0.00000000  0.00000000  1
  P  P25  1  0.29001700  0.95024100  0.80885800  1
  P  P26  1  0.70998300  0.95024100  0.69114200  1
  P  P27  1  0.50000000  0.87783500  0.25000000  1
  P  P28  1  0.54305800  0.75534500  0.99154500  1
  P  P29  1  0.45694200  0.75534500  0.50845500  1
  P  P30  1  0.40416800  0.63789900  0.65218800  1
  P  P31  1  0.59583200  0.63789900  0.84781200  1
  P  P32  1  0.90416800  0.86210100  0.34781200  1
  P  P33  1  0.09583200  0.86210100  0.15218800  1
  P  P34  1  0.04305800  0.74465500  0.00845500  1
  P  P35  1  0.95694200  0.74465500  0.49154500  1
  P  P36  1  0.00000000  0.62216500  0.75000000  1
  P  P37  1  0.20998300  0.54975900  0.30885800  1
  P  P38  1  0.79001700  0.54975900  0.19114200  1
  P  P39  1  0.85571400  0.50000000  0.50000000  1
  P  P40  1  0.14428600  0.50000000  0.00000000  1
  P  P41  1  0.79001700  0.45024100  0.80885800  1
  P  P42  1  0.20998300  0.45024100  0.69114200  1
  P  P43  1  0.00000000  0.37783500  0.25000000  1
  P  P44  1  0.04305800  0.25534500  0.99154500  1
  P  P45  1  0.95694200  0.25534500  0.50845500  1
  P  P46  1  0.90416800  0.13789900  0.65218800  1
  P  P47  1  0.09583200  0.13789900  0.84781200  1
  O  O48  1  0.44094900  0.39833900  0.14427700  1
  O  O49  1  0.55905100  0.39833900  0.35572300  1
  O  O50  1  0.64721100  0.29880800  0.21664700  1
  O  O51  1  0.35278900  0.29880800  0.28335300  1
  O  O52  1  0.39615100  0.28745600  0.00979700  1
  O  O53  1  0.60384900  0.28745600  0.49020300  1
  O  O54  1  0.36594000  0.28966100  0.42349800  1
  O  O55  1  0.63406000  0.28966100  0.07650200  1
  O  O56  1  0.62203650  0.27031250  0.93807700  1
  O  O57  1  0.37796350  0.27031250  0.56192300  1
  O  O58  1  0.60493700  0.18456500  0.79678700  1
  O  O59  1  0.39506300  0.18456500  0.70321300  1
  O  O60  1  0.65874800  0.15533100  0.35368100  1
  O  O61  1  0.34125200  0.15533100  0.14631900  1
  O  O62  1  0.45869550  0.10286550  0.47793500  1
  O  O63  1  0.54130450  0.10286550  0.02206500  1
  O  O64  1  0.82028200  0.01600100  0.63594000  1
  O  O65  1  0.17971800  0.01600100  0.86406000  1
  O  O66  1  0.57548400  0.03325000  0.69094900  1
  O  O67  1  0.42451600  0.03325000  0.80905100  1
  O  O68  1  0.27469600  0.03455800  0.56897100  1
  O  O69  1  0.72530400  0.03455800  0.93102900  1
  O  O70  1  0.22900350  0.06581650  0.26508300  1
  O  O71  1  0.77099650  0.06581650  0.23491700  1
  O  O72  1  0.22900350  0.93418350  0.73491700  1
  O  O73  1  0.77099650  0.93418350  0.76508300  1
  O  O74  1  0.27469600  0.96544200  0.43102900  1
  O  O75  1  0.72530400  0.96544200  0.06897100  1
  O  O76  1  0.42451600  0.96675000  0.19094900  1
  O  O77  1  0.57548400  0.96675000  0.30905100  1
  O  O78  1  0.17971800  0.98399900  0.13594000  1
  O  O79  1  0.82028200  0.98399900  0.36406000  1
  O  O80  1  0.54130450  0.89713450  0.97793500  1
  O  O81  1  0.45869550  0.89713450  0.52206500  1
  O  O82  1  0.34125200  0.84466900  0.85368100  1
  O  O83  1  0.65874800  0.84466900  0.64631900  1
  O  O84  1  0.60493700  0.81543500  0.20321300  1
  O  O85  1  0.39506300  0.81543500  0.29678700  1
  O  O86  1  0.37796350  0.72968750  0.43807700  1
  O  O87  1  0.62203650  0.72968750  0.06192300  1
  O  O88  1  0.36594000  0.71033900  0.57650200  1
  O  O89  1  0.63406000  0.71033900  0.92349800  1
  O  O90  1  0.39615100  0.71254400  0.99020300  1
  O  O91  1  0.60384900  0.71254400  0.50979700  1
  O  O92  1  0.35278900  0.70119200  0.71664700  1
  O  O93  1  0.64721100  0.70119200  0.78335300  1
  O  O94  1  0.55905100  0.60166100  0.64427700  1
  O  O95  1  0.44094900  0.60166100  0.85572300  1
  O  O96  1  0.94094900  0.89833900  0.14427700  1
  O  O97  1  0.05905100  0.89833900  0.35572300  1
  O  O98  1  0.14721100  0.79880800  0.21664700  1
  O  O99  1  0.85278900  0.79880800  0.28335300  1
  O  O100  1  0.89615100  0.78745600  0.00979700  1
  O  O101  1  0.10384900  0.78745600  0.49020300  1
  O  O102  1  0.86594000  0.78966100  0.42349800  1
  O  O103  1  0.13406000  0.78966100  0.07650200  1
  O  O104  1  0.12203650  0.77031250  0.93807700  1
  O  O105  1  0.87796350  0.77031250  0.56192300  1
  O  O106  1  0.10493700  0.68456500  0.79678700  1
  O  O107  1  0.89506300  0.68456500  0.70321300  1
  O  O108  1  0.15874800  0.65533100  0.35368100  1
  O  O109  1  0.84125200  0.65533100  0.14631900  1
  O  O110  1  0.95869550  0.60286550  0.47793500  1
  O  O111  1  0.04130450  0.60286550  0.02206500  1
  O  O112  1  0.32028200  0.51600100  0.63594000  1
  O  O113  1  0.67971800  0.51600100  0.86406000  1
  O  O114  1  0.07548400  0.53325000  0.69094900  1
  O  O115  1  0.92451600  0.53325000  0.80905100  1
  O  O116  1  0.77469600  0.53455800  0.56897100  1
  O  O117  1  0.22530400  0.53455800  0.93102900  1
  O  O118  1  0.72900350  0.56581650  0.26508300  1
  O  O119  1  0.27099650  0.56581650  0.23491700  1
  O  O120  1  0.72900350  0.43418350  0.73491700  1
  O  O121  1  0.27099650  0.43418350  0.76508300  1
  O  O122  1  0.77469600  0.46544200  0.43102900  1
  O  O123  1  0.22530400  0.46544200  0.06897100  1
  O  O124  1  0.92451600  0.46675000  0.19094900  1
  O  O125  1  0.07548400  0.46675000  0.30905100  1
  O  O126  1  0.67971800  0.48399900  0.13594000  1
  O  O127  1  0.32028200  0.48399900  0.36406000  1
  O  O128  1  0.04130450  0.39713450  0.97793500  1
  O  O129  1  0.95869550  0.39713450  0.52206500  1
  O  O130  1  0.84125200  0.34466900  0.85368100  1
  O  O131  1  0.15874800  0.34466900  0.64631900  1
  O  O132  1  0.10493700  0.31543500  0.20321300  1
  O  O133  1  0.89506300  0.31543500  0.29678700  1
  O  O134  1  0.87796350  0.22968750  0.43807700  1
  O  O135  1  0.12203650  0.22968750  0.06192300  1
  O  O136  1  0.86594000  0.21033900  0.57650200  1
  O  O137  1  0.13406000  0.21033900  0.92349800  1
  O  O138  1  0.89615100  0.21254400  0.99020300  1
  O  O139  1  0.10384900  0.21254400  0.50979700  1
  O  O140  1  0.85278900  0.20119200  0.71664700  1
  O  O141  1  0.14721100  0.20119200  0.78335300  1
  O  O142  1  0.05905100  0.10166100  0.64427700  1
  O  O143  1  0.94094900  0.10166100  0.85572300  1
