# generated using pymatgen
data_Li2AgF4
_symmetry_space_group_name_H-M   'P 1'
_cell_length_a   11.30599800
_cell_length_b   5.99592400
_cell_length_c   5.13667401
_cell_angle_alpha   90.00000000
_cell_angle_beta   106.42976795
_cell_angle_gamma   90.00000000
_symmetry_Int_Tables_number   1
_chemical_formula_structural   Li2AgF4
_chemical_formula_sum   'Li8 Ag4 F16'
_cell_volume   333.99604763
_cell_formula_units_Z   4
loop_
 _symmetry_equiv_pos_site_id
 _symmetry_equiv_pos_as_xyz
  1  'x, y, z'
loop_
 _atom_site_type_symbol
 _atom_site_label
 _atom_site_symmetry_multiplicity
 _atom_site_fract_x
 _atom_site_fract_y
 _atom_site_fract_z
 _atom_site_occupancy
  Li  Li0  1  0.00000000  0.12736800  0.25000000  1
  Li  Li1  1  0.00000000  0.61768200  0.25000000  1
  Li  Li2  1  0.00000000  0.38231800  0.75000000  1
  Li  Li3  1  0.00000000  0.87263200  0.75000000  1
  Li  Li4  1  0.50000000  0.62736800  0.25000000  1
  Li  Li5  1  0.50000000  0.11768200  0.25000000  1
  Li  Li6  1  0.50000000  0.88231800  0.75000000  1
  Li  Li7  1  0.50000000  0.37263200  0.75000000  1
  Ag  Ag8  1  0.25000000  0.75000000  0.50000000  1
  Ag  Ag9  1  0.25000000  0.25000000  0.00000000  1
  Ag  Ag10  1  0.75000000  0.25000000  0.50000000  1
  Ag  Ag11  1  0.75000000  0.75000000  0.00000000  1
  F  F12  1  0.39251550  0.37518750  0.33159100  1
  F  F13  1  0.39755200  0.87214700  0.36054700  1
  F  F14  1  0.10244800  0.62785300  0.63945300  1
  F  F15  1  0.39251550  0.62481250  0.83159100  1
  F  F16  1  0.10748450  0.12481250  0.66840900  1
  F  F17  1  0.39755200  0.12785300  0.86054700  1
  F  F18  1  0.10244800  0.37214700  0.13945300  1
  F  F19  1  0.10748450  0.87518750  0.16840900  1
  F  F20  1  0.89251550  0.87518750  0.33159100  1
  F  F21  1  0.89755200  0.37214700  0.36054700  1
  F  F22  1  0.60244800  0.12785300  0.63945300  1
  F  F23  1  0.89251550  0.12481250  0.83159100  1
  F  F24  1  0.60748450  0.62481250  0.66840900  1
  F  F25  1  0.89755200  0.62785300  0.86054700  1
  F  F26  1  0.60244800  0.87214700  0.13945300  1
  F  F27  1  0.60748450  0.37518750  0.16840900  1
