# generated using pymatgen
data_Na2B4H20O17
_symmetry_space_group_name_H-M   'P 1'
_cell_length_a   11.93471600
_cell_length_b   10.69148600
_cell_length_c   12.24834275
_cell_angle_alpha   90.00000000
_cell_angle_beta   106.63615394
_cell_angle_gamma   90.00000000
_symmetry_Int_Tables_number   1
_chemical_formula_structural   Na2B4H20O17
_chemical_formula_sum   'Na8 B16 H80 O68'
_cell_volume   1497.46755104
_cell_formula_units_Z   4
loop_
 _symmetry_equiv_pos_site_id
 _symmetry_equiv_pos_as_xyz
  1  'x, y, z'
loop_
 _atom_site_type_symbol
 _atom_site_label
 _atom_site_symmetry_multiplicity
 _atom_site_fract_x
 _atom_site_fract_y
 _atom_site_fract_z
 _atom_site_occupancy
  Na  Na0  1  0.00000000  0.00000000  0.50000000  1
  Na  Na1  1  0.00000000  0.00000000  0.00000000  1
  Na  Na2  1  0.00000000  0.15299200  0.75000000  1
  Na  Na3  1  0.00000000  0.84700800  0.25000000  1
  Na  Na4  1  0.50000000  0.50000000  0.50000000  1
  Na  Na5  1  0.50000000  0.50000000  0.00000000  1
  Na  Na6  1  0.50000000  0.65299200  0.75000000  1
  Na  Na7  1  0.50000000  0.34700800  0.25000000  1
  B  B8  1  0.08551400  0.65500700  0.71501000  1
  B  B9  1  0.91448600  0.65500700  0.78499000  1
  B  B10  1  0.91448600  0.34499300  0.28499000  1
  B  B11  1  0.08551400  0.34499300  0.21501000  1
  B  B12  1  0.09823600  0.54327400  0.89202200  1
  B  B13  1  0.90176400  0.54327400  0.60797800  1
  B  B14  1  0.90176400  0.45672600  0.10797800  1
  B  B15  1  0.09823600  0.45672600  0.39202200  1
  B  B16  1  0.58551400  0.15500700  0.71501000  1
  B  B17  1  0.41448600  0.15500700  0.78499000  1
  B  B18  1  0.41448600  0.84499300  0.28499000  1
  B  B19  1  0.58551400  0.84499300  0.21501000  1
  B  B20  1  0.59823600  0.04327400  0.89202200  1
  B  B21  1  0.40176400  0.04327400  0.60797800  1
  B  B22  1  0.40176400  0.95672600  0.10797800  1
  B  B23  1  0.59823600  0.95672600  0.39202200  1
  H  H24  1  0.76027750  0.74083550  0.77994700  1
  H  H25  1  0.23972250  0.74083550  0.72005300  1
  H  H26  1  0.23972250  0.25916450  0.22005300  1
  H  H27  1  0.76027750  0.25916450  0.27994700  1
  H  H28  1  0.11229450  0.54123850  0.53842400  1
  H  H29  1  0.88770550  0.54123850  0.96157600  1
  H  H30  1  0.88770550  0.45876150  0.46157600  1
  H  H31  1  0.11229450  0.45876150  0.03842400  1
  H  H32  1  0.29935250  0.61347650  0.53655600  1
  H  H33  1  0.70064750  0.61347650  0.96344400  1
  H  H34  1  0.70064750  0.38652350  0.46344400  1
  H  H35  1  0.29935250  0.38652350  0.03655600  1
  H  H36  1  0.86617600  0.78844400  0.98646800  1
  H  H37  1  0.13382400  0.78844400  0.51353200  1
  H  H38  1  0.13382400  0.21155600  0.01353200  1
  H  H39  1  0.86617600  0.21155600  0.48646800  1
  H  H40  1  0.29772200  0.52502800  0.80655800  1
  H  H41  1  0.70227800  0.52502800  0.69344200  1
  H  H42  1  0.70227800  0.47497200  0.19344200  1
  H  H43  1  0.29772200  0.47497200  0.30655800  1
  H  H44  1  0.62747800  0.40779800  0.70195800  1
  H  H45  1  0.37252200  0.40779800  0.79804200  1
  H  H46  1  0.37252200  0.59220200  0.29804200  1
  H  H47  1  0.62747800  0.59220200  0.20195800  1
  H  H48  1  0.91661500  0.80381500  0.61675100  1
  H  H49  1  0.08338500  0.80381500  0.88324900  1
  H  H50  1  0.08338500  0.19618500  0.38324900  1
  H  H51  1  0.91661500  0.19618500  0.11675100  1
  H  H52  1  0.30535150  0.37156350  0.53625100  1
  H  H53  1  0.69464850  0.37156350  0.96374900  1
  H  H54  1  0.69464850  0.62843650  0.46374900  1
  H  H55  1  0.30535150  0.62843650  0.03625100  1
  H  H56  1  0.90069850  0.38364950  0.83621500  1
  H  H57  1  0.09930150  0.38364950  0.66378500  1
  H  H58  1  0.09930150  0.61635050  0.16378500  1
  H  H59  1  0.90069850  0.61635050  0.33621500  1
  H  H60  1  0.11533600  0.26339900  0.59590000  1
  H  H61  1  0.88466400  0.26339900  0.90410000  1
  H  H62  1  0.88466400  0.73660100  0.40410000  1
  H  H63  1  0.11533600  0.73660100  0.09590000  1
  H  H64  1  0.26027750  0.24083550  0.77994700  1
  H  H65  1  0.73972250  0.24083550  0.72005300  1
  H  H66  1  0.73972250  0.75916450  0.22005300  1
  H  H67  1  0.26027750  0.75916450  0.27994700  1
  H  H68  1  0.61229450  0.04123850  0.53842400  1
  H  H69  1  0.38770550  0.04123850  0.96157600  1
  H  H70  1  0.38770550  0.95876150  0.46157600  1
  H  H71  1  0.61229450  0.95876150  0.03842400  1
  H  H72  1  0.79935250  0.11347650  0.53655600  1
  H  H73  1  0.20064750  0.11347650  0.96344400  1
  H  H74  1  0.20064750  0.88652350  0.46344400  1
  H  H75  1  0.79935250  0.88652350  0.03655600  1
  H  H76  1  0.36617600  0.28844400  0.98646800  1
  H  H77  1  0.63382400  0.28844400  0.51353200  1
  H  H78  1  0.63382400  0.71155600  0.01353200  1
  H  H79  1  0.36617600  0.71155600  0.48646800  1
  H  H80  1  0.79772200  0.02502800  0.80655800  1
  H  H81  1  0.20227800  0.02502800  0.69344200  1
  H  H82  1  0.20227800  0.97497200  0.19344200  1
  H  H83  1  0.79772200  0.97497200  0.30655800  1
  H  H84  1  0.12747800  0.90779800  0.70195800  1
  H  H85  1  0.87252200  0.90779800  0.79804200  1
  H  H86  1  0.87252200  0.09220200  0.29804200  1
  H  H87  1  0.12747800  0.09220200  0.20195800  1
  H  H88  1  0.41661500  0.30381500  0.61675100  1
  H  H89  1  0.58338500  0.30381500  0.88324900  1
  H  H90  1  0.58338500  0.69618500  0.38324900  1
  H  H91  1  0.41661500  0.69618500  0.11675100  1
  H  H92  1  0.80535150  0.87156350  0.53625100  1
  H  H93  1  0.19464850  0.87156350  0.96374900  1
  H  H94  1  0.19464850  0.12843650  0.46374900  1
  H  H95  1  0.80535150  0.12843650  0.03625100  1
  H  H96  1  0.40069850  0.88364950  0.83621500  1
  H  H97  1  0.59930150  0.88364950  0.66378500  1
  H  H98  1  0.59930150  0.11635050  0.16378500  1
  H  H99  1  0.40069850  0.11635050  0.33621500  1
  H  H100  1  0.61533600  0.76339900  0.59590000  1
  H  H101  1  0.38466400  0.76339900  0.90410000  1
  H  H102  1  0.38466400  0.23660100  0.40410000  1
  H  H103  1  0.61533600  0.23660100  0.09590000  1
  O  O104  1  0.00000000  0.73338900  0.75000000  1
  O  O105  1  0.00000000  0.26661100  0.25000000  1
  O  O106  1  0.15506850  0.58035050  0.81465900  1
  O  O107  1  0.84493150  0.58035050  0.68534100  1
  O  O108  1  0.84493150  0.41964950  0.18534100  1
  O  O109  1  0.15506850  0.41964950  0.31465900  1
  O  O110  1  0.01975700  0.56469500  0.62388700  1
  O  O111  1  0.98024300  0.56469500  0.87611300  1
  O  O112  1  0.98024300  0.43530500  0.37611300  1
  O  O113  1  0.01975700  0.43530500  0.12388700  1
  O  O114  1  0.16110000  0.72969700  0.66705800  1
  O  O115  1  0.83890000  0.72969700  0.83294200  1
  O  O116  1  0.83890000  0.27030300  0.33294200  1
  O  O117  1  0.16110000  0.27030300  0.16705800  1
  O  O118  1  0.16300200  0.48345300  0.99001400  1
  O  O119  1  0.83699800  0.48345300  0.50998600  1
  O  O120  1  0.83699800  0.51654700  0.00998600  1
  O  O121  1  0.16300200  0.51654700  0.49001400  1
  O  O122  1  0.12344200  0.15374100  0.94864000  1
  O  O123  1  0.87655800  0.15374100  0.55136000  1
  O  O124  1  0.87655800  0.84625900  0.05136000  1
  O  O125  1  0.12344200  0.84625900  0.44864000  1
  O  O126  1  0.62319300  0.49955600  0.69571100  1
  O  O127  1  0.37680700  0.49955600  0.80428900  1
  O  O128  1  0.37680700  0.50044400  0.30428900  1
  O  O129  1  0.62319300  0.50044400  0.19571100  1
  O  O130  1  0.11909150  0.83475650  0.96232000  1
  O  O131  1  0.88090850  0.83475650  0.53768000  1
  O  O132  1  0.88090850  0.16524350  0.03768000  1
  O  O133  1  0.11909150  0.16524350  0.46232000  1
  O  O134  1  0.11762650  0.29407450  0.67243400  1
  O  O135  1  0.88237350  0.29407450  0.82756600  1
  O  O136  1  0.88237350  0.70592550  0.32756600  1
  O  O137  1  0.11762650  0.70592550  0.17243400  1
  O  O138  1  0.50000000  0.23338900  0.75000000  1
  O  O139  1  0.50000000  0.76661100  0.25000000  1
  O  O140  1  0.65506850  0.08035050  0.81465900  1
  O  O141  1  0.34493150  0.08035050  0.68534100  1
  O  O142  1  0.34493150  0.91964950  0.18534100  1
  O  O143  1  0.65506850  0.91964950  0.31465900  1
  O  O144  1  0.51975700  0.06469500  0.62388700  1
  O  O145  1  0.48024300  0.06469500  0.87611300  1
  O  O146  1  0.48024300  0.93530500  0.37611300  1
  O  O147  1  0.51975700  0.93530500  0.12388700  1
  O  O148  1  0.66110000  0.22969700  0.66705800  1
  O  O149  1  0.33890000  0.22969700  0.83294200  1
  O  O150  1  0.33890000  0.77030300  0.33294200  1
  O  O151  1  0.66110000  0.77030300  0.16705800  1
  O  O152  1  0.66300200  0.98345300  0.99001400  1
  O  O153  1  0.33699800  0.98345300  0.50998600  1
  O  O154  1  0.33699800  0.01654700  0.00998600  1
  O  O155  1  0.66300200  0.01654700  0.49001400  1
  O  O156  1  0.62344200  0.65374100  0.94864000  1
  O  O157  1  0.37655800  0.65374100  0.55136000  1
  O  O158  1  0.37655800  0.34625900  0.05136000  1
  O  O159  1  0.62344200  0.34625900  0.44864000  1
  O  O160  1  0.12319300  0.99955600  0.69571100  1
  O  O161  1  0.87680700  0.99955600  0.80428900  1
  O  O162  1  0.87680700  0.00044400  0.30428900  1
  O  O163  1  0.12319300  0.00044400  0.19571100  1
  O  O164  1  0.61909150  0.33475650  0.96232000  1
  O  O165  1  0.38090850  0.33475650  0.53768000  1
  O  O166  1  0.38090850  0.66524350  0.03768000  1
  O  O167  1  0.61909150  0.66524350  0.46232000  1
  O  O168  1  0.61762650  0.79407450  0.67243400  1
  O  O169  1  0.38237350  0.79407450  0.82756600  1
  O  O170  1  0.38237350  0.20592550  0.32756600  1
  O  O171  1  0.61762650  0.20592550  0.17243400  1
