# generated using pymatgen
data_SrSc2O4
_symmetry_space_group_name_H-M   'P 1'
_cell_length_a   9.33071000
_cell_length_b   9.33071000
_cell_length_c   9.33071000
_cell_angle_alpha   90.00000000
_cell_angle_beta   90.00000000
_cell_angle_gamma   90.00000000
_symmetry_Int_Tables_number   1
_chemical_formula_structural   SrSc2O4
_chemical_formula_sum   'Sr8 Sc16 O32'
_cell_volume   812.35166527
_cell_formula_units_Z   8
loop_
 _symmetry_equiv_pos_site_id
 _symmetry_equiv_pos_as_xyz
  1  'x, y, z'
loop_
 _atom_site_type_symbol
 _atom_site_label
 _atom_site_symmetry_multiplicity
 _atom_site_fract_x
 _atom_site_fract_y
 _atom_site_fract_z
 _atom_site_occupancy
  Sr  Sr0  1  0.50000000  0.00000000  0.50000000  1
  Sr  Sr1  1  0.25000000  0.25000000  0.25000000  1
  Sr  Sr2  1  0.50000000  0.50000000  0.00000000  1
  Sr  Sr3  1  0.25000000  0.75000000  0.75000000  1
  Sr  Sr4  1  0.00000000  0.00000000  0.00000000  1
  Sr  Sr5  1  0.75000000  0.25000000  0.75000000  1
  Sr  Sr6  1  0.00000000  0.50000000  0.50000000  1
  Sr  Sr7  1  0.75000000  0.75000000  0.25000000  1
  Sc  Sc8  1  0.12500000  0.87500000  0.37500000  1
  Sc  Sc9  1  0.12500000  0.62500000  0.12500000  1
  Sc  Sc10  1  0.37500000  0.87500000  0.12500000  1
  Sc  Sc11  1  0.37500000  0.62500000  0.37500000  1
  Sc  Sc12  1  0.12500000  0.37500000  0.87500000  1
  Sc  Sc13  1  0.12500000  0.12500000  0.62500000  1
  Sc  Sc14  1  0.37500000  0.37500000  0.62500000  1
  Sc  Sc15  1  0.37500000  0.12500000  0.87500000  1
  Sc  Sc16  1  0.62500000  0.87500000  0.87500000  1
  Sc  Sc17  1  0.62500000  0.62500000  0.62500000  1
  Sc  Sc18  1  0.87500000  0.87500000  0.62500000  1
  Sc  Sc19  1  0.87500000  0.62500000  0.87500000  1
  Sc  Sc20  1  0.62500000  0.37500000  0.37500000  1
  Sc  Sc21  1  0.62500000  0.12500000  0.12500000  1
  Sc  Sc22  1  0.87500000  0.37500000  0.12500000  1
  Sc  Sc23  1  0.87500000  0.12500000  0.37500000  1
  O  O24  1  0.39490100  0.39490100  0.39490100  1
  O  O25  1  0.85509900  0.14490100  0.14490100  1
  O  O26  1  0.14490100  0.85509900  0.14490100  1
  O  O27  1  0.64490100  0.14490100  0.35509900  1
  O  O28  1  0.10509900  0.10509900  0.39490100  1
  O  O29  1  0.10509900  0.39490100  0.10509900  1
  O  O30  1  0.39490100  0.10509900  0.10509900  1
  O  O31  1  0.35509900  0.85509900  0.35509900  1
  O  O32  1  0.39490100  0.89490100  0.89490100  1
  O  O33  1  0.85509900  0.64490100  0.64490100  1
  O  O34  1  0.14490100  0.35509900  0.64490100  1
  O  O35  1  0.64490100  0.64490100  0.85509900  1
  O  O36  1  0.10509900  0.60509900  0.89490100  1
  O  O37  1  0.10509900  0.89490100  0.60509900  1
  O  O38  1  0.39490100  0.60509900  0.60509900  1
  O  O39  1  0.35509900  0.35509900  0.85509900  1
  O  O40  1  0.89490100  0.39490100  0.89490100  1
  O  O41  1  0.35509900  0.14490100  0.64490100  1
  O  O42  1  0.64490100  0.85509900  0.64490100  1
  O  O43  1  0.14490100  0.14490100  0.85509900  1
  O  O44  1  0.60509900  0.10509900  0.89490100  1
  O  O45  1  0.60509900  0.39490100  0.60509900  1
  O  O46  1  0.89490100  0.10509900  0.60509900  1
  O  O47  1  0.85509900  0.85509900  0.85509900  1
  O  O48  1  0.89490100  0.89490100  0.39490100  1
  O  O49  1  0.35509900  0.64490100  0.14490100  1
  O  O50  1  0.64490100  0.35509900  0.14490100  1
  O  O51  1  0.14490100  0.64490100  0.35509900  1
  O  O52  1  0.60509900  0.60509900  0.39490100  1
  O  O53  1  0.60509900  0.89490100  0.10509900  1
  O  O54  1  0.89490100  0.60509900  0.10509900  1
  O  O55  1  0.85509900  0.35509900  0.35509900  1
