# generated using pymatgen
data_NaH5CO4
_symmetry_space_group_name_H-M   'P 1'
_cell_length_a   7.16213400
_cell_length_b   14.64054000
_cell_length_c   8.82243600
_cell_angle_alpha   90.00000000
_cell_angle_beta   90.00000000
_cell_angle_gamma   90.00000000
_symmetry_Int_Tables_number   1
_chemical_formula_structural   NaH5CO4
_chemical_formula_sum   'Na8 H40 C8 O32'
_cell_volume   925.09866503
_cell_formula_units_Z   8
loop_
 _symmetry_equiv_pos_site_id
 _symmetry_equiv_pos_as_xyz
  1  'x, y, z'
loop_
 _atom_site_type_symbol
 _atom_site_label
 _atom_site_symmetry_multiplicity
 _atom_site_fract_x
 _atom_site_fract_y
 _atom_site_fract_z
 _atom_site_occupancy
  Na  Na0  1  0.25810900  0.50000000  0.00000000  1
  Na  Na1  1  0.75810900  0.50000000  0.50000000  1
  Na  Na2  1  0.74189100  0.50000000  0.00000000  1
  Na  Na3  1  0.24189100  0.50000000  0.50000000  1
  Na  Na4  1  0.75810900  0.00000000  0.00000000  1
  Na  Na5  1  0.25810900  0.00000000  0.50000000  1
  Na  Na6  1  0.24189100  0.00000000  0.00000000  1
  Na  Na7  1  0.74189100  0.00000000  0.50000000  1
  H  H8  1  0.16011550  0.86835750  0.70077700  1
  H  H9  1  0.66011550  0.63164250  0.29922300  1
  H  H10  1  0.16011550  0.63164250  0.20077700  1
  H  H11  1  0.66011550  0.86835750  0.79922300  1
  H  H12  1  0.33988450  0.63164250  0.29922300  1
  H  H13  1  0.83988450  0.86835750  0.70077700  1
  H  H14  1  0.33988450  0.86835750  0.79922300  1
  H  H15  1  0.83988450  0.63164250  0.20077700  1
  H  H16  1  0.00000000  0.91522600  0.21496500  1
  H  H17  1  0.50000000  0.58477400  0.78503500  1
  H  H18  1  0.00000000  0.58477400  0.71496500  1
  H  H19  1  0.50000000  0.91522600  0.28503500  1
  H  H20  1  0.00000000  0.83953200  0.09120700  1
  H  H21  1  0.50000000  0.66046800  0.90879300  1
  H  H22  1  0.00000000  0.66046800  0.59120700  1
  H  H23  1  0.50000000  0.83953200  0.40879300  1
  H  H24  1  0.50000000  0.73001700  0.63608500  1
  H  H25  1  0.00000000  0.76998300  0.36391500  1
  H  H26  1  0.50000000  0.76998300  0.13608500  1
  H  H27  1  0.00000000  0.73001700  0.86391500  1
  H  H28  1  0.66011550  0.36835750  0.70077700  1
  H  H29  1  0.16011550  0.13164250  0.29922300  1
  H  H30  1  0.66011550  0.13164250  0.20077700  1
  H  H31  1  0.16011550  0.36835750  0.79922300  1
  H  H32  1  0.83988450  0.13164250  0.29922300  1
  H  H33  1  0.33988450  0.36835750  0.70077700  1
  H  H34  1  0.83988450  0.36835750  0.79922300  1
  H  H35  1  0.33988450  0.13164250  0.20077700  1
  H  H36  1  0.50000000  0.41522600  0.21496500  1
  H  H37  1  0.00000000  0.08477400  0.78503500  1
  H  H38  1  0.50000000  0.08477400  0.71496500  1
  H  H39  1  0.00000000  0.41522600  0.28503500  1
  H  H40  1  0.50000000  0.33953200  0.09120700  1
  H  H41  1  0.00000000  0.16046800  0.90879300  1
  H  H42  1  0.50000000  0.16046800  0.59120700  1
  H  H43  1  0.00000000  0.33953200  0.40879300  1
  H  H44  1  0.00000000  0.23001700  0.63608500  1
  H  H45  1  0.50000000  0.26998300  0.36391500  1
  H  H46  1  0.00000000  0.26998300  0.13608500  1
  H  H47  1  0.50000000  0.23001700  0.86391500  1
  C  C48  1  0.00000000  0.81893500  0.45998300  1
  C  C49  1  0.50000000  0.68106500  0.54001700  1
  C  C50  1  0.00000000  0.68106500  0.95998300  1
  C  C51  1  0.50000000  0.81893500  0.04001700  1
  C  C52  1  0.50000000  0.31893500  0.45998300  1
  C  C53  1  0.00000000  0.18106500  0.54001700  1
  C  C54  1  0.50000000  0.18106500  0.95998300  1
  C  C55  1  0.00000000  0.31893500  0.04001700  1
  O  O56  1  0.50000000  0.59691500  0.57190200  1
  O  O57  1  0.00000000  0.90308500  0.42809800  1
  O  O58  1  0.50000000  0.90308500  0.07190200  1
  O  O59  1  0.00000000  0.59691500  0.92809800  1
  O  O60  1  0.50000000  0.71401500  0.40593100  1
  O  O61  1  0.00000000  0.78598500  0.59406900  1
  O  O62  1  0.50000000  0.78598500  0.90593100  1
  O  O63  1  0.00000000  0.71401500  0.09406900  1
  O  O64  1  0.00000000  0.90674700  0.10353300  1
  O  O65  1  0.50000000  0.59325300  0.89646700  1
  O  O66  1  0.00000000  0.59325300  0.60353300  1
  O  O67  1  0.50000000  0.90674700  0.39646700  1
  O  O68  1  0.75000000  0.90994300  0.75000000  1
  O  O69  1  0.25000000  0.59005700  0.25000000  1
  O  O70  1  0.75000000  0.59005700  0.25000000  1
  O  O71  1  0.25000000  0.90994300  0.75000000  1
  O  O72  1  0.00000000  0.09691500  0.57190200  1
  O  O73  1  0.50000000  0.40308500  0.42809800  1
  O  O74  1  0.00000000  0.40308500  0.07190200  1
  O  O75  1  0.50000000  0.09691500  0.92809800  1
  O  O76  1  0.00000000  0.21401500  0.40593100  1
  O  O77  1  0.50000000  0.28598500  0.59406900  1
  O  O78  1  0.00000000  0.28598500  0.90593100  1
  O  O79  1  0.50000000  0.21401500  0.09406900  1
  O  O80  1  0.50000000  0.40674700  0.10353300  1
  O  O81  1  0.00000000  0.09325300  0.89646700  1
  O  O82  1  0.50000000  0.09325300  0.60353300  1
  O  O83  1  0.00000000  0.40674700  0.39646700  1
  O  O84  1  0.25000000  0.40994300  0.75000000  1
  O  O85  1  0.75000000  0.09005700  0.25000000  1
  O  O86  1  0.25000000  0.09005700  0.25000000  1
  O  O87  1  0.75000000  0.40994300  0.75000000  1
