# generated using pymatgen
data_Tl2Mo7O22
_symmetry_space_group_name_H-M   'P 1'
_cell_length_a   21.00588200
_cell_length_b   5.65398600
_cell_length_c   19.02044244
_cell_angle_alpha   90.00000000
_cell_angle_beta   120.77080968
_cell_angle_gamma   90.00000000
_symmetry_Int_Tables_number   1
_chemical_formula_structural   Tl2Mo7O22
_chemical_formula_sum   'Tl8 Mo28 O88'
_cell_volume   1940.97961178
_cell_formula_units_Z   4
loop_
 _symmetry_equiv_pos_site_id
 _symmetry_equiv_pos_as_xyz
  1  'x, y, z'
loop_
 _atom_site_type_symbol
 _atom_site_label
 _atom_site_symmetry_multiplicity
 _atom_site_fract_x
 _atom_site_fract_y
 _atom_site_fract_z
 _atom_site_occupancy
  Tl  Tl0  1  0.14451200  0.29199700  0.66719000  1
  Tl  Tl1  1  0.85548800  0.70800300  0.33281000  1
  Tl  Tl2  1  0.35548800  0.79199700  0.83281000  1
  Tl  Tl3  1  0.64451200  0.20800300  0.16719000  1
  Tl  Tl4  1  0.64451200  0.79199700  0.66719000  1
  Tl  Tl5  1  0.35548800  0.20800300  0.33281000  1
  Tl  Tl6  1  0.85548800  0.29199700  0.83281000  1
  Tl  Tl7  1  0.14451200  0.70800300  0.16719000  1
  Mo  Mo8  1  0.96829150  0.24870350  0.09271500  1
  Mo  Mo9  1  0.16619250  0.14100650  0.36237900  1
  Mo  Mo10  1  0.00000000  0.38931600  0.75000000  1
  Mo  Mo11  1  0.00000000  0.61068400  0.25000000  1
  Mo  Mo12  1  0.31631550  0.30628950  0.97437500  1
  Mo  Mo13  1  0.03170850  0.24870350  0.40728500  1
  Mo  Mo14  1  0.68368450  0.69371050  0.02562500  1
  Mo  Mo15  1  0.81631550  0.19371050  0.47437500  1
  Mo  Mo16  1  0.18368450  0.80628950  0.52562500  1
  Mo  Mo17  1  0.16619250  0.85899350  0.86237900  1
  Mo  Mo18  1  0.83380750  0.85899350  0.63762100  1
  Mo  Mo19  1  0.03170850  0.75129650  0.90728500  1
  Mo  Mo20  1  0.83380750  0.14100650  0.13762100  1
  Mo  Mo21  1  0.96829150  0.75129650  0.59271500  1
  Mo  Mo22  1  0.46829150  0.74870350  0.09271500  1
  Mo  Mo23  1  0.66619250  0.64100650  0.36237900  1
  Mo  Mo24  1  0.50000000  0.88931600  0.75000000  1
  Mo  Mo25  1  0.50000000  0.11068400  0.25000000  1
  Mo  Mo26  1  0.81631550  0.80628950  0.97437500  1
  Mo  Mo27  1  0.53170850  0.74870350  0.40728500  1
  Mo  Mo28  1  0.18368450  0.19371050  0.02562500  1
  Mo  Mo29  1  0.31631550  0.69371050  0.47437500  1
  Mo  Mo30  1  0.68368450  0.30628950  0.52562500  1
  Mo  Mo31  1  0.66619250  0.35899350  0.86237900  1
  Mo  Mo32  1  0.33380750  0.35899350  0.63762100  1
  Mo  Mo33  1  0.53170850  0.25129650  0.90728500  1
  Mo  Mo34  1  0.33380750  0.64100650  0.13762100  1
  Mo  Mo35  1  0.46829150  0.25129650  0.59271500  1
  O  O36  1  0.87244250  0.92993050  0.54542000  1
  O  O37  1  0.12755750  0.07006950  0.45458000  1
  O  O38  1  0.17961950  0.90726650  0.78090500  1
  O  O39  1  0.03122900  0.97619900  0.64088400  1
  O  O40  1  0.82038050  0.09273350  0.21909500  1
  O  O41  1  0.07551800  0.29686600  0.32102500  1
  O  O42  1  0.32412550  0.33912150  0.88862500  1
  O  O43  1  0.07588450  0.19835250  0.80237300  1
  O  O44  1  0.27035500  0.12989600  0.58420100  1
  O  O45  1  0.92411550  0.80164750  0.19762700  1
  O  O46  1  0.97081750  0.28490150  0.00373700  1
  O  O47  1  0.97081750  0.71509850  0.50373700  1
  O  O48  1  0.03122900  0.02380100  0.14088400  1
  O  O49  1  0.92448200  0.70313400  0.67897500  1
  O  O50  1  0.87676300  0.42591200  0.52654900  1
  O  O51  1  0.87244250  0.07006950  0.04542000  1
  O  O52  1  0.07588450  0.80164750  0.30237300  1
  O  O53  1  0.77035500  0.37010400  0.08420100  1
  O  O54  1  0.77729150  0.86396750  0.06677700  1
  O  O55  1  0.67587450  0.66087850  0.11137500  1
  O  O56  1  0.72270850  0.36396750  0.43322300  1
  O  O57  1  0.02177100  0.48823500  0.66542600  1
  O  O58  1  0.12323700  0.42591200  0.97345100  1
  O  O59  1  0.97822900  0.48823500  0.83457400  1
  O  O60  1  0.07551800  0.70313400  0.82102500  1
  O  O61  1  0.92411550  0.19835250  0.69762700  1
  O  O62  1  0.12323700  0.57408800  0.47345100  1
  O  O63  1  0.02177100  0.51176500  0.16542600  1
  O  O64  1  0.27729150  0.63603250  0.56677700  1
  O  O65  1  0.67961950  0.59273350  0.28090500  1
  O  O66  1  0.97822900  0.51176500  0.33457400  1
  O  O67  1  0.96877100  0.97619900  0.85911600  1
  O  O68  1  0.02918250  0.28490150  0.49626300  1
  O  O69  1  0.12755750  0.92993050  0.95458000  1
  O  O70  1  0.72964500  0.87010400  0.41579900  1
  O  O71  1  0.32038050  0.40726650  0.71909500  1
  O  O72  1  0.17587450  0.83912150  0.61137500  1
  O  O73  1  0.02918250  0.71509850  0.99626300  1
  O  O74  1  0.96877100  0.02380100  0.35911600  1
  O  O75  1  0.87676300  0.57408800  0.02654900  1
  O  O76  1  0.82412550  0.16087850  0.38862500  1
  O  O77  1  0.92448200  0.29686600  0.17897500  1
  O  O78  1  0.22270850  0.13603250  0.93322300  1
  O  O79  1  0.22964500  0.62989600  0.91579900  1
  O  O80  1  0.37244250  0.42993050  0.54542000  1
  O  O81  1  0.62755750  0.57006950  0.45458000  1
  O  O82  1  0.67961950  0.40726650  0.78090500  1
  O  O83  1  0.53122900  0.47619900  0.64088400  1
  O  O84  1  0.32038050  0.59273350  0.21909500  1
  O  O85  1  0.57551800  0.79686600  0.32102500  1
  O  O86  1  0.82412550  0.83912150  0.88862500  1
  O  O87  1  0.57588450  0.69835250  0.80237300  1
  O  O88  1  0.77035500  0.62989600  0.58420100  1
  O  O89  1  0.42411550  0.30164750  0.19762700  1
  O  O90  1  0.47081750  0.78490150  0.00373700  1
  O  O91  1  0.47081750  0.21509850  0.50373700  1
  O  O92  1  0.53122900  0.52380100  0.14088400  1
  O  O93  1  0.42448200  0.20313400  0.67897500  1
  O  O94  1  0.37676300  0.92591200  0.52654900  1
  O  O95  1  0.37244250  0.57006950  0.04542000  1
  O  O96  1  0.57588450  0.30164750  0.30237300  1
  O  O97  1  0.27035500  0.87010400  0.08420100  1
  O  O98  1  0.27729150  0.36396750  0.06677700  1
  O  O99  1  0.17587450  0.16087850  0.11137500  1
  O  O100  1  0.22270850  0.86396750  0.43322300  1
  O  O101  1  0.52177100  0.98823500  0.66542600  1
  O  O102  1  0.62323700  0.92591200  0.97345100  1
  O  O103  1  0.47822900  0.98823500  0.83457400  1
  O  O104  1  0.57551800  0.20313400  0.82102500  1
  O  O105  1  0.42411550  0.69835250  0.69762700  1
  O  O106  1  0.62323700  0.07408800  0.47345100  1
  O  O107  1  0.52177100  0.01176500  0.16542600  1
  O  O108  1  0.77729150  0.13603250  0.56677700  1
  O  O109  1  0.17961950  0.09273350  0.28090500  1
  O  O110  1  0.47822900  0.01176500  0.33457400  1
  O  O111  1  0.46877100  0.47619900  0.85911600  1
  O  O112  1  0.52918250  0.78490150  0.49626300  1
  O  O113  1  0.62755750  0.42993050  0.95458000  1
  O  O114  1  0.22964500  0.37010400  0.41579900  1
  O  O115  1  0.82038050  0.90726650  0.71909500  1
  O  O116  1  0.67587450  0.33912150  0.61137500  1
  O  O117  1  0.52918250  0.21509850  0.99626300  1
  O  O118  1  0.46877100  0.52380100  0.35911600  1
  O  O119  1  0.37676300  0.07408800  0.02654900  1
  O  O120  1  0.32412550  0.66087850  0.38862500  1
  O  O121  1  0.42448200  0.79686600  0.17897500  1
  O  O122  1  0.72270850  0.63603250  0.93322300  1
  O  O123  1  0.72964500  0.12989600  0.91579900  1
