# generated using pymatgen
data_La2HfO5
_symmetry_space_group_name_H-M   'P 1'
_cell_length_a   3.97080600
_cell_length_b   11.33048900
_cell_length_c   11.85587000
_cell_angle_alpha   90.00000000
_cell_angle_beta   90.00000000
_cell_angle_gamma   90.00000000
_symmetry_Int_Tables_number   1
_chemical_formula_structural   La2HfO5
_chemical_formula_sum   'La8 Hf4 O20'
_cell_volume   533.40950658
_cell_formula_units_Z   4
loop_
 _symmetry_equiv_pos_site_id
 _symmetry_equiv_pos_as_xyz
  1  'x, y, z'
loop_
 _atom_site_type_symbol
 _atom_site_label
 _atom_site_symmetry_multiplicity
 _atom_site_fract_x
 _atom_site_fract_y
 _atom_site_fract_z
 _atom_site_occupancy
  La  La0  1  0.25000000  0.10184700  0.71767200  1
  La  La1  1  0.25000000  0.13166600  0.06346500  1
  La  La2  1  0.75000000  0.36833400  0.56346500  1
  La  La3  1  0.75000000  0.39815300  0.21767200  1
  La  La4  1  0.25000000  0.60184700  0.78232800  1
  La  La5  1  0.25000000  0.63166600  0.43653500  1
  La  La6  1  0.75000000  0.86833400  0.93653500  1
  La  La7  1  0.75000000  0.89815300  0.28232800  1
  Hf  Hf8  1  0.25000000  0.19055700  0.37596700  1
  Hf  Hf9  1  0.75000000  0.30944300  0.87596700  1
  Hf  Hf10  1  0.25000000  0.69055700  0.12403300  1
  Hf  Hf11  1  0.75000000  0.80944300  0.62403300  1
  O  O12  1  0.75000000  0.00595600  0.10135500  1
  O  O13  1  0.25000000  0.02620600  0.32917300  1
  O  O14  1  0.75000000  0.22295900  0.72679700  1
  O  O15  1  0.25000000  0.23113300  0.54307500  1
  O  O16  1  0.75000000  0.24571800  0.37990300  1
  O  O17  1  0.25000000  0.25428200  0.87990300  1
  O  O18  1  0.75000000  0.26886700  0.04307500  1
  O  O19  1  0.25000000  0.27704100  0.22679700  1
  O  O20  1  0.75000000  0.47379400  0.82917300  1
  O  O21  1  0.25000000  0.49404400  0.60135500  1
  O  O22  1  0.75000000  0.50595600  0.39864500  1
  O  O23  1  0.25000000  0.52620600  0.17082700  1
  O  O24  1  0.75000000  0.72295900  0.77320300  1
  O  O25  1  0.25000000  0.73113300  0.95692500  1
  O  O26  1  0.75000000  0.74571800  0.12009700  1
  O  O27  1  0.25000000  0.75428200  0.62009700  1
  O  O28  1  0.75000000  0.76886700  0.45692500  1
  O  O29  1  0.25000000  0.77704100  0.27320300  1
  O  O30  1  0.75000000  0.97379400  0.67082700  1
  O  O31  1  0.25000000  0.99404400  0.89864500  1
