# generated using pymatgen
data_Li4HfO4
_symmetry_space_group_name_H-M   'P 1'
_cell_length_a   7.49456600
_cell_length_b   8.24445000
_cell_length_c   6.39634600
_cell_angle_alpha   90.00000000
_cell_angle_beta   90.00000000
_cell_angle_gamma   90.00000000
_symmetry_Int_Tables_number   1
_chemical_formula_structural   Li4HfO4
_chemical_formula_sum   'Li16 Hf4 O16'
_cell_volume   395.22110236
_cell_formula_units_Z   4
loop_
 _symmetry_equiv_pos_site_id
 _symmetry_equiv_pos_as_xyz
  1  'x, y, z'
loop_
 _atom_site_type_symbol
 _atom_site_label
 _atom_site_symmetry_multiplicity
 _atom_site_fract_x
 _atom_site_fract_y
 _atom_site_fract_z
 _atom_site_occupancy
  Li  Li0  1  0.50000000  0.34347800  0.50000000  1
  Li  Li1  1  0.50000000  0.34347800  0.00000000  1
  Li  Li2  1  0.73853050  0.14139350  0.25000000  1
  Li  Li3  1  0.26146950  0.14139350  0.75000000  1
  Li  Li4  1  0.73853050  0.85860650  0.25000000  1
  Li  Li5  1  0.26146950  0.85860650  0.75000000  1
  Li  Li6  1  0.50000000  0.65652200  0.00000000  1
  Li  Li7  1  0.50000000  0.65652200  0.50000000  1
  Li  Li8  1  0.00000000  0.84347800  0.50000000  1
  Li  Li9  1  0.00000000  0.84347800  0.00000000  1
  Li  Li10  1  0.23853050  0.64139350  0.25000000  1
  Li  Li11  1  0.76146950  0.64139350  0.75000000  1
  Li  Li12  1  0.23853050  0.35860650  0.25000000  1
  Li  Li13  1  0.76146950  0.35860650  0.75000000  1
  Li  Li14  1  0.00000000  0.15652200  0.00000000  1
  Li  Li15  1  0.00000000  0.15652200  0.50000000  1
  Hf  Hf16  1  0.34555000  0.00000000  0.25000000  1
  Hf  Hf17  1  0.65445000  0.00000000  0.75000000  1
  Hf  Hf18  1  0.84555000  0.50000000  0.25000000  1
  Hf  Hf19  1  0.15445000  0.50000000  0.75000000  1
  O  O20  1  0.47978250  0.20580150  0.25000000  1
  O  O21  1  0.52021750  0.20580150  0.75000000  1
  O  O22  1  0.20217500  0.00000000  0.50808300  1
  O  O23  1  0.20217500  0.00000000  0.99191700  1
  O  O24  1  0.79782500  0.00000000  0.49191700  1
  O  O25  1  0.79782500  0.00000000  0.00808300  1
  O  O26  1  0.52021750  0.79419850  0.75000000  1
  O  O27  1  0.47978250  0.79419850  0.25000000  1
  O  O28  1  0.97978250  0.70580150  0.25000000  1
  O  O29  1  0.02021750  0.70580150  0.75000000  1
  O  O30  1  0.70217500  0.50000000  0.50808300  1
  O  O31  1  0.70217500  0.50000000  0.99191700  1
  O  O32  1  0.29782500  0.50000000  0.49191700  1
  O  O33  1  0.29782500  0.50000000  0.00808300  1
  O  O34  1  0.02021750  0.29419850  0.75000000  1
  O  O35  1  0.97978250  0.29419850  0.25000000  1
