# generated using pymatgen
data_NaSr3NdTi5O15
_symmetry_space_group_name_H-M   'P 1'
_cell_length_a   5.51524800
_cell_length_b   5.51524800
_cell_length_c   39.56027000
_cell_angle_alpha   90.00000000
_cell_angle_beta   90.00000000
_cell_angle_gamma   90.00000000
_symmetry_Int_Tables_number   1
_chemical_formula_structural   NaSr3NdTi5O15
_chemical_formula_sum   'Na4 Sr12 Nd4 Ti20 O60'
_cell_volume   1203.34273029
_cell_formula_units_Z   4
loop_
 _symmetry_equiv_pos_site_id
 _symmetry_equiv_pos_as_xyz
  1  'x, y, z'
loop_
 _atom_site_type_symbol
 _atom_site_label
 _atom_site_symmetry_multiplicity
 _atom_site_fract_x
 _atom_site_fract_y
 _atom_site_fract_z
 _atom_site_occupancy
  Na  Na0  1  0.50000000  0.50000000  0.29936600  1
  Na  Na1  1  0.00000000  0.00000000  0.20063400  1
  Na  Na2  1  0.00000000  0.00000000  0.79936600  1
  Na  Na3  1  0.50000000  0.50000000  0.70063400  1
  Sr  Sr4  1  0.00000000  0.00000000  0.10078900  1
  Sr  Sr5  1  0.50000000  0.50000000  0.00000000  1
  Sr  Sr6  1  0.50000000  0.50000000  0.10063800  1
  Sr  Sr7  1  0.50000000  0.50000000  0.39921100  1
  Sr  Sr8  1  0.00000000  0.00000000  0.00000000  1
  Sr  Sr9  1  0.00000000  0.00000000  0.39936200  1
  Sr  Sr10  1  0.50000000  0.50000000  0.60078900  1
  Sr  Sr11  1  0.00000000  0.00000000  0.50000000  1
  Sr  Sr12  1  0.00000000  0.00000000  0.60063800  1
  Sr  Sr13  1  0.00000000  0.00000000  0.89921100  1
  Sr  Sr14  1  0.50000000  0.50000000  0.50000000  1
  Sr  Sr15  1  0.50000000  0.50000000  0.89936200  1
  Nd  Nd16  1  0.00000000  0.00000000  0.29942400  1
  Nd  Nd17  1  0.50000000  0.50000000  0.20057600  1
  Nd  Nd18  1  0.50000000  0.50000000  0.79942400  1
  Nd  Nd19  1  0.00000000  0.00000000  0.70057600  1
  Ti  Ti20  1  0.00000000  0.50000000  0.25000000  1
  Ti  Ti21  1  0.50000000  0.00000000  0.25000000  1
  Ti  Ti22  1  0.00000000  0.50000000  0.05042800  1
  Ti  Ti23  1  0.00000000  0.50000000  0.15139800  1
  Ti  Ti24  1  0.00000000  0.50000000  0.44957200  1
  Ti  Ti25  1  0.50000000  0.00000000  0.05042800  1
  Ti  Ti26  1  0.50000000  0.00000000  0.15139800  1
  Ti  Ti27  1  0.50000000  0.00000000  0.34860200  1
  Ti  Ti28  1  0.50000000  0.00000000  0.44957200  1
  Ti  Ti29  1  0.00000000  0.50000000  0.34860200  1
  Ti  Ti30  1  0.50000000  0.00000000  0.75000000  1
  Ti  Ti31  1  0.00000000  0.50000000  0.75000000  1
  Ti  Ti32  1  0.50000000  0.00000000  0.55042800  1
  Ti  Ti33  1  0.50000000  0.00000000  0.65139800  1
  Ti  Ti34  1  0.50000000  0.00000000  0.94957200  1
  Ti  Ti35  1  0.00000000  0.50000000  0.55042800  1
  Ti  Ti36  1  0.00000000  0.50000000  0.65139800  1
  Ti  Ti37  1  0.00000000  0.50000000  0.84860200  1
  Ti  Ti38  1  0.00000000  0.50000000  0.94957200  1
  Ti  Ti39  1  0.50000000  0.00000000  0.84860200  1
  O  O40  1  0.00000000  0.50000000  0.29935600  1
  O  O41  1  0.20158850  0.79841150  0.25183050  1
  O  O42  1  0.29841150  0.29841150  0.24816950  1
  O  O43  1  0.50000000  0.00000000  0.20064400  1
  O  O44  1  0.50000000  0.00000000  0.29935600  1
  O  O45  1  0.70995450  0.29004550  0.15241750  1
  O  O46  1  0.70158850  0.70158850  0.24816950  1
  O  O47  1  0.77855300  0.77855300  0.15075200  1
  O  O48  1  0.79841150  0.20158850  0.25183050  1
  O  O49  1  0.00000000  0.50000000  0.10082700  1
  O  O50  1  0.00000000  0.50000000  0.20064400  1
  O  O51  1  0.22687450  0.77312550  0.05065550  1
  O  O52  1  0.22144700  0.22144700  0.15075200  1
  O  O53  1  0.27340000  0.27340000  0.05028500  1
  O  O54  1  0.29004550  0.70995450  0.15241750  1
  O  O55  1  0.50000000  0.00000000  0.00000000  1
  O  O56  1  0.50000000  0.00000000  0.10082700  1
  O  O57  1  0.22660000  0.77340000  0.44971500  1
  O  O58  1  0.72660000  0.72660000  0.05028500  1
  O  O59  1  0.27312550  0.27312550  0.44934450  1
  O  O60  1  0.77312550  0.22687450  0.05065550  1
  O  O61  1  0.50000000  0.00000000  0.39917300  1
  O  O62  1  0.00000000  0.50000000  0.00000000  1
  O  O63  1  0.72144700  0.27855300  0.34924800  1
  O  O64  1  0.72687450  0.72687450  0.44934450  1
  O  O65  1  0.79004550  0.79004550  0.34758250  1
  O  O66  1  0.77340000  0.22660000  0.44971500  1
  O  O67  1  0.00000000  0.50000000  0.39917300  1
  O  O68  1  0.20995450  0.20995450  0.34758250  1
  O  O69  1  0.27855300  0.72144700  0.34924800  1
  O  O70  1  0.50000000  0.00000000  0.79935600  1
  O  O71  1  0.70158850  0.29841150  0.75183050  1
  O  O72  1  0.79841150  0.79841150  0.74816950  1
  O  O73  1  0.00000000  0.50000000  0.70064400  1
  O  O74  1  0.00000000  0.50000000  0.79935600  1
  O  O75  1  0.20995450  0.79004550  0.65241750  1
  O  O76  1  0.20158850  0.20158850  0.74816950  1
  O  O77  1  0.27855300  0.27855300  0.65075200  1
  O  O78  1  0.29841150  0.70158850  0.75183050  1
  O  O79  1  0.50000000  0.00000000  0.60082700  1
  O  O80  1  0.50000000  0.00000000  0.70064400  1
  O  O81  1  0.72687450  0.27312550  0.55065550  1
  O  O82  1  0.72144700  0.72144700  0.65075200  1
  O  O83  1  0.77340000  0.77340000  0.55028500  1
  O  O84  1  0.79004550  0.20995450  0.65241750  1
  O  O85  1  0.00000000  0.50000000  0.50000000  1
  O  O86  1  0.00000000  0.50000000  0.60082700  1
  O  O87  1  0.72660000  0.27340000  0.94971500  1
  O  O88  1  0.22660000  0.22660000  0.55028500  1
  O  O89  1  0.77312550  0.77312550  0.94934450  1
  O  O90  1  0.27312550  0.72687450  0.55065550  1
  O  O91  1  0.00000000  0.50000000  0.89917300  1
  O  O92  1  0.50000000  0.00000000  0.50000000  1
  O  O93  1  0.22144700  0.77855300  0.84924800  1
  O  O94  1  0.22687450  0.22687450  0.94934450  1
  O  O95  1  0.29004550  0.29004550  0.84758250  1
  O  O96  1  0.27340000  0.72660000  0.94971500  1
  O  O97  1  0.50000000  0.00000000  0.89917300  1
  O  O98  1  0.70995450  0.70995450  0.84758250  1
  O  O99  1  0.77855300  0.22144700  0.84924800  1
