# generated using pymatgen
data_CuH12N2(Cl2O)2
_symmetry_space_group_name_H-M   'P 1'
_cell_length_a   7.63911100
_cell_length_b   7.63911100
_cell_length_c   7.95921500
_cell_angle_alpha   90.00000000
_cell_angle_beta   90.00000000
_cell_angle_gamma   90.00000000
_symmetry_Int_Tables_number   1
_chemical_formula_structural   CuH12N2(Cl2O)2
_chemical_formula_sum   'Cu2 H24 N4 Cl8 O4'
_cell_volume   464.46808481
_cell_formula_units_Z   2
loop_
 _symmetry_equiv_pos_site_id
 _symmetry_equiv_pos_as_xyz
  1  'x, y, z'
loop_
 _atom_site_type_symbol
 _atom_site_label
 _atom_site_symmetry_multiplicity
 _atom_site_fract_x
 _atom_site_fract_y
 _atom_site_fract_z
 _atom_site_occupancy
  Cu  Cu0  1  0.50000000  0.50000000  0.50000000  1
  Cu  Cu1  1  0.00000000  0.00000000  0.00000000  1
  H  H2  1  0.42503700  0.57496300  0.17627400  1
  H  H3  1  0.57496300  0.42503700  0.17627400  1
  H  H4  1  0.07496300  0.07496300  0.67627400  1
  H  H5  1  0.92503700  0.92503700  0.67627400  1
  H  H6  1  0.57496300  0.42503700  0.82372600  1
  H  H7  1  0.42503700  0.57496300  0.82372600  1
  H  H8  1  0.92503700  0.92503700  0.32372600  1
  H  H9  1  0.07496300  0.07496300  0.32372600  1
  H  H10  1  0.08579400  0.57025400  0.32463100  1
  H  H11  1  0.91420600  0.42974600  0.32463100  1
  H  H12  1  0.41420600  0.07025400  0.82463100  1
  H  H13  1  0.58579400  0.92974600  0.82463100  1
  H  H14  1  0.91420600  0.42974600  0.67536900  1
  H  H15  1  0.08579400  0.57025400  0.67536900  1
  H  H16  1  0.58579400  0.92974600  0.17536900  1
  H  H17  1  0.41420600  0.07025400  0.17536900  1
  H  H18  1  0.57025400  0.08579400  0.32463100  1
  H  H19  1  0.42974600  0.91420600  0.32463100  1
  H  H20  1  0.07025400  0.41420600  0.82463100  1
  H  H21  1  0.92974600  0.58579400  0.82463100  1
  H  H22  1  0.42974600  0.91420600  0.67536900  1
  H  H23  1  0.57025400  0.08579400  0.67536900  1
  H  H24  1  0.92974600  0.58579400  0.17536900  1
  H  H25  1  0.07025400  0.41420600  0.17536900  1
  N  N26  1  0.00000000  0.50000000  0.25000000  1
  N  N27  1  0.50000000  0.00000000  0.75000000  1
  N  N28  1  0.00000000  0.50000000  0.75000000  1
  N  N29  1  0.50000000  0.00000000  0.25000000  1
  Cl  Cl30  1  0.28882100  0.71117900  0.50000000  1
  Cl  Cl31  1  0.71117900  0.28882100  0.50000000  1
  Cl  Cl32  1  0.21117900  0.21117900  0.00000000  1
  Cl  Cl33  1  0.78882100  0.78882100  0.00000000  1
  Cl  Cl34  1  0.28335400  0.71664600  0.00000000  1
  Cl  Cl35  1  0.71664600  0.28335400  0.00000000  1
  Cl  Cl36  1  0.21664600  0.21664600  0.50000000  1
  Cl  Cl37  1  0.78335400  0.78335400  0.50000000  1
  O  O38  1  0.50000000  0.50000000  0.24983800  1
  O  O39  1  0.00000000  0.00000000  0.74983800  1
  O  O40  1  0.50000000  0.50000000  0.75016200  1
  O  O41  1  0.00000000  0.00000000  0.25016200  1
