# generated using pymatgen
data_V3(PO4)2
_symmetry_space_group_name_H-M   'P 1'
_cell_length_a   8.31538500
_cell_length_b   9.74217200
_cell_length_c   8.69434879
_cell_angle_alpha   90.00000000
_cell_angle_beta   109.95255470
_cell_angle_gamma   90.00000000
_symmetry_Int_Tables_number   1
_chemical_formula_structural   V3(PO4)2
_chemical_formula_sum   'V12 P8 O32'
_cell_volume   662.05147172
_cell_formula_units_Z   4
loop_
 _symmetry_equiv_pos_site_id
 _symmetry_equiv_pos_as_xyz
  1  'x, y, z'
loop_
 _atom_site_type_symbol
 _atom_site_label
 _atom_site_symmetry_multiplicity
 _atom_site_fract_x
 _atom_site_fract_y
 _atom_site_fract_z
 _atom_site_occupancy
  V  V0  1  0.69555800  0.39275300  0.91592200  1
  V  V1  1  0.00025900  0.37283500  0.62782200  1
  V  V2  1  0.59115100  0.75936800  0.98335700  1
  V  V3  1  0.69555800  0.10724700  0.41592200  1
  V  V4  1  0.00025900  0.12716500  0.12782200  1
  V  V5  1  0.59115100  0.74063200  0.48335700  1
  V  V6  1  0.40884900  0.25936800  0.51664300  1
  V  V7  1  0.99974100  0.87283500  0.87217800  1
  V  V8  1  0.30444200  0.89275300  0.58407800  1
  V  V9  1  0.40884900  0.24063200  0.01664300  1
  V  V10  1  0.99974100  0.62716500  0.37217800  1
  V  V11  1  0.30444200  0.60724700  0.08407800  1
  P  P12  1  0.87141400  0.61049800  0.82584200  1
  P  P13  1  0.64768200  0.06431200  0.80857000  1
  P  P14  1  0.87141400  0.88950200  0.32584200  1
  P  P15  1  0.35231800  0.56431200  0.69143000  1
  P  P16  1  0.64768200  0.43568800  0.30857000  1
  P  P17  1  0.12858600  0.11049800  0.67415800  1
  P  P18  1  0.35231800  0.93568800  0.19143000  1
  P  P19  1  0.12858600  0.38950200  0.17415800  1
  O  O20  1  0.84175700  0.03613000  0.89893100  1
  O  O21  1  0.75181800  0.60870300  0.92989700  1
  O  O22  1  0.85800200  0.46271300  0.75880900  1
  O  O23  1  0.59406000  0.17877600  0.90553000  1
  O  O24  1  0.94456700  0.15950400  0.57447200  1
  O  O25  1  0.81228300  0.72520700  0.69394900  1
  O  O26  1  0.54481500  0.92805400  0.79826900  1
  O  O27  1  0.38332700  0.61933300  0.86690800  1
  O  O28  1  0.61667300  0.11933300  0.63309200  1
  O  O29  1  0.84175700  0.46387000  0.39893100  1
  O  O30  1  0.45518500  0.42805400  0.70173100  1
  O  O31  1  0.75181800  0.89129700  0.42989700  1
  O  O32  1  0.18771700  0.22520700  0.80605100  1
  O  O33  1  0.85800200  0.03728700  0.25880900  1
  O  O34  1  0.05543300  0.65950400  0.92552800  1
  O  O35  1  0.59406000  0.32122400  0.40553000  1
  O  O36  1  0.40594000  0.67877600  0.59447000  1
  O  O37  1  0.94456700  0.34049600  0.07447200  1
  O  O38  1  0.14199800  0.96271300  0.74119100  1
  O  O39  1  0.81228300  0.77479300  0.19394900  1
  O  O40  1  0.24818200  0.10870300  0.57010300  1
  O  O41  1  0.54481500  0.57194600  0.29826900  1
  O  O42  1  0.15824300  0.53613000  0.60106900  1
  O  O43  1  0.38332700  0.88066700  0.36690800  1
  O  O44  1  0.61667300  0.38066700  0.13309200  1
  O  O45  1  0.45518500  0.07194600  0.20173100  1
  O  O46  1  0.18771700  0.27479300  0.30605100  1
  O  O47  1  0.05543300  0.84049600  0.42552800  1
  O  O48  1  0.40594000  0.82122400  0.09447000  1
  O  O49  1  0.14199800  0.53728700  0.24119100  1
  O  O50  1  0.24818200  0.39129700  0.07010300  1
  O  O51  1  0.15824300  0.96387000  0.10106900  1
