# generated using pymatgen
data_NbAlO4
_symmetry_space_group_name_H-M   'P 1'
_cell_length_a   12.21782412
_cell_length_b   3.80337907
_cell_length_c   13.19595031
_cell_angle_alpha   90.00000000
_cell_angle_beta   106.66022413
_cell_angle_gamma   90.00000000
_symmetry_Int_Tables_number   1
_chemical_formula_structural   NbAlO4
_chemical_formula_sum   'Nb8 Al8 O32'
_cell_volume   587.46165399
_cell_formula_units_Z   8
loop_
 _symmetry_equiv_pos_site_id
 _symmetry_equiv_pos_as_xyz
  1  'x, y, z'
loop_
 _atom_site_type_symbol
 _atom_site_label
 _atom_site_symmetry_multiplicity
 _atom_site_fract_x
 _atom_site_fract_y
 _atom_site_fract_z
 _atom_site_occupancy
  Nb  Nb0  1  0.19526709  0.00000000  0.63432960  1
  Nb  Nb1  1  0.89295289  0.00000000  0.13406848  1
  Nb  Nb2  1  0.30473291  0.50000000  0.36567040  1
  Nb  Nb3  1  0.60704711  0.50000000  0.86593152  1
  Nb  Nb4  1  0.69526709  0.50000000  0.63432960  1
  Nb  Nb5  1  0.39295289  0.50000000  0.13406848  1
  Nb  Nb6  1  0.80473291  0.00000000  0.36567040  1
  Nb  Nb7  1  0.10704711  0.00000000  0.86593152  1
  Al  Al8  1  0.40345084  0.50000000  0.65634442  1
  Al  Al9  1  0.19510700  0.00000000  0.15369268  1
  Al  Al10  1  0.09654916  0.00000000  0.34365558  1
  Al  Al11  1  0.80489300  0.00000000  0.84630732  1
  Al  Al12  1  0.90345085  0.00000000  0.65634442  1
  Al  Al13  1  0.69510700  0.50000000  0.15369268  1
  Al  Al14  1  0.59654915  0.50000000  0.34365558  1
  Al  Al15  1  0.30489300  0.50000000  0.84630732  1
  O  O16  1  0.36304878  0.50000000  0.50838184  1
  O  O17  1  0.25779864  0.00000000  0.32219864  1
  O  O18  1  0.36729034  0.00000000  0.65220155  1
  O  O19  1  0.13270966  0.50000000  0.34779845  1
  O  O20  1  0.24220136  0.50000000  0.67780136  1
  O  O21  1  0.94083250  0.00000000  0.81173712  1
  O  O22  1  0.05916750  0.00000000  0.18826288  1
  O  O23  1  0.13695122  0.00000000  0.49161816  1
  O  O24  1  0.86710603  0.00000000  0.99070898  1
  O  O25  1  0.93916842  0.00000000  0.31702318  1
  O  O26  1  0.06083158  0.00000000  0.68297682  1
  O  O27  1  0.76762255  0.50000000  0.82941413  1
  O  O28  1  0.85079373  0.50000000  0.14617221  1
  O  O29  1  0.64920627  0.00000000  0.85382779  1
  O  O30  1  0.73237745  0.00000000  0.17058587  1
  O  O31  1  0.63289397  0.50000000  0.00929102  1
  O  O32  1  0.86304878  0.00000000  0.50838184  1
  O  O33  1  0.75779864  0.50000000  0.32219864  1
  O  O34  1  0.86729034  0.50000000  0.65220155  1
  O  O35  1  0.63270966  0.00000000  0.34779845  1
  O  O36  1  0.74220136  0.00000000  0.67780136  1
  O  O37  1  0.44083250  0.50000000  0.81173712  1
  O  O38  1  0.55916750  0.50000000  0.18826288  1
  O  O39  1  0.63695122  0.50000000  0.49161816  1
  O  O40  1  0.36710603  0.50000000  0.99070898  1
  O  O41  1  0.43916842  0.50000000  0.31702318  1
  O  O42  1  0.56083158  0.50000000  0.68297682  1
  O  O43  1  0.26762255  0.00000000  0.82941413  1
  O  O44  1  0.35079373  0.00000000  0.14617221  1
  O  O45  1  0.14920627  0.50000000  0.85382779  1
  O  O46  1  0.23237745  0.50000000  0.17058587  1
  O  O47  1  0.13289397  0.00000000  0.00929102  1
