# generated using pymatgen
data_La3ScO6
_symmetry_space_group_name_H-M   'P 1'
_cell_length_a   10.02169604
_cell_length_b   10.02169604
_cell_length_c   11.54429188
_cell_angle_alpha   90.00000000
_cell_angle_beta   90.00000000
_cell_angle_gamma   120.00000000
_symmetry_Int_Tables_number   1
_chemical_formula_structural   La3ScO6
_chemical_formula_sum   'La18 Sc6 O36'
_cell_volume   1004.10789859
_cell_formula_units_Z   6
loop_
 _symmetry_equiv_pos_site_id
 _symmetry_equiv_pos_as_xyz
  1  'x, y, z'
loop_
 _atom_site_type_symbol
 _atom_site_label
 _atom_site_symmetry_multiplicity
 _atom_site_fract_x
 _atom_site_fract_y
 _atom_site_fract_z
 _atom_site_occupancy
  La  La0  1  0.04023867  0.26632133  0.70603133  1
  La  La1  1  0.77391733  0.04023867  0.29396867  1
  La  La2  1  0.26632133  0.22608267  0.29396867  1
  La  La3  1  0.73367867  0.77391733  0.70603133  1
  La  La4  1  0.22608267  0.95976133  0.70603133  1
  La  La5  1  0.95976133  0.73367867  0.29396867  1
  La  La6  1  0.70690533  0.59965467  0.03936467  1
  La  La7  1  0.44058400  0.37357200  0.62730200  1
  La  La8  1  0.93298800  0.55941600  0.62730200  1
  La  La9  1  0.40034533  0.10725067  0.03936467  1
  La  La10  1  0.89274933  0.29309467  0.03936467  1
  La  La11  1  0.62642800  0.06701200  0.62730200  1
  La  La12  1  0.37357200  0.93298800  0.37269800  1
  La  La13  1  0.10725067  0.70690533  0.96063533  1
  La  La14  1  0.59965467  0.89274933  0.96063533  1
  La  La15  1  0.06701200  0.44058400  0.37269800  1
  La  La16  1  0.55941600  0.62642800  0.37269800  1
  La  La17  1  0.29309467  0.40034533  0.96063533  1
  Sc  Sc18  1  0.00000000  0.00000000  0.00000000  1
  Sc  Sc19  1  0.00000000  0.00000000  0.50000000  1
  Sc  Sc20  1  0.66666667  0.33333333  0.33333333  1
  Sc  Sc21  1  0.66666667  0.33333333  0.83333333  1
  Sc  Sc22  1  0.33333333  0.66666667  0.66666667  1
  Sc  Sc23  1  0.33333333  0.66666667  0.16666667  1
  O  O24  1  0.12999567  0.49343633  0.57237733  1
  O  O25  1  0.63655933  0.12999567  0.42762267  1
  O  O26  1  0.02719733  0.18157767  0.38506767  1
  O  O27  1  0.49343633  0.36344067  0.42762267  1
  O  O28  1  0.84561967  0.02719733  0.61493233  1
  O  O29  1  0.18157767  0.15438033  0.61493233  1
  O  O30  1  0.81842233  0.84561967  0.38506767  1
  O  O31  1  0.15438033  0.97280267  0.38506767  1
  O  O32  1  0.50656367  0.63655933  0.57237733  1
  O  O33  1  0.97280267  0.81842233  0.61493233  1
  O  O34  1  0.36344067  0.87000433  0.57237733  1
  O  O35  1  0.87000433  0.50656367  0.42762267  1
  O  O36  1  0.79666233  0.82676967  0.90571067  1
  O  O37  1  0.30322600  0.46332900  0.76095600  1
  O  O38  1  0.69386400  0.51491100  0.71840100  1
  O  O39  1  0.16010300  0.69677400  0.76095600  1
  O  O40  1  0.51228633  0.36053067  0.94826567  1
  O  O41  1  0.84824433  0.48771367  0.94826567  1
  O  O42  1  0.48508900  0.17895300  0.71840100  1
  O  O43  1  0.82104700  0.30613600  0.71840100  1
  O  O44  1  0.17323033  0.96989267  0.90571067  1
  O  O45  1  0.63946933  0.15175567  0.94826567  1
  O  O46  1  0.03010733  0.20333767  0.90571067  1
  O  O47  1  0.53667100  0.83989700  0.76095600  1
  O  O48  1  0.46332900  0.16010300  0.23904400  1
  O  O49  1  0.96989267  0.79666233  0.09428933  1
  O  O50  1  0.36053067  0.84824433  0.05173433  1
  O  O51  1  0.82676967  0.03010733  0.09428933  1
  O  O52  1  0.17895300  0.69386400  0.28159900  1
  O  O53  1  0.51491100  0.82104700  0.28159900  1
  O  O54  1  0.15175567  0.51228633  0.05173433  1
  O  O55  1  0.48771367  0.63946933  0.05173433  1
  O  O56  1  0.83989700  0.30322600  0.23904400  1
  O  O57  1  0.30613600  0.48508900  0.28159900  1
  O  O58  1  0.69677400  0.53667100  0.23904400  1
  O  O59  1  0.20333767  0.17323033  0.09428933  1
