# generated using pymatgen
data_NaSbO2
_symmetry_space_group_name_H-M   'P 1'
_cell_length_a   7.58227000
_cell_length_b   7.72633600
_cell_length_c   5.64064186
_cell_angle_alpha   90.00000000
_cell_angle_beta   128.87870606
_cell_angle_gamma   90.00000000
_symmetry_Int_Tables_number   1
_chemical_formula_structural   NaSbO2
_chemical_formula_sum   'Na4 Sb4 O8'
_cell_volume   257.24494882
_cell_formula_units_Z   4
loop_
 _symmetry_equiv_pos_site_id
 _symmetry_equiv_pos_as_xyz
  1  'x, y, z'
loop_
 _atom_site_type_symbol
 _atom_site_label
 _atom_site_symmetry_multiplicity
 _atom_site_fract_x
 _atom_site_fract_y
 _atom_site_fract_z
 _atom_site_occupancy
  Na  Na0  1  0.50000000  0.87688300  0.75000000  1
  Na  Na1  1  0.50000000  0.12311700  0.25000000  1
  Na  Na2  1  0.00000000  0.37688300  0.75000000  1
  Na  Na3  1  0.00000000  0.62311700  0.25000000  1
  Sb  Sb4  1  0.50000000  0.39205400  0.75000000  1
  Sb  Sb5  1  0.50000000  0.60794600  0.25000000  1
  Sb  Sb6  1  0.00000000  0.89205400  0.75000000  1
  Sb  Sb7  1  0.00000000  0.10794600  0.25000000  1
  O  O8  1  0.20157700  0.05799400  0.74733100  1
  O  O9  1  0.20157700  0.94200600  0.24733100  1
  O  O10  1  0.79842300  0.05799400  0.75266900  1
  O  O11  1  0.79842300  0.94200600  0.25266900  1
  O  O12  1  0.70157700  0.55799400  0.74733100  1
  O  O13  1  0.70157700  0.44200600  0.24733100  1
  O  O14  1  0.29842300  0.55799400  0.75266900  1
  O  O15  1  0.29842300  0.44200600  0.25266900  1
