# generated using pymatgen
data_Na7Mn16O32
_symmetry_space_group_name_H-M   'P 1'
_cell_length_a   8.66340600
_cell_length_b   8.78762853
_cell_length_c   10.48333123
_cell_angle_alpha   114.38141994
_cell_angle_beta   114.19856227
_cell_angle_gamma   89.76087646
_symmetry_Int_Tables_number   1
_chemical_formula_structural   Na7Mn16O32
_chemical_formula_sum   'Na7 Mn16 O32'
_cell_volume   649.83804088
_cell_formula_units_Z   1
loop_
 _symmetry_equiv_pos_site_id
 _symmetry_equiv_pos_as_xyz
  1  'x, y, z'
loop_
 _atom_site_type_symbol
 _atom_site_label
 _atom_site_symmetry_multiplicity
 _atom_site_fract_x
 _atom_site_fract_y
 _atom_site_fract_z
 _atom_site_occupancy
  Na  Na0  1  0.44025500  0.69340000  0.13130500  1
  Na  Na1  1  0.80740900  0.06126400  0.36900900  1
  Na  Na2  1  0.31198500  0.55791600  0.37369800  1
  Na  Na3  1  0.69567800  0.43525500  0.62619200  1
  Na  Na4  1  0.19099100  0.93860900  0.62559100  1
  Na  Na5  1  0.06206500  0.81502500  0.88008400  1
  Na  Na6  1  0.55921900  0.31363200  0.87223300  1
  Mn  Mn7  1  0.50381600  0.00162200  0.99843500  1
  Mn  Mn8  1  0.75314100  0.74759500  0.99923300  1
  Mn  Mn9  1  0.25027700  0.25888500  0.00544500  1
  Mn  Mn10  1  0.00260600  0.49448100  0.00927800  1
  Mn  Mn11  1  0.62642600  0.37244700  0.24587700  1
  Mn  Mn12  1  0.37043500  0.13545200  0.25033600  1
  Mn  Mn13  1  0.12232700  0.88213700  0.25003600  1
  Mn  Mn14  1  0.87127500  0.61688700  0.24742600  1
  Mn  Mn15  1  0.49784300  0.00880400  0.50472600  1
  Mn  Mn16  1  0.99423500  0.48764600  0.49042200  1
  Mn  Mn17  1  0.75199300  0.74693300  0.50393300  1
  Mn  Mn18  1  0.24414400  0.25785400  0.48822900  1
  Mn  Mn19  1  0.37762200  0.62046200  0.74931100  1
  Mn  Mn20  1  0.87280400  0.13065000  0.75603100  1
  Mn  Mn21  1  0.63184400  0.87114900  0.75256300  1
  Mn  Mn22  1  0.12347800  0.37556800  0.74978600  1
  O  O23  1  0.77856400  0.52718000  0.01730600  1
  O  O24  1  0.27755600  0.03874300  0.01700200  1
  O  O25  1  0.48263700  0.26506000  0.02358300  1
  O  O26  1  0.99537100  0.73325000  0.02510800  1
  O  O27  1  0.87916400  0.83414500  0.23212800  1
  O  O28  1  0.39092000  0.34853600  0.23500500  1
  O  O29  1  0.59375300  0.13944500  0.22595200  1
  O  O30  1  0.08343900  0.61639800  0.23279200  1
  O  O31  1  0.15789200  0.14421000  0.26493900  1
  O  O32  1  0.36472900  0.92233200  0.26575400  1
  O  O33  1  0.65292700  0.60689000  0.26863600  1
  O  O34  1  0.85897000  0.39838700  0.25551300  1
  O  O35  1  0.96992600  0.71025100  0.47817000  1
  O  O36  1  0.45955600  0.24569500  0.47469100  1
  O  O37  1  0.76411700  0.47616900  0.46705300  1
  O  O38  1  0.25223900  0.02548800  0.47654100  1
  O  O39  1  0.02347900  0.27075600  0.48952500  1
  O  O40  1  0.73335400  0.01632300  0.52889200  1
  O  O41  1  0.23374800  0.49399700  0.51719900  1
  O  O42  1  0.53943400  0.76123500  0.52583500  1
  O  O43  1  0.84740000  0.89145500  0.73472000  1
  O  O44  1  0.34040500  0.38440600  0.72197600  1
  O  O45  1  0.10176500  0.57984800  0.71493100  1
  O  O46  1  0.60684500  0.07745900  0.73018100  1
  O  O47  1  0.14203800  0.17169900  0.78329900  1
  O  O48  1  0.64979300  0.66416000  0.77825400  1
  O  O49  1  0.91025800  0.37076400  0.78252000  1
  O  O50  1  0.41133900  0.85633100  0.76927800  1
  O  O51  1  0.73003300  0.96434600  0.98675500  1
  O  O52  1  0.01226000  0.26130100  0.98769600  1
  O  O53  1  0.22487100  0.48144400  0.01551000  1
  O  O54  1  0.52269200  0.73546500  0.97736500  1
