# generated using pymatgen
data_LiCu2F5
_symmetry_space_group_name_H-M   'P 1'
_cell_length_a   7.60485200
_cell_length_b   10.28959600
_cell_length_c   6.19663289
_cell_angle_alpha   90.00000000
_cell_angle_beta   121.58563550
_cell_angle_gamma   90.00000000
_symmetry_Int_Tables_number   1
_chemical_formula_structural   LiCu2F5
_chemical_formula_sum   'Li4 Cu8 F20'
_cell_volume   413.05910902
_cell_formula_units_Z   4
loop_
 _symmetry_equiv_pos_site_id
 _symmetry_equiv_pos_as_xyz
  1  'x, y, z'
loop_
 _atom_site_type_symbol
 _atom_site_label
 _atom_site_symmetry_multiplicity
 _atom_site_fract_x
 _atom_site_fract_y
 _atom_site_fract_z
 _atom_site_occupancy
  Li  Li0  1  0.50000000  0.86536700  0.75000000  1
  Li  Li1  1  0.50000000  0.13463300  0.25000000  1
  Li  Li2  1  0.00000000  0.36536700  0.75000000  1
  Li  Li3  1  0.00000000  0.63463300  0.25000000  1
  Cu  Cu4  1  0.00000000  0.00000000  0.50000000  1
  Cu  Cu5  1  0.25000000  0.75000000  0.00000000  1
  Cu  Cu6  1  0.00000000  0.00000000  0.00000000  1
  Cu  Cu7  1  0.25000000  0.25000000  0.50000000  1
  Cu  Cu8  1  0.50000000  0.50000000  0.50000000  1
  Cu  Cu9  1  0.75000000  0.25000000  0.00000000  1
  Cu  Cu10  1  0.50000000  0.50000000  0.00000000  1
  Cu  Cu11  1  0.75000000  0.75000000  0.50000000  1
  F  F12  1  0.38779350  0.66658950  0.85331300  1
  F  F13  1  0.25314500  0.91901300  0.72890700  1
  F  F14  1  0.61220650  0.66658950  0.64668700  1
  F  F15  1  0.25314500  0.08098700  0.22890700  1
  F  F16  1  0.50000000  0.16810600  0.75000000  1
  F  F17  1  0.50000000  0.83189400  0.25000000  1
  F  F18  1  0.74685500  0.91901300  0.77109300  1
  F  F19  1  0.38779350  0.33341050  0.35331300  1
  F  F20  1  0.74685500  0.08098700  0.27109300  1
  F  F21  1  0.61220650  0.33341050  0.14668700  1
  F  F22  1  0.88779350  0.16658950  0.85331300  1
  F  F23  1  0.75314500  0.41901300  0.72890700  1
  F  F24  1  0.11220650  0.16658950  0.64668700  1
  F  F25  1  0.75314500  0.58098700  0.22890700  1
  F  F26  1  0.00000000  0.66810600  0.75000000  1
  F  F27  1  0.00000000  0.33189400  0.25000000  1
  F  F28  1  0.24685500  0.41901300  0.77109300  1
  F  F29  1  0.88779350  0.83341050  0.35331300  1
  F  F30  1  0.24685500  0.58098700  0.27109300  1
  F  F31  1  0.11220650  0.83341050  0.14668700  1
