# generated using pymatgen
data_Na5GdO4
_symmetry_space_group_name_H-M   'P 1'
_cell_length_a   6.07286400
_cell_length_b   11.86886000
_cell_length_c   18.45776300
_cell_angle_alpha   90.00000000
_cell_angle_beta   90.00000000
_cell_angle_gamma   90.00000000
_symmetry_Int_Tables_number   1
_chemical_formula_structural   Na5GdO4
_chemical_formula_sum   'Na40 Gd8 O32'
_cell_volume   1330.39813605
_cell_formula_units_Z   8
loop_
 _symmetry_equiv_pos_site_id
 _symmetry_equiv_pos_as_xyz
  1  'x, y, z'
loop_
 _atom_site_type_symbol
 _atom_site_label
 _atom_site_symmetry_multiplicity
 _atom_site_fract_x
 _atom_site_fract_y
 _atom_site_fract_z
 _atom_site_occupancy
  Na  Na0  1  0.89750500  0.92046900  0.57351700  1
  Na  Na1  1  0.60249500  0.92046900  0.07351700  1
  Na  Na2  1  0.41033600  0.94190300  0.23993800  1
  Na  Na3  1  0.08966400  0.94190300  0.73993800  1
  Na  Na4  1  0.13349000  0.81161100  0.01019500  1
  Na  Na5  1  0.36651000  0.81161100  0.51019500  1
  Na  Na6  1  0.91489200  0.80188500  0.18227200  1
  Na  Na7  1  0.58510800  0.80188500  0.68227200  1
  Na  Na8  1  0.42886900  0.80109600  0.84877100  1
  Na  Na9  1  0.07113100  0.80109600  0.34877100  1
  Na  Na10  1  0.92886900  0.69890400  0.84877100  1
  Na  Na11  1  0.57113100  0.69890400  0.34877100  1
  Na  Na12  1  0.08510800  0.69811500  0.68227200  1
  Na  Na13  1  0.41489200  0.69811500  0.18227200  1
  Na  Na14  1  0.63349000  0.68838900  0.01019500  1
  Na  Na15  1  0.86651000  0.68838900  0.51019500  1
  Na  Na16  1  0.58966400  0.55809700  0.73993800  1
  Na  Na17  1  0.91033600  0.55809700  0.23993800  1
  Na  Na18  1  0.10249500  0.57953100  0.07351700  1
  Na  Na19  1  0.39750500  0.57953100  0.57351700  1
  Na  Na20  1  0.89750500  0.42046900  0.92648300  1
  Na  Na21  1  0.60249500  0.42046900  0.42648300  1
  Na  Na22  1  0.08966400  0.44190300  0.76006200  1
  Na  Na23  1  0.41033600  0.44190300  0.26006200  1
  Na  Na24  1  0.36651000  0.31161100  0.98980500  1
  Na  Na25  1  0.13349000  0.31161100  0.48980500  1
  Na  Na26  1  0.58510800  0.30188500  0.81772800  1
  Na  Na27  1  0.91489200  0.30188500  0.31772800  1
  Na  Na28  1  0.42886900  0.30109600  0.65122900  1
  Na  Na29  1  0.07113100  0.30109600  0.15122900  1
  Na  Na30  1  0.92886900  0.19890400  0.65122900  1
  Na  Na31  1  0.57113100  0.19890400  0.15122900  1
  Na  Na32  1  0.41489200  0.19811500  0.31772800  1
  Na  Na33  1  0.08510800  0.19811500  0.81772800  1
  Na  Na34  1  0.63349000  0.18838900  0.48980500  1
  Na  Na35  1  0.86651000  0.18838900  0.98980500  1
  Na  Na36  1  0.91033600  0.05809700  0.26006200  1
  Na  Na37  1  0.58966400  0.05809700  0.76006200  1
  Na  Na38  1  0.10249500  0.07953100  0.42648300  1
  Na  Na39  1  0.39750500  0.07953100  0.92648300  1
  Gd  Gd40  1  0.86419700  0.95714500  0.88470200  1
  Gd  Gd41  1  0.63580300  0.95714500  0.38470200  1
  Gd  Gd42  1  0.36419700  0.54285500  0.88470200  1
  Gd  Gd43  1  0.13580300  0.54285500  0.38470200  1
  Gd  Gd44  1  0.86419700  0.45714500  0.61529800  1
  Gd  Gd45  1  0.63580300  0.45714500  0.11529800  1
  Gd  Gd46  1  0.36419700  0.04285500  0.61529800  1
  Gd  Gd47  1  0.13580300  0.04285500  0.11529800  1
  O  O48  1  0.20950000  0.95098300  0.86468400  1
  O  O49  1  0.29050000  0.95098300  0.36468400  1
  O  O50  1  0.75332900  0.86373400  0.78932300  1
  O  O51  1  0.74667100  0.86373400  0.28932300  1
  O  O52  1  0.77683400  0.85320600  0.97594300  1
  O  O53  1  0.72316600  0.85320600  0.47594300  1
  O  O54  1  0.23803100  0.86508600  0.62875200  1
  O  O55  1  0.26196900  0.86508600  0.12875200  1
  O  O56  1  0.73803100  0.63491400  0.62875200  1
  O  O57  1  0.76196900  0.63491400  0.12875200  1
  O  O58  1  0.27683400  0.64679400  0.97594300  1
  O  O59  1  0.22316600  0.64679400  0.47594300  1
  O  O60  1  0.25332900  0.63626600  0.78932300  1
  O  O61  1  0.24667100  0.63626600  0.28932300  1
  O  O62  1  0.70950000  0.54901700  0.86468400  1
  O  O63  1  0.79050000  0.54901700  0.36468400  1
  O  O64  1  0.29050000  0.45098300  0.13531600  1
  O  O65  1  0.20950000  0.45098300  0.63531600  1
  O  O66  1  0.74667100  0.36373400  0.21067700  1
  O  O67  1  0.75332900  0.36373400  0.71067700  1
  O  O68  1  0.72316600  0.35320600  0.02405700  1
  O  O69  1  0.77683400  0.35320600  0.52405700  1
  O  O70  1  0.23803100  0.36508600  0.87124800  1
  O  O71  1  0.26196900  0.36508600  0.37124800  1
  O  O72  1  0.76196900  0.13491400  0.37124800  1
  O  O73  1  0.73803100  0.13491400  0.87124800  1
  O  O74  1  0.27683400  0.14679400  0.52405700  1
  O  O75  1  0.22316600  0.14679400  0.02405700  1
  O  O76  1  0.25332900  0.13626600  0.71067700  1
  O  O77  1  0.24667100  0.13626600  0.21067700  1
  O  O78  1  0.70950000  0.04901700  0.63531600  1
  O  O79  1  0.79050000  0.04901700  0.13531600  1
