# generated using pymatgen
data_Bi2(SO4)3
_symmetry_space_group_name_H-M   'P 1'
_cell_length_a   9.20329900
_cell_length_b   9.35342900
_cell_length_c   25.75542100
_cell_angle_alpha   90.00000000
_cell_angle_beta   90.00000000
_cell_angle_gamma   90.00000000
_symmetry_Int_Tables_number   1
_chemical_formula_structural   Bi2(SO4)3
_chemical_formula_sum   'Bi16 S24 O96'
_cell_volume   2217.08854959
_cell_formula_units_Z   8
loop_
 _symmetry_equiv_pos_site_id
 _symmetry_equiv_pos_as_xyz
  1  'x, y, z'
loop_
 _atom_site_type_symbol
 _atom_site_label
 _atom_site_symmetry_multiplicity
 _atom_site_fract_x
 _atom_site_fract_y
 _atom_site_fract_z
 _atom_site_occupancy
  Bi  Bi0  1  0.99987700  0.39454600  0.06509300  1
  Bi  Bi1  1  0.99987700  0.10545400  0.56509300  1
  Bi  Bi2  1  0.99470700  0.79994900  0.18010300  1
  Bi  Bi3  1  0.99470700  0.70005100  0.68010300  1
  Bi  Bi4  1  0.50529300  0.29994900  0.18010300  1
  Bi  Bi5  1  0.50529300  0.20005100  0.68010300  1
  Bi  Bi6  1  0.50012300  0.60545400  0.56509300  1
  Bi  Bi7  1  0.50012300  0.89454600  0.06509300  1
  Bi  Bi8  1  0.49987700  0.39454600  0.43490700  1
  Bi  Bi9  1  0.49987700  0.10545400  0.93490700  1
  Bi  Bi10  1  0.49470700  0.70005100  0.81989700  1
  Bi  Bi11  1  0.49470700  0.79994900  0.31989700  1
  Bi  Bi12  1  0.00529300  0.29994900  0.31989700  1
  Bi  Bi13  1  0.00529300  0.20005100  0.81989700  1
  Bi  Bi14  1  0.00012300  0.89454600  0.43490700  1
  Bi  Bi15  1  0.00012300  0.60545400  0.93490700  1
  S  S16  1  0.14538300  0.94663300  0.29727800  1
  S  S17  1  0.14538300  0.55336700  0.79727800  1
  S  S18  1  0.14833600  0.25885700  0.44968900  1
  S  S19  1  0.14833600  0.24114300  0.94968900  1
  S  S20  1  0.19303900  0.08880700  0.11587900  1
  S  S21  1  0.19303900  0.41119300  0.61587900  1
  S  S22  1  0.30696100  0.58880700  0.11587900  1
  S  S23  1  0.30696100  0.91119300  0.61587900  1
  S  S24  1  0.35166400  0.75885700  0.44968900  1
  S  S25  1  0.35166400  0.74114300  0.94968900  1
  S  S26  1  0.35461700  0.44663300  0.29727800  1
  S  S27  1  0.35461700  0.05336700  0.79727800  1
  S  S28  1  0.64538300  0.55336700  0.70272200  1
  S  S29  1  0.64538300  0.94663300  0.20272200  1
  S  S30  1  0.64833600  0.25885700  0.05031100  1
  S  S31  1  0.64833600  0.24114300  0.55031100  1
  S  S32  1  0.69303900  0.08880700  0.38412100  1
  S  S33  1  0.69303900  0.41119300  0.88412100  1
  S  S34  1  0.80696100  0.58880700  0.38412100  1
  S  S35  1  0.80696100  0.91119300  0.88412100  1
  S  S36  1  0.85166400  0.75885700  0.05031100  1
  S  S37  1  0.85166400  0.74114300  0.55031100  1
  S  S38  1  0.85461700  0.44663300  0.20272200  1
  S  S39  1  0.85461700  0.05336700  0.70272200  1
  O  O40  1  0.06630400  0.38433800  0.46303100  1
  O  O41  1  0.06630400  0.11566200  0.96303100  1
  O  O42  1  0.08542700  0.08420700  0.27780000  1
  O  O43  1  0.08542700  0.41579300  0.77780000  1
  O  O44  1  0.08474500  0.12373900  0.47750700  1
  O  O45  1  0.08474500  0.37626100  0.97750700  1
  O  O46  1  0.09293200  0.91776800  0.35077100  1
  O  O47  1  0.09293200  0.58223200  0.85077100  1
  O  O48  1  0.09603400  0.18119600  0.08379800  1
  O  O49  1  0.09603400  0.31880400  0.58379800  1
  O  O50  1  0.09909300  0.82633800  0.26303800  1
  O  O51  1  0.09909300  0.67366200  0.76303800  1
  O  O52  1  0.10185400  0.01544300  0.15540900  1
  O  O53  1  0.10185400  0.48455700  0.65540900  1
  O  O54  1  0.14470100  0.22167600  0.39283300  1
  O  O55  1  0.14470100  0.27832400  0.89283300  1
  O  O56  1  0.19215500  0.45573800  0.29703100  1
  O  O57  1  0.19215500  0.04426200  0.79703100  1
  O  O58  1  0.19562900  0.67645300  0.14263000  1
  O  O59  1  0.19562900  0.82354700  0.64263000  1
  O  O60  1  0.19582100  0.76382100  0.46665900  1
  O  O61  1  0.19582100  0.73617900  0.96665900  1
  O  O62  1  0.23793900  0.01689300  0.58064000  1
  O  O63  1  0.23793900  0.48310700  0.08064000  1
  O  O64  1  0.26206100  0.51689300  0.58064000  1
  O  O65  1  0.26206100  0.98310700  0.08064000  1
  O  O66  1  0.30417900  0.23617900  0.96665900  1
  O  O67  1  0.30417900  0.26382100  0.46665900  1
  O  O68  1  0.30437100  0.17645300  0.14263000  1
  O  O69  1  0.30437100  0.32354700  0.64263000  1
  O  O70  1  0.30784500  0.95573800  0.29703100  1
  O  O71  1  0.30784500  0.54426200  0.79703100  1
  O  O72  1  0.35529900  0.72167600  0.39283300  1
  O  O73  1  0.35529900  0.77832400  0.89283300  1
  O  O74  1  0.39814600  0.98455700  0.65540900  1
  O  O75  1  0.39814600  0.51544300  0.15540900  1
  O  O76  1  0.40090700  0.32633800  0.26303800  1
  O  O77  1  0.40090700  0.17366200  0.76303800  1
  O  O78  1  0.40396600  0.68119600  0.08379800  1
  O  O79  1  0.40396600  0.81880400  0.58379800  1
  O  O80  1  0.40706800  0.08223200  0.85077100  1
  O  O81  1  0.40706800  0.41776800  0.35077100  1
  O  O82  1  0.41525500  0.87626100  0.97750700  1
  O  O83  1  0.41525500  0.62373900  0.47750700  1
  O  O84  1  0.41457300  0.58420700  0.27780000  1
  O  O85  1  0.41457300  0.91579300  0.77780000  1
  O  O86  1  0.43369600  0.61566200  0.96303100  1
  O  O87  1  0.43369600  0.88433800  0.46303100  1
  O  O88  1  0.56630400  0.38433800  0.03696900  1
  O  O89  1  0.56630400  0.11566200  0.53696900  1
  O  O90  1  0.58542700  0.08420700  0.22220000  1
  O  O91  1  0.58542700  0.41579300  0.72220000  1
  O  O92  1  0.58474500  0.12373900  0.02249300  1
  O  O93  1  0.58474500  0.37626100  0.52249300  1
  O  O94  1  0.59293200  0.58223200  0.64922900  1
  O  O95  1  0.59293200  0.91776800  0.14922900  1
  O  O96  1  0.59603400  0.18119600  0.41620200  1
  O  O97  1  0.59603400  0.31880400  0.91620200  1
  O  O98  1  0.59909300  0.82633800  0.23696200  1
  O  O99  1  0.59909300  0.67366200  0.73696200  1
  O  O100  1  0.60185400  0.01544300  0.34459100  1
  O  O101  1  0.60185400  0.48455700  0.84459100  1
  O  O102  1  0.64470100  0.22167600  0.10716700  1
  O  O103  1  0.64470100  0.27832400  0.60716700  1
  O  O104  1  0.69215500  0.45573800  0.20296900  1
  O  O105  1  0.69215500  0.04426200  0.70296900  1
  O  O106  1  0.69562900  0.67645300  0.35737000  1
  O  O107  1  0.69562900  0.82354700  0.85737000  1
  O  O108  1  0.69582100  0.76382100  0.03334100  1
  O  O109  1  0.69582100  0.73617900  0.53334100  1
  O  O110  1  0.73793900  0.48310700  0.41936000  1
  O  O111  1  0.73793900  0.01689300  0.91936000  1
  O  O112  1  0.76206100  0.98310700  0.41936000  1
  O  O113  1  0.76206100  0.51689300  0.91936000  1
  O  O114  1  0.80417900  0.26382100  0.03334100  1
  O  O115  1  0.80417900  0.23617900  0.53334100  1
  O  O116  1  0.80437100  0.17645300  0.35737000  1
  O  O117  1  0.80437100  0.32354700  0.85737000  1
  O  O118  1  0.80784500  0.54426200  0.70296900  1
  O  O119  1  0.80784500  0.95573800  0.20296900  1
  O  O120  1  0.85529900  0.72167600  0.10716700  1
  O  O121  1  0.85529900  0.77832400  0.60716700  1
  O  O122  1  0.89814600  0.51544300  0.34459100  1
  O  O123  1  0.89814600  0.98455700  0.84459100  1
  O  O124  1  0.90090700  0.32633800  0.23696200  1
  O  O125  1  0.90090700  0.17366200  0.73696200  1
  O  O126  1  0.90396600  0.68119600  0.41620200  1
  O  O127  1  0.90396600  0.81880400  0.91620200  1
  O  O128  1  0.90706800  0.41776800  0.14922900  1
  O  O129  1  0.90706800  0.08223200  0.64922900  1
  O  O130  1  0.91525500  0.62373900  0.02249300  1
  O  O131  1  0.91525500  0.87626100  0.52249300  1
  O  O132  1  0.91457300  0.58420700  0.22220000  1
  O  O133  1  0.91457300  0.91579300  0.72220000  1
  O  O134  1  0.93369600  0.61566200  0.53696900  1
  O  O135  1  0.93369600  0.88433800  0.03696900  1
