# generated using pymatgen
data_Ti3Bi2(PO4)6
_symmetry_space_group_name_H-M   'P 1'
_cell_length_a   8.75885232
_cell_length_b   8.75885232
_cell_length_c   21.86838135
_cell_angle_alpha   90.00000000
_cell_angle_beta   90.00000000
_cell_angle_gamma   120.00000000
_symmetry_Int_Tables_number   1
_chemical_formula_structural   Ti3Bi2(PO4)6
_chemical_formula_sum   'Ti9 Bi6 P18 O72'
_cell_volume   1452.91992027
_cell_formula_units_Z   3
loop_
 _symmetry_equiv_pos_site_id
 _symmetry_equiv_pos_as_xyz
  1  'x, y, z'
loop_
 _atom_site_type_symbol
 _atom_site_label
 _atom_site_symmetry_multiplicity
 _atom_site_fract_x
 _atom_site_fract_y
 _atom_site_fract_z
 _atom_site_occupancy
  Ti  Ti0  1  0.33333333  0.66666667  0.31625267  1
  Ti  Ti1  1  0.66666667  0.33333333  0.19276033  1
  Ti  Ti2  1  0.33333333  0.66666667  0.00737167  1
  Ti  Ti3  1  0.00000000  0.00000000  0.64958600  1
  Ti  Ti4  1  0.33333333  0.66666667  0.52609367  1
  Ti  Ti5  1  0.00000000  0.00000000  0.34070500  1
  Ti  Ti6  1  0.66666667  0.33333333  0.98291933  1
  Ti  Ti7  1  0.00000000  0.00000000  0.85942700  1
  Ti  Ti8  1  0.66666667  0.33333333  0.67403833  1
  Bi  Bi9  1  0.00000000  0.00000000  0.02299500  1
  Bi  Bi10  1  0.33333333  0.66666667  0.16399167  1
  Bi  Bi11  1  0.66666667  0.33333333  0.35632833  1
  Bi  Bi12  1  0.00000000  0.00000000  0.49732500  1
  Bi  Bi13  1  0.33333333  0.66666667  0.68966167  1
  Bi  Bi14  1  0.66666667  0.33333333  0.83065833  1
  P  P15  1  0.00461500  0.30626100  0.24418300  1
  P  P16  1  0.69373900  0.69835400  0.24418300  1
  P  P17  1  0.30164600  0.99538500  0.24418300  1
  P  P18  1  0.39412067  0.35221233  0.08547433  1
  P  P19  1  0.95809167  0.60587933  0.08547433  1
  P  P20  1  0.64778767  0.04190833  0.08547433  1
  P  P21  1  0.67128167  0.63959433  0.57751633  1
  P  P22  1  0.36040567  0.03168733  0.57751633  1
  P  P23  1  0.96831267  0.32871833  0.57751633  1
  P  P24  1  0.06078733  0.68554567  0.41880767  1
  P  P25  1  0.62475833  0.93921267  0.41880767  1
  P  P26  1  0.31445433  0.37524167  0.41880767  1
  P  P27  1  0.33794833  0.97292767  0.91084967  1
  P  P28  1  0.02707233  0.36502067  0.91084967  1
  P  P29  1  0.63497933  0.66205167  0.91084967  1
  P  P30  1  0.72745400  0.01887900  0.75214100  1
  P  P31  1  0.29142500  0.27254600  0.75214100  1
  P  P32  1  0.98112100  0.70857500  0.75214100  1
  O  O33  1  0.81726800  0.81458100  0.29948900  1
  O  O34  1  0.18541900  0.00268700  0.29948900  1
  O  O35  1  0.99731300  0.18273200  0.29948900  1
  O  O36  1  0.82120067  0.29709233  0.25057733  1
  O  O37  1  0.14542867  0.50270533  0.26060833  1
  O  O38  1  0.04969433  0.26564467  0.18315567  1
  O  O39  1  0.70290767  0.52410833  0.25057733  1
  O  O40  1  0.49729467  0.64272333  0.26060833  1
  O  O41  1  0.35727667  0.85457133  0.26060833  1
  O  O42  1  0.49298633  0.36097967  0.14488367  1
  O  O43  1  0.21629700  0.18302200  0.08042700  1
  O  O44  1  0.86799333  0.50701367  0.14488367  1
  O  O45  1  0.73435533  0.78404967  0.18315567  1
  O  O46  1  0.47589167  0.17879933  0.25057733  1
  O  O47  1  0.21595033  0.95030567  0.18315567  1
  O  O48  1  0.36882667  0.51774233  0.08341333  1
  O  O49  1  0.14891567  0.63117333  0.08341333  1
  O  O50  1  0.96672500  0.78370300  0.08042700  1
  O  O51  1  0.63902033  0.13200667  0.14488367  1
  O  O52  1  0.48225767  0.85108433  0.08341333  1
  O  O53  1  0.81697800  0.03327500  0.08042700  1
  O  O54  1  0.62914533  0.13636667  0.02940267  1
  O  O55  1  0.50722133  0.37085467  0.02940267  1
  O  O56  1  0.86363333  0.49277867  0.02940267  1
  O  O57  1  0.48393467  0.14791433  0.63282233  1
  O  O58  1  0.85208567  0.33602033  0.63282233  1
  O  O59  1  0.66397967  0.51606533  0.63282233  1
  O  O60  1  0.48786733  0.63042567  0.58391067  1
  O  O61  1  0.81209533  0.83603867  0.59394167  1
  O  O62  1  0.71636100  0.59897800  0.51648900  1
  O  O63  1  0.36957433  0.85744167  0.58391067  1
  O  O64  1  0.16396133  0.97605667  0.59394167  1
  O  O65  1  0.02394333  0.18790467  0.59394167  1
  O  O66  1  0.15965300  0.69431300  0.47821700  1
  O  O67  1  0.88296367  0.51635533  0.41376033  1
  O  O68  1  0.53466000  0.84034700  0.47821700  1
  O  O69  1  0.40102200  0.11738300  0.51648900  1
  O  O70  1  0.14255833  0.51213267  0.58391067  1
  O  O71  1  0.88261700  0.28363900  0.51648900  1
  O  O72  1  0.03549333  0.85107567  0.41674667  1
  O  O73  1  0.81558233  0.96450667  0.41674667  1
  O  O74  1  0.63339167  0.11703633  0.41376033  1
  O  O75  1  0.30568700  0.46534000  0.47821700  1
  O  O76  1  0.14892433  0.18441767  0.41674667  1
  O  O77  1  0.48364467  0.36660833  0.41376033  1
  O  O78  1  0.29581200  0.46970000  0.36273600  1
  O  O79  1  0.17388800  0.70418800  0.36273600  1
  O  O80  1  0.53030000  0.82611200  0.36273600  1
  O  O81  1  0.15060133  0.48124767  0.96615567  1
  O  O82  1  0.51875233  0.66935367  0.96615567  1
  O  O83  1  0.33064633  0.84939867  0.96615567  1
  O  O84  1  0.15453400  0.96375900  0.91724400  1
  O  O85  1  0.47876200  0.16937200  0.92727500  1
  O  O86  1  0.38302767  0.93231133  0.84982233  1
  O  O87  1  0.03624100  0.19077500  0.91724400  1
  O  O88  1  0.83062800  0.30939000  0.92727500  1
  O  O89  1  0.69061000  0.52123800  0.92727500  1
  O  O90  1  0.82631967  0.02764633  0.81155033  1
  O  O91  1  0.54963033  0.84968867  0.74709367  1
  O  O92  1  0.20132667  0.17368033  0.81155033  1
  O  O93  1  0.06768867  0.45071633  0.84982233  1
  O  O94  1  0.80922500  0.84546600  0.91724400  1
  O  O95  1  0.54928367  0.61697233  0.84982233  1
  O  O96  1  0.70216000  0.18440900  0.75008000  1
  O  O97  1  0.48224900  0.29784000  0.75008000  1
  O  O98  1  0.30005833  0.45036967  0.74709367  1
  O  O99  1  0.97235367  0.79867333  0.81155033  1
  O  O100  1  0.81559100  0.51775100  0.75008000  1
  O  O101  1  0.15031133  0.69994167  0.74709367  1
  O  O102  1  0.96247867  0.80303333  0.69606933  1
  O  O103  1  0.84055467  0.03752133  0.69606933  1
  O  O104  1  0.19696667  0.15944533  0.69606933  1
