# generated using pymatgen
data_Li4CuF5
_symmetry_space_group_name_H-M   'P 1'
_cell_length_a   6.75859800
_cell_length_b   6.75859800
_cell_length_c   4.09365400
_cell_angle_alpha   90.00000000
_cell_angle_beta   90.00000000
_cell_angle_gamma   90.00000000
_symmetry_Int_Tables_number   1
_chemical_formula_structural   Li4CuF5
_chemical_formula_sum   'Li8 Cu2 F10'
_cell_volume   186.99257570
_cell_formula_units_Z   2
loop_
 _symmetry_equiv_pos_site_id
 _symmetry_equiv_pos_as_xyz
  1  'x, y, z'
loop_
 _atom_site_type_symbol
 _atom_site_label
 _atom_site_symmetry_multiplicity
 _atom_site_fract_x
 _atom_site_fract_y
 _atom_site_fract_z
 _atom_site_occupancy
  Li  Li0  1  0.69260900  0.10715200  0.50000000  1
  Li  Li1  1  0.60715200  0.80739100  0.00000000  1
  Li  Li2  1  0.39284800  0.19260900  0.00000000  1
  Li  Li3  1  0.30739100  0.89284800  0.50000000  1
  Li  Li4  1  0.19260900  0.60715200  0.00000000  1
  Li  Li5  1  0.10715200  0.30739100  0.50000000  1
  Li  Li6  1  0.89284800  0.69260900  0.50000000  1
  Li  Li7  1  0.80739100  0.39284800  0.00000000  1
  Cu  Cu8  1  0.00000000  0.00000000  0.00000000  1
  Cu  Cu9  1  0.50000000  0.50000000  0.50000000  1
  F  F10  1  0.61757300  0.82230100  0.50000000  1
  F  F11  1  0.00000000  0.00000000  0.50000000  1
  F  F12  1  0.32230100  0.88242700  0.00000000  1
  F  F13  1  0.67769900  0.11757300  0.00000000  1
  F  F14  1  0.38242700  0.17769900  0.50000000  1
  F  F15  1  0.11757300  0.32230100  0.00000000  1
  F  F16  1  0.50000000  0.50000000  0.00000000  1
  F  F17  1  0.82230100  0.38242700  0.50000000  1
  F  F18  1  0.17769900  0.61757300  0.50000000  1
  F  F19  1  0.88242700  0.67769900  0.00000000  1
