# generated using pymatgen
data_PrH20S4N5O16
_symmetry_space_group_name_H-M   'P 1'
_cell_length_a   8.17186600
_cell_length_b   23.16789200
_cell_length_c   9.48292491
_cell_angle_alpha   90.00000000
_cell_angle_beta   109.67988832
_cell_angle_gamma   90.00000000
_symmetry_Int_Tables_number   1
_chemical_formula_structural   PrH20S4N5O16
_chemical_formula_sum   'Pr4 H80 S16 N20 O64'
_cell_volume   1690.48514100
_cell_formula_units_Z   4
loop_
 _symmetry_equiv_pos_site_id
 _symmetry_equiv_pos_as_xyz
  1  'x, y, z'
loop_
 _atom_site_type_symbol
 _atom_site_label
 _atom_site_symmetry_multiplicity
 _atom_site_fract_x
 _atom_site_fract_y
 _atom_site_fract_z
 _atom_site_occupancy
  Pr  Pr0  1  0.50000000  0.42387100  0.75000000  1
  Pr  Pr1  1  0.00000000  0.07612900  0.25000000  1
  Pr  Pr2  1  0.00000000  0.92387100  0.75000000  1
  Pr  Pr3  1  0.50000000  0.57612900  0.25000000  1
  H  H4  1  0.55040950  0.21938550  0.84360900  1
  H  H5  1  0.44959050  0.21938550  0.65639100  1
  H  H6  1  0.94959050  0.28061450  0.15639100  1
  H  H7  1  0.05040950  0.28061450  0.34360900  1
  H  H8  1  0.40327950  0.16798650  0.76128000  1
  H  H9  1  0.59672050  0.16798650  0.73872000  1
  H  H10  1  0.09672050  0.33201350  0.23872000  1
  H  H11  1  0.90327950  0.33201350  0.26128000  1
  H  H12  1  0.36508100  0.09242000  0.10182400  1
  H  H13  1  0.63491900  0.09242000  0.39817600  1
  H  H14  1  0.13491900  0.40758000  0.89817600  1
  H  H15  1  0.86508100  0.40758000  0.60182400  1
  H  H16  1  0.33925250  0.02452350  0.02938600  1
  H  H17  1  0.66074750  0.02452350  0.47061400  1
  H  H18  1  0.16074750  0.47547650  0.97061400  1
  H  H19  1  0.83925250  0.47547650  0.52938600  1
  H  H20  1  0.33634000  0.08136000  0.91796500  1
  H  H21  1  0.66366000  0.08136000  0.58203500  1
  H  H22  1  0.16366000  0.41864000  0.08203500  1
  H  H23  1  0.83634000  0.41864000  0.41796500  1
  H  H24  1  0.52494150  0.06314050  0.04883600  1
  H  H25  1  0.47505850  0.06314050  0.45116400  1
  H  H26  1  0.97505850  0.43685950  0.95116400  1
  H  H27  1  0.02494150  0.43685950  0.54883600  1
  H  H28  1  0.82616650  0.20496950  0.45665300  1
  H  H29  1  0.17383350  0.20496950  0.04334700  1
  H  H30  1  0.67383350  0.29503050  0.54334700  1
  H  H31  1  0.32616650  0.29503050  0.95665300  1
  H  H32  1  0.89110400  0.22515900  0.63998800  1
  H  H33  1  0.10889600  0.22515900  0.86001200  1
  H  H34  1  0.60889600  0.27484100  0.36001200  1
  H  H35  1  0.39110400  0.27484100  0.13998800  1
  H  H36  1  0.93047650  0.15591750  0.58901900  1
  H  H37  1  0.06952350  0.15591750  0.91098100  1
  H  H38  1  0.56952350  0.34408250  0.41098100  1
  H  H39  1  0.43047650  0.34408250  0.08901900  1
  H  H40  1  0.03596000  0.21209000  0.55144900  1
  H  H41  1  0.96404000  0.21209000  0.94855100  1
  H  H42  1  0.46404000  0.28791000  0.44855100  1
  H  H43  1  0.53596000  0.28791000  0.05144900  1
  H  H44  1  0.05040950  0.71938550  0.84360900  1
  H  H45  1  0.94959050  0.71938550  0.65639100  1
  H  H46  1  0.44959050  0.78061450  0.15639100  1
  H  H47  1  0.55040950  0.78061450  0.34360900  1
  H  H48  1  0.90327950  0.66798650  0.76128000  1
  H  H49  1  0.09672050  0.66798650  0.73872000  1
  H  H50  1  0.59672050  0.83201350  0.23872000  1
  H  H51  1  0.40327950  0.83201350  0.26128000  1
  H  H52  1  0.86508100  0.59242000  0.10182400  1
  H  H53  1  0.13491900  0.59242000  0.39817600  1
  H  H54  1  0.63491900  0.90758000  0.89817600  1
  H  H55  1  0.36508100  0.90758000  0.60182400  1
  H  H56  1  0.83925250  0.52452350  0.02938600  1
  H  H57  1  0.16074750  0.52452350  0.47061400  1
  H  H58  1  0.66074750  0.97547650  0.97061400  1
  H  H59  1  0.33925250  0.97547650  0.52938600  1
  H  H60  1  0.83634000  0.58136000  0.91796500  1
  H  H61  1  0.16366000  0.58136000  0.58203500  1
  H  H62  1  0.66366000  0.91864000  0.08203500  1
  H  H63  1  0.33634000  0.91864000  0.41796500  1
  H  H64  1  0.02494150  0.56314050  0.04883600  1
  H  H65  1  0.97505850  0.56314050  0.45116400  1
  H  H66  1  0.47505850  0.93685950  0.95116400  1
  H  H67  1  0.52494150  0.93685950  0.54883600  1
  H  H68  1  0.32616650  0.70496950  0.45665300  1
  H  H69  1  0.67383350  0.70496950  0.04334700  1
  H  H70  1  0.17383350  0.79503050  0.54334700  1
  H  H71  1  0.82616650  0.79503050  0.95665300  1
  H  H72  1  0.39110400  0.72515900  0.63998800  1
  H  H73  1  0.60889600  0.72515900  0.86001200  1
  H  H74  1  0.10889600  0.77484100  0.36001200  1
  H  H75  1  0.89110400  0.77484100  0.13998800  1
  H  H76  1  0.43047650  0.65591750  0.58901900  1
  H  H77  1  0.56952350  0.65591750  0.91098100  1
  H  H78  1  0.06952350  0.84408250  0.41098100  1
  H  H79  1  0.93047650  0.84408250  0.08901900  1
  H  H80  1  0.53596000  0.71209000  0.55144900  1
  H  H81  1  0.46404000  0.71209000  0.94855100  1
  H  H82  1  0.96404000  0.78791000  0.44855100  1
  H  H83  1  0.03596000  0.78791000  0.05144900  1
  S  S84  1  0.83794000  0.06113700  0.87916600  1
  S  S85  1  0.16206000  0.06113700  0.62083400  1
  S  S86  1  0.66206000  0.43886300  0.12083400  1
  S  S87  1  0.33794000  0.43886300  0.37916600  1
  S  S88  1  0.20666700  0.32219300  0.66647900  1
  S  S89  1  0.79333300  0.32219300  0.83352100  1
  S  S90  1  0.29333300  0.17780700  0.33352100  1
  S  S91  1  0.70666700  0.17780700  0.16647900  1
  S  S92  1  0.33794000  0.56113700  0.87916600  1
  S  S93  1  0.66206000  0.56113700  0.62083400  1
  S  S94  1  0.16206000  0.93886300  0.12083400  1
  S  S95  1  0.83794000  0.93886300  0.37916600  1
  S  S96  1  0.70666700  0.82219300  0.66647900  1
  S  S97  1  0.29333300  0.82219300  0.83352100  1
  S  S98  1  0.79333300  0.67780700  0.33352100  1
  S  S99  1  0.20666700  0.67780700  0.16647900  1
  N  N100  1  0.50000000  0.19439000  0.75000000  1
  N  N101  1  0.00000000  0.30561000  0.25000000  1
  N  N102  1  0.39262850  0.06507650  0.02591900  1
  N  N103  1  0.60737150  0.06507650  0.47408100  1
  N  N104  1  0.10737150  0.43492350  0.97408100  1
  N  N105  1  0.89262850  0.43492350  0.52591900  1
  N  N106  1  0.92018300  0.19916200  0.56209300  1
  N  N107  1  0.07981700  0.19916200  0.93790700  1
  N  N108  1  0.57981700  0.30083800  0.43790700  1
  N  N109  1  0.42018300  0.30083800  0.06209300  1
  N  N110  1  0.00000000  0.69439000  0.75000000  1
  N  N111  1  0.50000000  0.80561000  0.25000000  1
  N  N112  1  0.89262850  0.56507650  0.02591900  1
  N  N113  1  0.10737150  0.56507650  0.47408100  1
  N  N114  1  0.60737150  0.93492350  0.97408100  1
  N  N115  1  0.39262850  0.93492350  0.52591900  1
  N  N116  1  0.42018300  0.69916200  0.56209300  1
  N  N117  1  0.57981700  0.69916200  0.93790700  1
  N  N118  1  0.07981700  0.80083800  0.43790700  1
  N  N119  1  0.92018300  0.80083800  0.06209300  1
  O  O120  1  0.01994000  0.07564700  0.97446600  1
  O  O121  1  0.98006000  0.07564700  0.52553400  1
  O  O122  1  0.48006000  0.42435300  0.02553400  1
  O  O123  1  0.51994000  0.42435300  0.47446600  1
  O  O124  1  0.82950000  0.00821100  0.78811500  1
  O  O125  1  0.17050000  0.00821100  0.71188500  1
  O  O126  1  0.67050000  0.49178900  0.21188500  1
  O  O127  1  0.32950000  0.49178900  0.28811500  1
  O  O128  1  0.74230800  0.05022900  0.98794800  1
  O  O129  1  0.25769200  0.05022900  0.51205200  1
  O  O130  1  0.75769200  0.44977100  0.01205200  1
  O  O131  1  0.24230800  0.44977100  0.48794800  1
  O  O132  1  0.76123300  0.10958300  0.77534000  1
  O  O133  1  0.23876700  0.10958300  0.72466000  1
  O  O134  1  0.73876700  0.39041700  0.22466000  1
  O  O135  1  0.26123300  0.39041700  0.27534000  1
  O  O136  1  0.22657450  0.37660750  0.76009000  1
  O  O137  1  0.77342550  0.37660750  0.73991000  1
  O  O138  1  0.27342550  0.12339250  0.23991000  1
  O  O139  1  0.72657450  0.12339250  0.26009000  1
  O  O140  1  0.22901300  0.27076100  0.76653600  1
  O  O141  1  0.77098700  0.27076100  0.73346400  1
  O  O142  1  0.27098700  0.22923900  0.23346400  1
  O  O143  1  0.72901300  0.22923900  0.26653600  1
  O  O144  1  0.03530800  0.31996800  0.54872000  1
  O  O145  1  0.96469200  0.31996800  0.95128000  1
  O  O146  1  0.46469200  0.18003200  0.45128000  1
  O  O147  1  0.53530800  0.18003200  0.04872000  1
  O  O148  1  0.35215300  0.32517400  0.60395500  1
  O  O149  1  0.64784700  0.32517400  0.89604500  1
  O  O150  1  0.14784700  0.17482600  0.39604500  1
  O  O151  1  0.85215300  0.17482600  0.10395500  1
  O  O152  1  0.51994000  0.57564700  0.97446600  1
  O  O153  1  0.48006000  0.57564700  0.52553400  1
  O  O154  1  0.98006000  0.92435300  0.02553400  1
  O  O155  1  0.01994000  0.92435300  0.47446600  1
  O  O156  1  0.32950000  0.50821100  0.78811500  1
  O  O157  1  0.67050000  0.50821100  0.71188500  1
  O  O158  1  0.17050000  0.99178900  0.21188500  1
  O  O159  1  0.82950000  0.99178900  0.28811500  1
  O  O160  1  0.24230800  0.55022900  0.98794800  1
  O  O161  1  0.75769200  0.55022900  0.51205200  1
  O  O162  1  0.25769200  0.94977100  0.01205200  1
  O  O163  1  0.74230800  0.94977100  0.48794800  1
  O  O164  1  0.26123300  0.60958300  0.77534000  1
  O  O165  1  0.73876700  0.60958300  0.72466000  1
  O  O166  1  0.23876700  0.89041700  0.22466000  1
  O  O167  1  0.76123300  0.89041700  0.27534000  1
  O  O168  1  0.72657450  0.87660750  0.76009000  1
  O  O169  1  0.27342550  0.87660750  0.73991000  1
  O  O170  1  0.77342550  0.62339250  0.23991000  1
  O  O171  1  0.22657450  0.62339250  0.26009000  1
  O  O172  1  0.72901300  0.77076100  0.76653600  1
  O  O173  1  0.27098700  0.77076100  0.73346400  1
  O  O174  1  0.77098700  0.72923900  0.23346400  1
  O  O175  1  0.22901300  0.72923900  0.26653600  1
  O  O176  1  0.53530800  0.81996800  0.54872000  1
  O  O177  1  0.46469200  0.81996800  0.95128000  1
  O  O178  1  0.96469200  0.68003200  0.45128000  1
  O  O179  1  0.03530800  0.68003200  0.04872000  1
  O  O180  1  0.85215300  0.82517400  0.60395500  1
  O  O181  1  0.14784700  0.82517400  0.89604500  1
  O  O182  1  0.64784700  0.67482600  0.39604500  1
  O  O183  1  0.35215300  0.67482600  0.10395500  1
