# generated using pymatgen
data_Ca7Si6H4CO23
_symmetry_space_group_name_H-M   'P 1'
_cell_length_a   11.11174200
_cell_length_b   15.34357600
_cell_length_c   6.69318619
_cell_angle_alpha   90.00000000
_cell_angle_beta   115.38497420
_cell_angle_gamma   90.00000000
_symmetry_Int_Tables_number   1
_chemical_formula_structural   Ca7Si6H4CO23
_chemical_formula_sum   'Ca14 Si12 H8 C2 O46'
_cell_volume   1030.96681088
_cell_formula_units_Z   2
loop_
 _symmetry_equiv_pos_site_id
 _symmetry_equiv_pos_as_xyz
  1  'x, y, z'
loop_
 _atom_site_type_symbol
 _atom_site_label
 _atom_site_symmetry_multiplicity
 _atom_site_fract_x
 _atom_site_fract_y
 _atom_site_fract_z
 _atom_site_occupancy
  Ca  Ca0  1  0.99803500  0.00000000  0.45994800  1
  Ca  Ca1  1  0.19206000  0.86504700  0.00068600  1
  Ca  Ca2  1  0.19206000  0.13495300  0.00068600  1
  Ca  Ca3  1  0.48918100  0.25009500  0.48577500  1
  Ca  Ca4  1  0.48918100  0.74990500  0.48577500  1
  Ca  Ca5  1  0.77119500  0.85384000  0.97412700  1
  Ca  Ca6  1  0.77119500  0.14616000  0.97412700  1
  Ca  Ca7  1  0.49803500  0.50000000  0.45994800  1
  Ca  Ca8  1  0.69206000  0.36504700  0.00068600  1
  Ca  Ca9  1  0.69206000  0.63495300  0.00068600  1
  Ca  Ca10  1  0.98918100  0.75009500  0.48577500  1
  Ca  Ca11  1  0.98918100  0.24990500  0.48577500  1
  Ca  Ca12  1  0.27119500  0.35384000  0.97412700  1
  Ca  Ca13  1  0.27119500  0.64616000  0.97412700  1
  Si  Si14  1  0.71600250  0.89594850  0.42116800  1
  Si  Si15  1  0.71600250  0.10405150  0.42116800  1
  Si  Si16  1  0.48649650  0.82340150  0.98389800  1
  Si  Si17  1  0.48649650  0.17659850  0.98389800  1
  Si  Si18  1  0.26517450  0.89508350  0.55608000  1
  Si  Si19  1  0.26517450  0.10491650  0.55608000  1
  Si  Si20  1  0.21600250  0.39594850  0.42116800  1
  Si  Si21  1  0.21600250  0.60405150  0.42116800  1
  Si  Si22  1  0.98649650  0.32340150  0.98389800  1
  Si  Si23  1  0.98649650  0.67659850  0.98389800  1
  Si  Si24  1  0.76517450  0.39508350  0.55608000  1
  Si  Si25  1  0.76517450  0.60491650  0.55608000  1
  H  H26  1  0.33565300  0.00000000  0.29311300  1
  H  H27  1  0.42889600  0.00000000  0.16512500  1
  H  H28  1  0.66102800  0.00000000  0.70356700  1
  H  H29  1  0.57241400  0.00000000  0.84180200  1
  H  H30  1  0.83565300  0.50000000  0.29311300  1
  H  H31  1  0.92889600  0.50000000  0.16512500  1
  H  H32  1  0.16102800  0.50000000  0.70356700  1
  H  H33  1  0.07241400  0.50000000  0.84180200  1
  C  C34  1  0.00080600  0.00000000  0.99862400  1
  C  C35  1  0.50080600  0.50000000  0.99862400  1
  O  O36  1  0.84822800  0.87917500  0.37972600  1
  O  O37  1  0.84822800  0.12082500  0.37972600  1
  O  O38  1  0.71737600  0.00000000  0.50248000  1
  O  O39  1  0.58961300  0.89049700  0.17274300  1
  O  O40  1  0.58961300  0.10950300  0.17274300  1
  O  O41  1  0.68801050  0.83703850  0.59547200  1
  O  O42  1  0.68801050  0.16296150  0.59547200  1
  O  O43  1  0.57203750  0.76389850  0.88911600  1
  O  O44  1  0.57203750  0.23610150  0.88911600  1
  O  O45  1  0.39321500  0.77286800  0.07789100  1
  O  O46  1  0.39321500  0.22713200  0.07789100  1
  O  O47  1  0.39917850  0.89581350  0.79452700  1
  O  O48  1  0.39917850  0.10418650  0.79452700  1
  O  O49  1  0.29105450  0.83738950  0.37809800  1
  O  O50  1  0.29105450  0.16261050  0.37809800  1
  O  O51  1  0.13733850  0.87343850  0.60557200  1
  O  O52  1  0.13733850  0.12656150  0.60557200  1
  O  O53  1  0.24654700  0.00000000  0.46791800  1
  O  O54  1  0.47730750  0.42666450  0.07098700  1
  O  O55  1  0.47730750  0.57333550  0.07098700  1
  O  O56  1  0.05799100  0.00000000  0.86433300  1
  O  O57  1  0.33635300  0.00000000  0.14532400  1
  O  O58  1  0.66411400  0.00000000  0.85583600  1
  O  O59  1  0.34822800  0.37917500  0.37972600  1
  O  O60  1  0.34822800  0.62082500  0.37972600  1
  O  O61  1  0.21737600  0.50000000  0.50248000  1
  O  O62  1  0.08961300  0.39049700  0.17274300  1
  O  O63  1  0.08961300  0.60950300  0.17274300  1
  O  O64  1  0.18801050  0.33703850  0.59547200  1
  O  O65  1  0.18801050  0.66296150  0.59547200  1
  O  O66  1  0.07203750  0.26389850  0.88911600  1
  O  O67  1  0.07203750  0.73610150  0.88911600  1
  O  O68  1  0.89321500  0.27286800  0.07789100  1
  O  O69  1  0.89321500  0.72713200  0.07789100  1
  O  O70  1  0.89917850  0.39581350  0.79452700  1
  O  O71  1  0.89917850  0.60418650  0.79452700  1
  O  O72  1  0.79105450  0.33738950  0.37809800  1
  O  O73  1  0.79105450  0.66261050  0.37809800  1
  O  O74  1  0.63733850  0.37343850  0.60557200  1
  O  O75  1  0.63733850  0.62656150  0.60557200  1
  O  O76  1  0.74654700  0.50000000  0.46791800  1
  O  O77  1  0.97730750  0.92666450  0.07098700  1
  O  O78  1  0.97730750  0.07333550  0.07098700  1
  O  O79  1  0.55799100  0.50000000  0.86433300  1
  O  O80  1  0.83635300  0.50000000  0.14532400  1
  O  O81  1  0.16411400  0.50000000  0.85583600  1
