# generated using pymatgen
data_Cd(AgO2)2
_symmetry_space_group_name_H-M   'P 1'
_cell_length_a   6.70518600
_cell_length_b   10.22761000
_cell_length_c   13.16907000
_cell_angle_alpha   90.00000000
_cell_angle_beta   90.00000000
_cell_angle_gamma   90.00000000
_symmetry_Int_Tables_number   1
_chemical_formula_structural   Cd(AgO2)2
_chemical_formula_sum   'Cd8 Ag16 O32'
_cell_volume   903.10884310
_cell_formula_units_Z   8
loop_
 _symmetry_equiv_pos_site_id
 _symmetry_equiv_pos_as_xyz
  1  'x, y, z'
loop_
 _atom_site_type_symbol
 _atom_site_label
 _atom_site_symmetry_multiplicity
 _atom_site_fract_x
 _atom_site_fract_y
 _atom_site_fract_z
 _atom_site_occupancy
  Cd  Cd0  1  0.75000000  0.25000000  0.25000000  1
  Cd  Cd1  1  0.50000000  0.00000000  0.00000000  1
  Cd  Cd2  1  0.75000000  0.75000000  0.75000000  1
  Cd  Cd3  1  0.50000000  0.50000000  0.50000000  1
  Cd  Cd4  1  0.25000000  0.25000000  0.75000000  1
  Cd  Cd5  1  0.00000000  0.00000000  0.50000000  1
  Cd  Cd6  1  0.25000000  0.75000000  0.25000000  1
  Cd  Cd7  1  0.00000000  0.50000000  0.00000000  1
  Ag  Ag8  1  0.75000000  0.75000000  0.12780600  1
  Ag  Ag9  1  0.50000000  0.00000000  0.37780600  1
  Ag  Ag10  1  0.75000000  0.75000000  0.37219400  1
  Ag  Ag11  1  0.00000000  0.00000000  0.12219400  1
  Ag  Ag12  1  0.75000000  0.25000000  0.62780600  1
  Ag  Ag13  1  0.50000000  0.50000000  0.87780600  1
  Ag  Ag14  1  0.75000000  0.25000000  0.87219400  1
  Ag  Ag15  1  0.00000000  0.50000000  0.62219400  1
  Ag  Ag16  1  0.25000000  0.75000000  0.62780600  1
  Ag  Ag17  1  0.00000000  0.00000000  0.87780600  1
  Ag  Ag18  1  0.25000000  0.75000000  0.87219400  1
  Ag  Ag19  1  0.50000000  0.00000000  0.62219400  1
  Ag  Ag20  1  0.25000000  0.25000000  0.12780600  1
  Ag  Ag21  1  0.00000000  0.50000000  0.37780600  1
  Ag  Ag22  1  0.25000000  0.25000000  0.37219400  1
  Ag  Ag23  1  0.50000000  0.50000000  0.12219400  1
  O  O24  1  0.04371450  0.69689050  0.37561400  1
  O  O25  1  0.70628550  0.94689050  0.12561400  1
  O  O26  1  0.45628550  0.69689050  0.12438600  1
  O  O27  1  0.95628550  0.30310950  0.37561400  1
  O  O28  1  0.29371450  0.05310950  0.12561400  1
  O  O29  1  0.79371450  0.94689050  0.37438600  1
  O  O30  1  0.54371450  0.30310950  0.12438600  1
  O  O31  1  0.20628550  0.05310950  0.37438600  1
  O  O32  1  0.04371450  0.19689050  0.87561400  1
  O  O33  1  0.70628550  0.44689050  0.62561400  1
  O  O34  1  0.45628550  0.19689050  0.62438600  1
  O  O35  1  0.95628550  0.80310950  0.87561400  1
  O  O36  1  0.29371450  0.55310950  0.62561400  1
  O  O37  1  0.79371450  0.44689050  0.87438600  1
  O  O38  1  0.54371450  0.80310950  0.62438600  1
  O  O39  1  0.20628550  0.55310950  0.87438600  1
  O  O40  1  0.54371450  0.69689050  0.87561400  1
  O  O41  1  0.20628550  0.94689050  0.62561400  1
  O  O42  1  0.95628550  0.69689050  0.62438600  1
  O  O43  1  0.45628550  0.30310950  0.87561400  1
  O  O44  1  0.79371450  0.05310950  0.62561400  1
  O  O45  1  0.29371450  0.94689050  0.87438600  1
  O  O46  1  0.04371450  0.30310950  0.62438600  1
  O  O47  1  0.70628550  0.05310950  0.87438600  1
  O  O48  1  0.54371450  0.19689050  0.37561400  1
  O  O49  1  0.20628550  0.44689050  0.12561400  1
  O  O50  1  0.95628550  0.19689050  0.12438600  1
  O  O51  1  0.45628550  0.80310950  0.37561400  1
  O  O52  1  0.79371450  0.55310950  0.12561400  1
  O  O53  1  0.29371450  0.44689050  0.37438600  1
  O  O54  1  0.04371450  0.80310950  0.12438600  1
  O  O55  1  0.70628550  0.55310950  0.37438600  1
