# generated using pymatgen
data_TiBi2O5
_symmetry_space_group_name_H-M   'P 1'
_cell_length_a   4.06774000
_cell_length_b   12.33064800
_cell_length_c   10.42153200
_cell_angle_alpha   90.00000000
_cell_angle_beta   90.00000000
_cell_angle_gamma   90.00000000
_symmetry_Int_Tables_number   1
_chemical_formula_structural   TiBi2O5
_chemical_formula_sum   'Ti4 Bi8 O20'
_cell_volume   522.72184825
_cell_formula_units_Z   4
loop_
 _symmetry_equiv_pos_site_id
 _symmetry_equiv_pos_as_xyz
  1  'x, y, z'
loop_
 _atom_site_type_symbol
 _atom_site_label
 _atom_site_symmetry_multiplicity
 _atom_site_fract_x
 _atom_site_fract_y
 _atom_site_fract_z
 _atom_site_occupancy
  Ti  Ti0  1  0.50000000  0.33590100  0.75000000  1
  Ti  Ti1  1  0.00000000  0.16409900  0.25000000  1
  Ti  Ti2  1  0.00000000  0.83590100  0.75000000  1
  Ti  Ti3  1  0.50000000  0.66409900  0.25000000  1
  Bi  Bi4  1  0.50000000  0.35699600  0.42641900  1
  Bi  Bi5  1  0.50000000  0.35699600  0.07358100  1
  Bi  Bi6  1  0.00000000  0.14300400  0.57358100  1
  Bi  Bi7  1  0.00000000  0.14300400  0.92641900  1
  Bi  Bi8  1  0.00000000  0.85699600  0.42641900  1
  Bi  Bi9  1  0.00000000  0.85699600  0.07358100  1
  Bi  Bi10  1  0.50000000  0.64300400  0.57358100  1
  Bi  Bi11  1  0.50000000  0.64300400  0.92641900  1
  O  O12  1  0.50000000  0.43727200  0.87966900  1
  O  O13  1  0.50000000  0.43727200  0.62033100  1
  O  O14  1  0.00000000  0.27713600  0.41603100  1
  O  O15  1  0.00000000  0.27713600  0.08396900  1
  O  O16  1  0.50000000  0.20915400  0.25000000  1
  O  O17  1  0.00000000  0.29084600  0.75000000  1
  O  O18  1  0.50000000  0.22286400  0.58396900  1
  O  O19  1  0.50000000  0.22286400  0.91603100  1
  O  O20  1  0.00000000  0.06272800  0.12033100  1
  O  O21  1  0.00000000  0.06272800  0.37966900  1
  O  O22  1  0.00000000  0.93727200  0.87966900  1
  O  O23  1  0.00000000  0.93727200  0.62033100  1
  O  O24  1  0.50000000  0.77713600  0.41603100  1
  O  O25  1  0.50000000  0.77713600  0.08396900  1
  O  O26  1  0.00000000  0.70915400  0.25000000  1
  O  O27  1  0.50000000  0.79084600  0.75000000  1
  O  O28  1  0.00000000  0.72286400  0.58396900  1
  O  O29  1  0.00000000  0.72286400  0.91603100  1
  O  O30  1  0.50000000  0.56272800  0.12033100  1
  O  O31  1  0.50000000  0.56272800  0.37966900  1
