# generated using pymatgen
data_AlCuH28S2ClO22
_symmetry_space_group_name_H-M   'P 1'
_cell_length_a   6.26227700
_cell_length_b   6.30992089
_cell_length_c   13.42177896
_cell_angle_alpha   82.52479449
_cell_angle_beta   88.77079239
_cell_angle_gamma   85.33614665
_symmetry_Int_Tables_number   1
_chemical_formula_structural   AlCuH28S2ClO22
_chemical_formula_sum   'Al1 Cu1 H28 S2 Cl1 O22'
_cell_volume   524.07429478
_cell_formula_units_Z   1
loop_
 _symmetry_equiv_pos_site_id
 _symmetry_equiv_pos_as_xyz
  1  'x, y, z'
loop_
 _atom_site_type_symbol
 _atom_site_label
 _atom_site_symmetry_multiplicity
 _atom_site_fract_x
 _atom_site_fract_y
 _atom_site_fract_z
 _atom_site_occupancy
  Al  Al0  1  0.50000000  0.50000000  0.00000000  1
  Cu  Cu1  1  0.00000000  0.50000000  0.50000000  1
  H  H2  1  0.64978900  0.72114900  0.13069900  1
  H  H3  1  0.35021100  0.27885100  0.86930100  1
  H  H4  1  0.57772300  0.49575300  0.19111300  1
  H  H5  1  0.42227700  0.50424700  0.80888700  1
  H  H6  1  0.53023500  0.12329300  0.10257800  1
  H  H7  1  0.46976500  0.87670700  0.89742200  1
  H  H8  1  0.27264900  0.20251400  0.09292400  1
  H  H9  1  0.72735100  0.79748600  0.90707600  1
  H  H10  1  0.17603300  0.69224400  0.08685900  1
  H  H11  1  0.82396700  0.30775600  0.91314100  1
  H  H12  1  0.87279900  0.29773000  0.03194600  1
  H  H13  1  0.12720100  0.70227000  0.96805400  1
  H  H14  1  0.65008100  0.50771900  0.38867500  1
  H  H15  1  0.34991900  0.49228100  0.61132500  1
  H  H16  1  0.63494600  0.71032900  0.45642100  1
  H  H17  1  0.36505400  0.28967100  0.54357900  1
  H  H18  1  0.78527000  0.14998100  0.52982500  1
  H  H19  1  0.21473000  0.85001900  0.47017500  1
  H  H20  1  0.00546000  0.88512900  0.40032100  1
  H  H21  1  0.99454000  0.11487100  0.59967900  1
  H  H22  1  0.04363900  0.27856200  0.31586300  1
  H  H23  1  0.95636100  0.72143800  0.68413700  1
  H  H24  1  0.08081300  0.52565600  0.28321400  1
  H  H25  1  0.91918700  0.47434400  0.71678600  1
  H  H26  1  0.39130200  0.36246400  0.31771700  1
  H  H27  1  0.60869800  0.63753600  0.68228300  1
  H  H28  1  0.62333300  0.23032000  0.31192200  1
  H  H29  1  0.37666700  0.76968000  0.68807800  1
  S  S30  1  0.93285700  0.98464500  0.18932700  1
  S  S31  1  0.06714300  0.01535500  0.81067300  1
  Cl  Cl32  1  0.50000000  0.00000000  0.50000000  1
  O  O33  1  0.90759100  0.05388300  0.29182100  1
  O  O34  1  0.09240900  0.94611700  0.70817900  1
  O  O35  1  0.71624100  0.94881600  0.15225200  1
  O  O36  1  0.28375900  0.05118400  0.84774800  1
  O  O37  1  0.02310400  0.15904500  0.11856000  1
  O  O38  1  0.97689600  0.84095500  0.88144000  1
  O  O39  1  0.07623400  0.78451500  0.19370000  1
  O  O40  1  0.92376600  0.21548500  0.80630000  1
  O  O41  1  0.59799200  0.57787000  0.12211800  1
  O  O42  1  0.40200800  0.42213000  0.87788200  1
  O  O43  1  0.42175800  0.23628400  0.07093300  1
  O  O44  1  0.57824200  0.76371600  0.92906700  1
  O  O45  1  0.22073400  0.62936500  0.02429200  1
  O  O46  1  0.77926600  0.37063500  0.97570800  1
  O  O47  1  0.71480800  0.57392400  0.44367200  1
  O  O48  1  0.28519200  0.42607600  0.55632800  1
  O  O49  1  0.07167100  0.79867900  0.46049300  1
  O  O50  1  0.92832900  0.20132100  0.53950700  1
  O  O51  1  0.12443300  0.39900600  0.33172100  1
  O  O52  1  0.87556700  0.60099400  0.66827900  1
  O  O53  1  0.54886400  0.37483800  0.30207300  1
  O  O54  1  0.45113600  0.62516200  0.69792700  1
