# generated using pymatgen
data_LiMnNbO4
_symmetry_space_group_name_H-M   'P 1'
_cell_length_a   6.18143534
_cell_length_b   6.22740400
_cell_length_c   9.08416972
_cell_angle_alpha   90.00000000
_cell_angle_beta   90.00000000
_cell_angle_gamma   90.00000000
_symmetry_Int_Tables_number   1
_chemical_formula_structural   LiMnNbO4
_chemical_formula_sum   'Li4 Mn4 Nb4 O16'
_cell_volume   349.68871023
_cell_formula_units_Z   4
loop_
 _symmetry_equiv_pos_site_id
 _symmetry_equiv_pos_as_xyz
  1  'x, y, z'
loop_
 _atom_site_type_symbol
 _atom_site_label
 _atom_site_symmetry_multiplicity
 _atom_site_fract_x
 _atom_site_fract_y
 _atom_site_fract_z
 _atom_site_occupancy
  Li  Li0  1  0.50000000  0.25000000  0.14736300  1
  Li  Li1  1  0.00000000  0.25000000  0.35263700  1
  Li  Li2  1  0.00000000  0.75000000  0.64736300  1
  Li  Li3  1  0.50000000  0.75000000  0.85263700  1
  Mn  Mn4  1  0.25000000  0.75000000  0.25000000  1
  Mn  Mn5  1  0.75000000  0.75000000  0.25000000  1
  Mn  Mn6  1  0.75000000  0.25000000  0.75000000  1
  Mn  Mn7  1  0.25000000  0.25000000  0.75000000  1
  Nb  Nb8  1  0.50000000  0.00000000  0.50000000  1
  Nb  Nb9  1  0.00000000  0.00000000  0.00000000  1
  Nb  Nb10  1  0.00000000  0.50000000  0.00000000  1
  Nb  Nb11  1  0.50000000  0.50000000  0.50000000  1
  O  O12  1  0.50000000  0.98616700  0.28160450  1
  O  O13  1  0.50000000  0.51383300  0.28160450  1
  O  O14  1  0.00000000  0.98616700  0.21839550  1
  O  O15  1  0.00000000  0.51383300  0.21839550  1
  O  O16  1  0.78102450  0.25000000  0.00264650  1
  O  O17  1  0.21897550  0.25000000  0.00264650  1
  O  O18  1  0.71897550  0.25000000  0.49735350  1
  O  O19  1  0.28102450  0.25000000  0.49735350  1
  O  O20  1  0.00000000  0.48616700  0.78160450  1
  O  O21  1  0.00000000  0.01383300  0.78160450  1
  O  O22  1  0.50000000  0.48616700  0.71839550  1
  O  O23  1  0.50000000  0.01383300  0.71839550  1
  O  O24  1  0.28102450  0.75000000  0.50264650  1
  O  O25  1  0.71897550  0.75000000  0.50264650  1
  O  O26  1  0.21897550  0.75000000  0.99735350  1
  O  O27  1  0.78102450  0.75000000  0.99735350  1
