# generated using pymatgen
data_Li4Nb2Fe3O10
_symmetry_space_group_name_H-M   'P 1'
_cell_length_a   5.33940882
_cell_length_b   5.43452353
_cell_length_c   8.10736821
_cell_angle_alpha   100.90055786
_cell_angle_beta   108.85917786
_cell_angle_gamma   101.91157758
_symmetry_Int_Tables_number   1
_chemical_formula_structural   Li4Nb2Fe3O10
_chemical_formula_sum   'Li4 Nb2 Fe3 O10'
_cell_volume   209.35080257
_cell_formula_units_Z   1
loop_
 _symmetry_equiv_pos_site_id
 _symmetry_equiv_pos_as_xyz
  1  'x, y, z'
loop_
 _atom_site_type_symbol
 _atom_site_label
 _atom_site_symmetry_multiplicity
 _atom_site_fract_x
 _atom_site_fract_y
 _atom_site_fract_z
 _atom_site_occupancy
  Li  Li0  1  0.84552150  0.25351450  0.38482050  1
  Li  Li1  1  0.15447850  0.74648550  0.61517950  1
  Li  Li2  1  0.33838050  0.38096600  0.76293950  1
  Li  Li3  1  0.66161950  0.61903400  0.23706050  1
  Nb  Nb4  1  0.75014700  0.09160250  0.69150600  1
  Nb  Nb5  1  0.24985300  0.90839750  0.30849400  1
  Fe  Fe6  1  0.50000000  0.00000000  0.00000000  1
  Fe  Fe7  1  0.89816950  0.67472050  0.88269950  1
  Fe  Fe8  1  0.10183050  0.32527950  0.11730050  1
  O  O9  1  0.94554800  0.41355650  0.66157700  1
  O  O10  1  0.05445200  0.58644350  0.33842300  1
  O  O11  1  0.45280850  0.22060150  0.22390250  1
  O  O12  1  0.54719150  0.77939850  0.77609750  1
  O  O13  1  0.33936750  0.11197550  0.55646650  1
  O  O14  1  0.66063250  0.88802450  0.44353350  1
  O  O15  1  0.71673800  0.31451700  0.92032800  1
  O  O16  1  0.28326200  0.68548300  0.07967200  1
  O  O17  1  0.91031650  0.98041450  0.17726150  1
  O  O18  1  0.08968350  0.01958550  0.82273850  1
