# generated using pymatgen
data_La2Nb2N2O5
_symmetry_space_group_name_H-M   'P 1'
_cell_length_a   10.76666200
_cell_length_b   10.78558200
_cell_length_c   7.61453073
_cell_angle_alpha   90.00000000
_cell_angle_beta   134.89932266
_cell_angle_gamma   90.00000000
_symmetry_Int_Tables_number   1
_chemical_formula_structural   La2Nb2N2O5
_chemical_formula_sum   'La8 Nb8 N8 O20'
_cell_volume   626.34640884
_cell_formula_units_Z   4
loop_
 _symmetry_equiv_pos_site_id
 _symmetry_equiv_pos_as_xyz
  1  'x, y, z'
loop_
 _atom_site_type_symbol
 _atom_site_label
 _atom_site_symmetry_multiplicity
 _atom_site_fract_x
 _atom_site_fract_y
 _atom_site_fract_z
 _atom_site_occupancy
  La  La0  1  0.75289700  0.87266400  0.25509000  1
  La  La1  1  0.49863800  0.12812500  0.74742300  1
  La  La2  1  0.50136200  0.12812500  0.25257700  1
  La  La3  1  0.24710300  0.87266400  0.74491000  1
  La  La4  1  0.25289700  0.37266400  0.25509000  1
  La  La5  1  0.99863800  0.62812500  0.74742300  1
  La  La6  1  0.00136200  0.62812500  0.25257700  1
  La  La7  1  0.74710300  0.37266400  0.74491000  1
  Nb  Nb8  1  0.51113950  0.62011550  0.76353700  1
  Nb  Nb9  1  0.25670600  0.88051300  0.25567800  1
  Nb  Nb10  1  0.74329400  0.88051300  0.74432200  1
  Nb  Nb11  1  0.48886050  0.62011550  0.23646300  1
  Nb  Nb12  1  0.01113950  0.12011550  0.76353700  1
  Nb  Nb13  1  0.75670600  0.38051300  0.25567800  1
  Nb  Nb14  1  0.24329400  0.38051300  0.74432200  1
  Nb  Nb15  1  0.98886050  0.12011550  0.23646300  1
  N  N16  1  0.19046300  0.99996900  0.99547500  1
  N  N17  1  0.50000000  0.94312800  0.50000000  1
  N  N18  1  0.50000000  0.25131300  0.50000000  1
  N  N19  1  0.80953700  0.99996900  0.00452500  1
  N  N20  1  0.69046300  0.49996900  0.99547500  1
  N  N21  1  0.00000000  0.44312800  0.50000000  1
  N  N22  1  0.00000000  0.75131300  0.50000000  1
  N  N23  1  0.30953700  0.49996900  0.00452500  1
  O  O24  1  0.80306700  0.00096600  0.60222900  1
  O  O25  1  0.50000000  0.69855000  0.00000000  1
  O  O26  1  0.50000000  0.29706100  0.00000000  1
  O  O27  1  0.19693300  0.00096600  0.39777100  1
  O  O28  1  0.50000000  0.99829800  0.00000000  1
  O  O29  1  0.29942050  0.75041550  0.49995100  1
  O  O30  1  0.69560500  0.74987500  0.89297500  1
  O  O31  1  0.50000000  0.55636500  0.50000000  1
  O  O32  1  0.30439500  0.74987500  0.10702500  1
  O  O33  1  0.70057950  0.75041550  0.50004900  1
  O  O34  1  0.30306700  0.50096600  0.60222900  1
  O  O35  1  0.00000000  0.19855000  0.00000000  1
  O  O36  1  0.00000000  0.79706100  0.00000000  1
  O  O37  1  0.69693300  0.50096600  0.39777100  1
  O  O38  1  0.00000000  0.49829800  0.00000000  1
  O  O39  1  0.79942050  0.25041550  0.49995100  1
  O  O40  1  0.19560500  0.24987500  0.89297500  1
  O  O41  1  0.00000000  0.05636500  0.50000000  1
  O  O42  1  0.80439500  0.24987500  0.10702500  1
  O  O43  1  0.20057950  0.25041550  0.50004900  1
