# generated using pymatgen
data_Lu3Sb5O12
_symmetry_space_group_name_H-M   'P 1'
_cell_length_a   10.76878600
_cell_length_b   10.76878600
_cell_length_c   10.76878600
_cell_angle_alpha   90.00000000
_cell_angle_beta   90.00000000
_cell_angle_gamma   90.00000000
_symmetry_Int_Tables_number   1
_chemical_formula_structural   Lu3Sb5O12
_chemical_formula_sum   'Lu12 Sb20 O48'
_cell_volume   1248.82113447
_cell_formula_units_Z   4
loop_
 _symmetry_equiv_pos_site_id
 _symmetry_equiv_pos_as_xyz
  1  'x, y, z'
loop_
 _atom_site_type_symbol
 _atom_site_label
 _atom_site_symmetry_multiplicity
 _atom_site_fract_x
 _atom_site_fract_y
 _atom_site_fract_z
 _atom_site_occupancy
  Lu  Lu0  1  0.00000000  0.50000000  0.25000000  1
  Lu  Lu1  1  0.00000000  0.25000000  0.50000000  1
  Lu  Lu2  1  0.25000000  0.50000000  0.00000000  1
  Lu  Lu3  1  0.25000000  0.00000000  0.50000000  1
  Lu  Lu4  1  0.50000000  0.00000000  0.25000000  1
  Lu  Lu5  1  0.50000000  0.25000000  0.00000000  1
  Lu  Lu6  1  0.50000000  0.00000000  0.75000000  1
  Lu  Lu7  1  0.50000000  0.75000000  0.00000000  1
  Lu  Lu8  1  0.75000000  0.00000000  0.50000000  1
  Lu  Lu9  1  0.75000000  0.50000000  0.00000000  1
  Lu  Lu10  1  0.00000000  0.50000000  0.75000000  1
  Lu  Lu11  1  0.00000000  0.75000000  0.50000000  1
  Sb  Sb12  1  0.74011700  0.25988300  0.25988300  1
  Sb  Sb13  1  0.00000000  0.28511800  0.00000000  1
  Sb  Sb14  1  0.00000000  0.00000000  0.28511800  1
  Sb  Sb15  1  0.00000000  0.71488200  0.00000000  1
  Sb  Sb16  1  0.00000000  0.00000000  0.71488200  1
  Sb  Sb17  1  0.25988300  0.74011700  0.25988300  1
  Sb  Sb18  1  0.25988300  0.25988300  0.74011700  1
  Sb  Sb19  1  0.24011700  0.24011700  0.24011700  1
  Sb  Sb20  1  0.28511800  0.00000000  0.00000000  1
  Sb  Sb21  1  0.71488200  0.00000000  0.00000000  1
  Sb  Sb22  1  0.24011700  0.75988300  0.75988300  1
  Sb  Sb23  1  0.50000000  0.78511800  0.50000000  1
  Sb  Sb24  1  0.50000000  0.50000000  0.78511800  1
  Sb  Sb25  1  0.50000000  0.21488200  0.50000000  1
  Sb  Sb26  1  0.50000000  0.50000000  0.21488200  1
  Sb  Sb27  1  0.75988300  0.24011700  0.75988300  1
  Sb  Sb28  1  0.75988300  0.75988300  0.24011700  1
  Sb  Sb29  1  0.74011700  0.74011700  0.74011700  1
  Sb  Sb30  1  0.78511800  0.50000000  0.50000000  1
  Sb  Sb31  1  0.21488200  0.50000000  0.50000000  1
  O  O32  1  0.86014400  0.34407700  0.13985600  1
  O  O33  1  0.86014400  0.13985600  0.34407700  1
  O  O34  1  0.89794850  0.10205150  0.59941050  1
  O  O35  1  0.89794850  0.59941050  0.10205150  1
  O  O36  1  0.90058950  0.39794850  0.39794850  1
  O  O37  1  0.10205150  0.10205150  0.40058950  1
  O  O38  1  0.10205150  0.40058950  0.10205150  1
  O  O39  1  0.10205150  0.89794850  0.59941050  1
  O  O40  1  0.10205150  0.59941050  0.89794850  1
  O  O41  1  0.15592300  0.36014400  0.36014400  1
  O  O42  1  0.13985600  0.65592300  0.13985600  1
  O  O43  1  0.13985600  0.13985600  0.65592300  1
  O  O44  1  0.13985600  0.86014400  0.34407700  1
  O  O45  1  0.13985600  0.34407700  0.86014400  1
  O  O46  1  0.36014400  0.15592300  0.36014400  1
  O  O47  1  0.36014400  0.36014400  0.15592300  1
  O  O48  1  0.34407700  0.86014400  0.13985600  1
  O  O49  1  0.34407700  0.13985600  0.86014400  1
  O  O50  1  0.39794850  0.90058950  0.39794850  1
  O  O51  1  0.39794850  0.39794850  0.90058950  1
  O  O52  1  0.40058950  0.10205150  0.10205150  1
  O  O53  1  0.59941050  0.89794850  0.10205150  1
  O  O54  1  0.59941050  0.10205150  0.89794850  1
  O  O55  1  0.65592300  0.13985600  0.13985600  1
  O  O56  1  0.36014400  0.84407700  0.63985600  1
  O  O57  1  0.36014400  0.63985600  0.84407700  1
  O  O58  1  0.39794850  0.60205150  0.09941050  1
  O  O59  1  0.39794850  0.09941050  0.60205150  1
  O  O60  1  0.40058950  0.89794850  0.89794850  1
  O  O61  1  0.60205150  0.60205150  0.90058950  1
  O  O62  1  0.60205150  0.90058950  0.60205150  1
  O  O63  1  0.60205150  0.39794850  0.09941050  1
  O  O64  1  0.60205150  0.09941050  0.39794850  1
  O  O65  1  0.65592300  0.86014400  0.86014400  1
  O  O66  1  0.63985600  0.15592300  0.63985600  1
  O  O67  1  0.63985600  0.63985600  0.15592300  1
  O  O68  1  0.63985600  0.36014400  0.84407700  1
  O  O69  1  0.63985600  0.84407700  0.36014400  1
  O  O70  1  0.86014400  0.65592300  0.86014400  1
  O  O71  1  0.86014400  0.86014400  0.65592300  1
  O  O72  1  0.84407700  0.36014400  0.63985600  1
  O  O73  1  0.84407700  0.63985600  0.36014400  1
  O  O74  1  0.89794850  0.40058950  0.89794850  1
  O  O75  1  0.89794850  0.89794850  0.40058950  1
  O  O76  1  0.90058950  0.60205150  0.60205150  1
  O  O77  1  0.09941050  0.39794850  0.60205150  1
  O  O78  1  0.09941050  0.60205150  0.39794850  1
  O  O79  1  0.15592300  0.63985600  0.63985600  1
