# generated using pymatgen
data_V2O3F
_symmetry_space_group_name_H-M   'P 1'
_cell_length_a   5.57097002
_cell_length_b   5.59270357
_cell_length_c   9.80028171
_cell_angle_alpha   101.54818341
_cell_angle_beta   97.25942423
_cell_angle_gamma   114.45156693
_symmetry_Int_Tables_number   1
_chemical_formula_structural   V2O3F
_chemical_formula_sum   'V8 O12 F4'
_cell_volume   264.73293290
_cell_formula_units_Z   4
loop_
 _symmetry_equiv_pos_site_id
 _symmetry_equiv_pos_as_xyz
  1  'x, y, z'
loop_
 _atom_site_type_symbol
 _atom_site_label
 _atom_site_symmetry_multiplicity
 _atom_site_fract_x
 _atom_site_fract_y
 _atom_site_fract_z
 _atom_site_occupancy
  V  V0  1  0.23906257  0.78662730  0.97639520  1
  V  V1  1  0.00000000  0.50000000  0.50000000  1
  V  V2  1  0.37767390  0.39297679  0.75009423  1
  V  V3  1  0.62232610  0.60702321  0.24990577  1
  V  V4  1  0.13464841  0.12444102  0.25217036  1
  V  V5  1  0.76093743  0.21337270  0.02360480  1
  V  V6  1  0.50000000  0.00000000  0.50000000  1
  V  V7  1  0.86535159  0.87555898  0.74782964  1
  O  O8  1  0.10273043  0.80102431  0.59681449  1
  O  O9  1  0.14304203  0.45593372  0.90344194  1
  O  O10  1  0.89726957  0.19897569  0.40318551  1
  O  O11  1  0.37955772  0.68655534  0.40413291  1
  O  O12  1  0.57415647  0.78076055  0.64707905  1
  O  O13  1  0.42584353  0.21923945  0.35292095  1
  O  O14  1  0.17273664  0.98809134  0.84452109  1
  O  O15  1  0.35657194  0.04529905  0.09610830  1
  O  O16  1  0.85695797  0.54406628  0.09655806  1
  O  O17  1  0.62044228  0.31344466  0.59586709  1
  O  O18  1  0.64342806  0.95470095  0.90389170  1
  O  O19  1  0.82726336  0.01190866  0.15547891  1
  F  F20  1  0.92539736  0.71786535  0.35239983  1
  F  F21  1  0.32593260  0.52487082  0.14679563  1
  F  F22  1  0.07460264  0.28213465  0.64760017  1
  F  F23  1  0.67406740  0.47512918  0.85320437  1
