# generated using pymatgen
data_V2O3F
_symmetry_space_group_name_H-M   'P 1'
_cell_length_a   6.40990200
_cell_length_b   6.92186400
_cell_length_c   9.05050600
_cell_angle_alpha   90.00000000
_cell_angle_beta   90.00000000
_cell_angle_gamma   90.00000000
_symmetry_Int_Tables_number   1
_chemical_formula_structural   V2O3F
_chemical_formula_sum   'V12 O18 F6'
_cell_volume   401.55710302
_cell_formula_units_Z   6
loop_
 _symmetry_equiv_pos_site_id
 _symmetry_equiv_pos_as_xyz
  1  'x, y, z'
loop_
 _atom_site_type_symbol
 _atom_site_label
 _atom_site_symmetry_multiplicity
 _atom_site_fract_x
 _atom_site_fract_y
 _atom_site_fract_z
 _atom_site_occupancy
  V  V0  1  0.50000000  0.49764800  0.33303600  1
  V  V1  1  0.50000000  0.49764800  0.66696400  1
  V  V2  1  0.50000000  0.49230200  0.00000000  1
  V  V3  1  0.50000000  0.94835800  0.50000000  1
  V  V4  1  0.50000000  0.04312600  0.16738100  1
  V  V5  1  0.50000000  0.04312600  0.83261900  1
  V  V6  1  0.00000000  0.99764800  0.33303600  1
  V  V7  1  0.00000000  0.99764800  0.66696400  1
  V  V8  1  0.00000000  0.99230200  0.00000000  1
  V  V9  1  0.00000000  0.44835800  0.50000000  1
  V  V10  1  0.00000000  0.54312600  0.16738100  1
  V  V11  1  0.00000000  0.54312600  0.83261900  1
  O  O12  1  0.50000000  0.30094600  0.83271900  1
  O  O13  1  0.50000000  0.30094600  0.16728100  1
  O  O14  1  0.30794250  0.99653650  0.33385600  1
  O  O15  1  0.30794250  0.99653650  0.66614400  1
  O  O16  1  0.30736500  0.00266100  0.00000000  1
  O  O17  1  0.69205750  0.99653650  0.33385600  1
  O  O18  1  0.69205750  0.99653650  0.66614400  1
  O  O19  1  0.69263500  0.00266100  0.00000000  1
  O  O20  1  0.50000000  0.69206200  0.50000000  1
  O  O21  1  0.00000000  0.80094600  0.83271900  1
  O  O22  1  0.00000000  0.80094600  0.16728100  1
  O  O23  1  0.80794250  0.49653650  0.33385600  1
  O  O24  1  0.80794250  0.49653650  0.66614400  1
  O  O25  1  0.80736500  0.50266100  0.00000000  1
  O  O26  1  0.19205750  0.49653650  0.33385600  1
  O  O27  1  0.19205750  0.49653650  0.66614400  1
  O  O28  1  0.19263500  0.50266100  0.00000000  1
  O  O29  1  0.00000000  0.19206200  0.50000000  1
  F  F30  1  0.50000000  0.30008000  0.50000000  1
  F  F31  1  0.50000000  0.69614500  0.16599600  1
  F  F32  1  0.50000000  0.69614500  0.83400400  1
  F  F33  1  0.00000000  0.80008000  0.50000000  1
  F  F34  1  0.00000000  0.19614500  0.16599600  1
  F  F35  1  0.00000000  0.19614500  0.83400400  1
