# generated using pymatgen
data_Na4Mn2C4SO16
_symmetry_space_group_name_H-M   'P 1'
_cell_length_a   13.61213000
_cell_length_b   14.21564400
_cell_length_c   14.29704200
_cell_angle_alpha   90.00000000
_cell_angle_beta   90.00000000
_cell_angle_gamma   90.00000000
_symmetry_Int_Tables_number   1
_chemical_formula_structural   Na4Mn2C4SO16
_chemical_formula_sum   'Na32 Mn16 C32 S8 O128'
_cell_volume   2766.55188815
_cell_formula_units_Z   8
loop_
 _symmetry_equiv_pos_site_id
 _symmetry_equiv_pos_as_xyz
  1  'x, y, z'
loop_
 _atom_site_type_symbol
 _atom_site_label
 _atom_site_symmetry_multiplicity
 _atom_site_fract_x
 _atom_site_fract_y
 _atom_site_fract_z
 _atom_site_occupancy
  Na  Na0  1  0.75000000  0.25000000  0.04591400  1
  Na  Na1  1  0.54016700  0.25000000  0.25000000  1
  Na  Na2  1  0.29016700  0.00000000  0.00000000  1
  Na  Na3  1  0.00000000  0.00000000  0.29591400  1
  Na  Na4  1  0.75000000  0.25000000  0.45408600  1
  Na  Na5  1  0.95983300  0.25000000  0.25000000  1
  Na  Na6  1  0.70983300  0.00000000  0.00000000  1
  Na  Na7  1  0.50000000  0.00000000  0.20408600  1
  Na  Na8  1  0.75000000  0.75000000  0.54591400  1
  Na  Na9  1  0.54016700  0.75000000  0.75000000  1
  Na  Na10  1  0.29016700  0.50000000  0.50000000  1
  Na  Na11  1  0.00000000  0.50000000  0.79591400  1
  Na  Na12  1  0.75000000  0.75000000  0.95408600  1
  Na  Na13  1  0.95983300  0.75000000  0.75000000  1
  Na  Na14  1  0.70983300  0.50000000  0.50000000  1
  Na  Na15  1  0.50000000  0.50000000  0.70408600  1
  Na  Na16  1  0.25000000  0.25000000  0.54591400  1
  Na  Na17  1  0.04016700  0.25000000  0.75000000  1
  Na  Na18  1  0.79016700  0.00000000  0.50000000  1
  Na  Na19  1  0.50000000  0.00000000  0.79591400  1
  Na  Na20  1  0.25000000  0.25000000  0.95408600  1
  Na  Na21  1  0.45983300  0.25000000  0.75000000  1
  Na  Na22  1  0.20983300  0.00000000  0.50000000  1
  Na  Na23  1  0.00000000  0.00000000  0.70408600  1
  Na  Na24  1  0.25000000  0.75000000  0.04591400  1
  Na  Na25  1  0.04016700  0.75000000  0.25000000  1
  Na  Na26  1  0.79016700  0.50000000  0.00000000  1
  Na  Na27  1  0.50000000  0.50000000  0.29591400  1
  Na  Na28  1  0.25000000  0.75000000  0.45408600  1
  Na  Na29  1  0.45983300  0.75000000  0.25000000  1
  Na  Na30  1  0.20983300  0.50000000  0.00000000  1
  Na  Na31  1  0.00000000  0.50000000  0.20408600  1
  Mn  Mn32  1  0.62500000  0.62500000  0.12500000  1
  Mn  Mn33  1  0.87500000  0.62500000  0.37500000  1
  Mn  Mn34  1  0.62500000  0.87500000  0.37500000  1
  Mn  Mn35  1  0.87500000  0.87500000  0.12500000  1
  Mn  Mn36  1  0.62500000  0.12500000  0.62500000  1
  Mn  Mn37  1  0.87500000  0.12500000  0.87500000  1
  Mn  Mn38  1  0.62500000  0.37500000  0.87500000  1
  Mn  Mn39  1  0.87500000  0.37500000  0.62500000  1
  Mn  Mn40  1  0.12500000  0.62500000  0.62500000  1
  Mn  Mn41  1  0.37500000  0.62500000  0.87500000  1
  Mn  Mn42  1  0.12500000  0.87500000  0.87500000  1
  Mn  Mn43  1  0.37500000  0.87500000  0.62500000  1
  Mn  Mn44  1  0.12500000  0.12500000  0.12500000  1
  Mn  Mn45  1  0.37500000  0.12500000  0.37500000  1
  Mn  Mn46  1  0.12500000  0.37500000  0.37500000  1
  Mn  Mn47  1  0.37500000  0.37500000  0.12500000  1
  C  C48  1  0.59096700  0.41645300  0.09441200  1
  C  C49  1  0.90903300  0.08354700  0.09441200  1
  C  C50  1  0.84096700  0.83354700  0.34441200  1
  C  C51  1  0.59096700  0.08354700  0.40558800  1
  C  C52  1  0.15903300  0.16645300  0.34441200  1
  C  C53  1  0.90903300  0.41645300  0.40558800  1
  C  C54  1  0.34096700  0.16645300  0.15558800  1
  C  C55  1  0.65903300  0.83354700  0.15558800  1
  C  C56  1  0.59096700  0.91645300  0.59441200  1
  C  C57  1  0.90903300  0.58354700  0.59441200  1
  C  C58  1  0.84096700  0.33354700  0.84441200  1
  C  C59  1  0.59096700  0.58354700  0.90558800  1
  C  C60  1  0.15903300  0.66645300  0.84441200  1
  C  C61  1  0.90903300  0.91645300  0.90558800  1
  C  C62  1  0.34096700  0.66645300  0.65558800  1
  C  C63  1  0.65903300  0.33354700  0.65558800  1
  C  C64  1  0.09096700  0.41645300  0.59441200  1
  C  C65  1  0.40903300  0.08354700  0.59441200  1
  C  C66  1  0.34096700  0.83354700  0.84441200  1
  C  C67  1  0.09096700  0.08354700  0.90558800  1
  C  C68  1  0.65903300  0.16645300  0.84441200  1
  C  C69  1  0.40903300  0.41645300  0.90558800  1
  C  C70  1  0.84096700  0.16645300  0.65558800  1
  C  C71  1  0.15903300  0.83354700  0.65558800  1
  C  C72  1  0.09096700  0.91645300  0.09441200  1
  C  C73  1  0.40903300  0.58354700  0.09441200  1
  C  C74  1  0.34096700  0.33354700  0.34441200  1
  C  C75  1  0.09096700  0.58354700  0.40558800  1
  C  C76  1  0.65903300  0.66645300  0.34441200  1
  C  C77  1  0.40903300  0.91645300  0.40558800  1
  C  C78  1  0.84096700  0.66645300  0.15558800  1
  C  C79  1  0.15903300  0.33354700  0.15558800  1
  S  S80  1  0.50000000  0.00000000  0.00000000  1
  S  S81  1  0.75000000  0.25000000  0.25000000  1
  S  S82  1  0.50000000  0.50000000  0.50000000  1
  S  S83  1  0.75000000  0.75000000  0.75000000  1
  S  S84  1  0.00000000  0.00000000  0.50000000  1
  S  S85  1  0.25000000  0.25000000  0.75000000  1
  S  S86  1  0.00000000  0.50000000  0.00000000  1
  S  S87  1  0.25000000  0.75000000  0.25000000  1
  O  O88  1  0.51965450  0.35658950  0.11056500  1
  O  O89  1  0.84801200  0.10013000  0.02857200  1
  O  O90  1  0.15198800  0.89987000  0.02857200  1
  O  O91  1  0.84921200  0.76064200  0.39898700  1
  O  O92  1  0.59921200  0.01064200  0.35101300  1
  O  O93  1  0.48034550  0.64341050  0.11056500  1
  O  O94  1  0.76965450  0.89341050  0.36056500  1
  O  O95  1  0.01965450  0.64341050  0.38943500  1
  O  O96  1  0.90198800  0.85013000  0.27857200  1
  O  O97  1  0.65198800  0.10013000  0.47142800  1
  O  O98  1  0.43589500  0.94064650  0.06115250  1
  O  O99  1  0.68589500  0.19064650  0.18884750  1
  O  O100  1  0.90078800  0.01064200  0.14898700  1
  O  O101  1  0.65078800  0.76064200  0.10101300  1
  O  O102  1  0.93589500  0.05935350  0.43884750  1
  O  O103  1  0.06410500  0.94064650  0.43884750  1
  O  O104  1  0.68589500  0.30935350  0.31115250  1
  O  O105  1  0.81410500  0.19064650  0.31115250  1
  O  O106  1  0.09921200  0.98935800  0.14898700  1
  O  O107  1  0.34921200  0.23935800  0.10101300  1
  O  O108  1  0.56410500  0.05935350  0.06115250  1
  O  O109  1  0.81410500  0.30935350  0.18884750  1
  O  O110  1  0.09801200  0.14987000  0.27857200  1
  O  O111  1  0.34801200  0.89987000  0.47142800  1
  O  O112  1  0.23034550  0.10658950  0.36056500  1
  O  O113  1  0.98034550  0.35658950  0.38943500  1
  O  O114  1  0.26965450  0.10658950  0.13943500  1
  O  O115  1  0.15078800  0.23935800  0.39898700  1
  O  O116  1  0.40078800  0.98935800  0.35101300  1
  O  O117  1  0.59801200  0.85013000  0.22142800  1
  O  O118  1  0.40198800  0.14987000  0.22142800  1
  O  O119  1  0.73034550  0.89341050  0.13943500  1
  O  O120  1  0.51965450  0.85658950  0.61056500  1
  O  O121  1  0.84801200  0.60013000  0.52857200  1
  O  O122  1  0.15198800  0.39987000  0.52857200  1
  O  O123  1  0.84921200  0.26064200  0.89898700  1
  O  O124  1  0.59921200  0.51064200  0.85101300  1
  O  O125  1  0.48034550  0.14341050  0.61056500  1
  O  O126  1  0.76965450  0.39341050  0.86056500  1
  O  O127  1  0.01965450  0.14341050  0.88943500  1
  O  O128  1  0.90198800  0.35013000  0.77857200  1
  O  O129  1  0.65198800  0.60013000  0.97142800  1
  O  O130  1  0.43589500  0.44064650  0.56115250  1
  O  O131  1  0.68589500  0.69064650  0.68884750  1
  O  O132  1  0.90078800  0.51064200  0.64898700  1
  O  O133  1  0.65078800  0.26064200  0.60101300  1
  O  O134  1  0.93589500  0.55935350  0.93884750  1
  O  O135  1  0.06410500  0.44064650  0.93884750  1
  O  O136  1  0.68589500  0.80935350  0.81115250  1
  O  O137  1  0.81410500  0.69064650  0.81115250  1
  O  O138  1  0.09921200  0.48935800  0.64898700  1
  O  O139  1  0.34921200  0.73935800  0.60101300  1
  O  O140  1  0.56410500  0.55935350  0.56115250  1
  O  O141  1  0.81410500  0.80935350  0.68884750  1
  O  O142  1  0.09801200  0.64987000  0.77857200  1
  O  O143  1  0.34801200  0.39987000  0.97142800  1
  O  O144  1  0.23034550  0.60658950  0.86056500  1
  O  O145  1  0.98034550  0.85658950  0.88943500  1
  O  O146  1  0.26965450  0.60658950  0.63943500  1
  O  O147  1  0.15078800  0.73935800  0.89898700  1
  O  O148  1  0.40078800  0.48935800  0.85101300  1
  O  O149  1  0.59801200  0.35013000  0.72142800  1
  O  O150  1  0.40198800  0.64987000  0.72142800  1
  O  O151  1  0.73034550  0.39341050  0.63943500  1
  O  O152  1  0.01965450  0.35658950  0.61056500  1
  O  O153  1  0.34801200  0.10013000  0.52857200  1
  O  O154  1  0.65198800  0.89987000  0.52857200  1
  O  O155  1  0.34921200  0.76064200  0.89898700  1
  O  O156  1  0.09921200  0.01064200  0.85101300  1
  O  O157  1  0.98034550  0.64341050  0.61056500  1
  O  O158  1  0.26965450  0.89341050  0.86056500  1
  O  O159  1  0.51965450  0.64341050  0.88943500  1
  O  O160  1  0.40198800  0.85013000  0.77857200  1
  O  O161  1  0.15198800  0.10013000  0.97142800  1
  O  O162  1  0.93589500  0.94064650  0.56115250  1
  O  O163  1  0.18589500  0.19064650  0.68884750  1
  O  O164  1  0.40078800  0.01064200  0.64898700  1
  O  O165  1  0.15078800  0.76064200  0.60101300  1
  O  O166  1  0.43589500  0.05935350  0.93884750  1
  O  O167  1  0.56410500  0.94064650  0.93884750  1
  O  O168  1  0.18589500  0.30935350  0.81115250  1
  O  O169  1  0.31410500  0.19064650  0.81115250  1
  O  O170  1  0.59921200  0.98935800  0.64898700  1
  O  O171  1  0.84921200  0.23935800  0.60101300  1
  O  O172  1  0.06410500  0.05935350  0.56115250  1
  O  O173  1  0.31410500  0.30935350  0.68884750  1
  O  O174  1  0.59801200  0.14987000  0.77857200  1
  O  O175  1  0.84801200  0.89987000  0.97142800  1
  O  O176  1  0.73034550  0.10658950  0.86056500  1
  O  O177  1  0.48034550  0.35658950  0.88943500  1
  O  O178  1  0.76965450  0.10658950  0.63943500  1
  O  O179  1  0.65078800  0.23935800  0.89898700  1
  O  O180  1  0.90078800  0.98935800  0.85101300  1
  O  O181  1  0.09801200  0.85013000  0.72142800  1
  O  O182  1  0.90198800  0.14987000  0.72142800  1
  O  O183  1  0.23034550  0.89341050  0.63943500  1
  O  O184  1  0.01965450  0.85658950  0.11056500  1
  O  O185  1  0.34801200  0.60013000  0.02857200  1
  O  O186  1  0.65198800  0.39987000  0.02857200  1
  O  O187  1  0.34921200  0.26064200  0.39898700  1
  O  O188  1  0.09921200  0.51064200  0.35101300  1
  O  O189  1  0.98034550  0.14341050  0.11056500  1
  O  O190  1  0.26965450  0.39341050  0.36056500  1
  O  O191  1  0.51965450  0.14341050  0.38943500  1
  O  O192  1  0.40198800  0.35013000  0.27857200  1
  O  O193  1  0.15198800  0.60013000  0.47142800  1
  O  O194  1  0.93589500  0.44064650  0.06115250  1
  O  O195  1  0.18589500  0.69064650  0.18884750  1
  O  O196  1  0.40078800  0.51064200  0.14898700  1
  O  O197  1  0.15078800  0.26064200  0.10101300  1
  O  O198  1  0.43589500  0.55935350  0.43884750  1
  O  O199  1  0.56410500  0.44064650  0.43884750  1
  O  O200  1  0.18589500  0.80935350  0.31115250  1
  O  O201  1  0.31410500  0.69064650  0.31115250  1
  O  O202  1  0.59921200  0.48935800  0.14898700  1
  O  O203  1  0.84921200  0.73935800  0.10101300  1
  O  O204  1  0.06410500  0.55935350  0.06115250  1
  O  O205  1  0.31410500  0.80935350  0.18884750  1
  O  O206  1  0.59801200  0.64987000  0.27857200  1
  O  O207  1  0.84801200  0.39987000  0.47142800  1
  O  O208  1  0.73034550  0.60658950  0.36056500  1
  O  O209  1  0.48034550  0.85658950  0.38943500  1
  O  O210  1  0.76965450  0.60658950  0.13943500  1
  O  O211  1  0.65078800  0.73935800  0.39898700  1
  O  O212  1  0.90078800  0.48935800  0.35101300  1
  O  O213  1  0.09801200  0.35013000  0.22142800  1
  O  O214  1  0.90198800  0.64987000  0.22142800  1
  O  O215  1  0.23034550  0.39341050  0.13943500  1
