# generated using pymatgen
data_V3Cr(PO4)6
_symmetry_space_group_name_H-M   'P 1'
_cell_length_a   8.52829806
_cell_length_b   8.52829806
_cell_length_c   21.66344870
_cell_angle_alpha   90.00000000
_cell_angle_beta   90.00000000
_cell_angle_gamma   120.00000000
_symmetry_Int_Tables_number   1
_chemical_formula_structural   V3Cr(PO4)6
_chemical_formula_sum   'V9 Cr3 P18 O72'
_cell_volume   1364.52962024
_cell_formula_units_Z   3
loop_
 _symmetry_equiv_pos_site_id
 _symmetry_equiv_pos_as_xyz
  1  'x, y, z'
loop_
 _atom_site_type_symbol
 _atom_site_label
 _atom_site_symmetry_multiplicity
 _atom_site_fract_x
 _atom_site_fract_y
 _atom_site_fract_z
 _atom_site_occupancy
  V  V0  1  0.00000000  0.00000000  0.14006100  1
  V  V1  1  0.33333333  0.66666667  0.02547567  1
  V  V2  1  0.33333333  0.66666667  0.30588267  1
  V  V3  1  0.66666667  0.33333333  0.47339433  1
  V  V4  1  0.00000000  0.00000000  0.35880900  1
  V  V5  1  0.00000000  0.00000000  0.63921600  1
  V  V6  1  0.33333333  0.66666667  0.80672767  1
  V  V7  1  0.66666667  0.33333333  0.69214233  1
  V  V8  1  0.66666667  0.33333333  0.97254933  1
  Cr  Cr9  1  0.66666667  0.33333333  0.19160633  1
  Cr  Cr10  1  0.33333333  0.66666667  0.52493967  1
  Cr  Cr11  1  0.00000000  0.00000000  0.85827300  1
  P  P12  1  0.66623833  0.61482267  0.08359667  1
  P  P13  1  0.94858433  0.33376167  0.08359667  1
  P  P14  1  0.38517733  0.05141567  0.08359667  1
  P  P15  1  0.28343600  0.28192900  0.24983300  1
  P  P16  1  0.71807100  0.00150700  0.24983300  1
  P  P17  1  0.99849300  0.71656400  0.24983300  1
  P  P18  1  0.33290500  0.94815600  0.41693000  1
  P  P19  1  0.61525100  0.66709500  0.41693000  1
  P  P20  1  0.05184400  0.38474900  0.41693000  1
  P  P21  1  0.95010267  0.61526233  0.58316633  1
  P  P22  1  0.38473767  0.33484033  0.58316633  1
  P  P23  1  0.66515967  0.04989733  0.58316633  1
  P  P24  1  0.99957167  0.28148933  0.75026333  1
  P  P25  1  0.28191767  0.00042833  0.75026333  1
  P  P26  1  0.71851067  0.71808233  0.75026333  1
  P  P27  1  0.61676933  0.94859567  0.91649967  1
  P  P28  1  0.05140433  0.66817367  0.91649967  1
  P  P29  1  0.33182633  0.38323067  0.91649967  1
  O  O30  1  0.98003467  0.81117833  0.30786933  1
  O  O31  1  0.18882167  0.16885633  0.30786933  1
  O  O32  1  0.83598367  0.80745133  0.09073233  1
  O  O33  1  0.83114367  0.01996533  0.30786933  1
  O  O34  1  0.50213067  0.64460333  0.07378333  1
  O  O35  1  0.63010633  0.50442567  0.14123667  1
  O  O36  1  0.97146767  0.16401633  0.09073233  1
  O  O37  1  0.14247267  0.49786933  0.07378333  1
  O  O38  1  0.35539667  0.85752733  0.07378333  1
  O  O39  1  0.16396867  0.19654033  0.19184833  1
  O  O40  1  0.46801900  0.30243900  0.24587600  1
  O  O41  1  0.80345967  0.96742833  0.19184833  1
  O  O42  1  0.87431933  0.36989367  0.14123667  1
  O  O43  1  0.19254867  0.02853233  0.09073233  1
  O  O44  1  0.49557433  0.12568067  0.14123667  1
  O  O45  1  0.29844533  0.47179067  0.25783867  1
  O  O46  1  0.52820933  0.82665467  0.25783867  1
  O  O47  1  0.69756100  0.16558000  0.24587600  1
  O  O48  1  0.03257167  0.83603133  0.19184833  1
  O  O49  1  0.17334533  0.70155467  0.25783867  1
  O  O50  1  0.83254633  0.30240867  0.02526667  1
  O  O51  1  0.83442000  0.53198100  0.24587600  1
  O  O52  1  0.46986233  0.16745367  0.02526667  1
  O  O53  1  0.69759133  0.53013767  0.02526667  1
  O  O54  1  0.64670133  0.14451167  0.64120267  1
  O  O55  1  0.85548833  0.50218967  0.64120267  1
  O  O56  1  0.50265033  0.14078467  0.42406567  1
  O  O57  1  0.49781033  0.35329867  0.64120267  1
  O  O58  1  0.16879733  0.97793667  0.40711667  1
  O  O59  1  0.29677300  0.83775900  0.47457000  1
  O  O60  1  0.63813433  0.49734967  0.42406567  1
  O  O61  1  0.80913933  0.83120267  0.40711667  1
  O  O62  1  0.02206333  0.19086067  0.40711667  1
  O  O63  1  0.83063533  0.52987367  0.52518167  1
  O  O64  1  0.13468567  0.63577233  0.57920933  1
  O  O65  1  0.47012633  0.30076167  0.52518167  1
  O  O66  1  0.54098600  0.70322700  0.47457000  1
  O  O67  1  0.85921533  0.36186567  0.42406567  1
  O  O68  1  0.16224100  0.45901400  0.47457000  1
  O  O69  1  0.96511200  0.80512400  0.59117200  1
  O  O70  1  0.19487600  0.15998800  0.59117200  1
  O  O71  1  0.36422767  0.49891333  0.57920933  1
  O  O72  1  0.69923833  0.16936467  0.52518167  1
  O  O73  1  0.84001200  0.03488800  0.59117200  1
  O  O74  1  0.49921300  0.63574200  0.35860000  1
  O  O75  1  0.50108667  0.86531433  0.57920933  1
  O  O76  1  0.13652900  0.50078700  0.35860000  1
  O  O77  1  0.36425800  0.86347100  0.35860000  1
  O  O78  1  0.31336800  0.47784500  0.97453600  1
  O  O79  1  0.52215500  0.83552300  0.97453600  1
  O  O80  1  0.16931700  0.47411800  0.75739900  1
  O  O81  1  0.16447700  0.68663200  0.97453600  1
  O  O82  1  0.83546400  0.31127000  0.74045000  1
  O  O83  1  0.96343967  0.17109233  0.80790333  1
  O  O84  1  0.30480100  0.83068300  0.75739900  1
  O  O85  1  0.47580600  0.16453600  0.74045000  1
  O  O86  1  0.68873000  0.52419400  0.74045000  1
  O  O87  1  0.49730200  0.86320700  0.85851500  1
  O  O88  1  0.80135233  0.96910567  0.91254267  1
  O  O89  1  0.13679300  0.63409500  0.85851500  1
  O  O90  1  0.20765267  0.03656033  0.80790333  1
  O  O91  1  0.52588200  0.69519900  0.75739900  1
  O  O92  1  0.82890767  0.79234733  0.80790333  1
  O  O93  1  0.63177867  0.13845733  0.92450533  1
  O  O94  1  0.86154267  0.49332133  0.92450533  1
  O  O95  1  0.03089433  0.83224667  0.91254267  1
  O  O96  1  0.36590500  0.50269800  0.85851500  1
  O  O97  1  0.50667867  0.36822133  0.92450533  1
  O  O98  1  0.16587967  0.96907533  0.69193333  1
  O  O99  1  0.16775333  0.19864767  0.91254267  1
  O  O100  1  0.80319567  0.83412033  0.69193333  1
  O  O101  1  0.03092467  0.19680433  0.69193333  1
