# generated using pymatgen
data_SrNd2O4
_symmetry_space_group_name_H-M   'P 1'
_cell_length_a   3.56939200
_cell_length_b   10.42281900
_cell_length_c   12.41226800
_cell_angle_alpha   90.00000000
_cell_angle_beta   90.00000000
_cell_angle_gamma   90.00000000
_symmetry_Int_Tables_number   1
_chemical_formula_structural   SrNd2O4
_chemical_formula_sum   'Sr4 Nd8 O16'
_cell_volume   461.77517973
_cell_formula_units_Z   4
loop_
 _symmetry_equiv_pos_site_id
 _symmetry_equiv_pos_as_xyz
  1  'x, y, z'
loop_
 _atom_site_type_symbol
 _atom_site_label
 _atom_site_symmetry_multiplicity
 _atom_site_fract_x
 _atom_site_fract_y
 _atom_site_fract_z
 _atom_site_occupancy
  Sr  Sr0  1  0.75000000  0.74742000  0.85114300  1
  Sr  Sr1  1  0.25000000  0.75258000  0.35114300  1
  Sr  Sr2  1  0.75000000  0.24742000  0.64885700  1
  Sr  Sr3  1  0.25000000  0.25258000  0.14885700  1
  Nd  Nd4  1  0.75000000  0.57616400  0.11292000  1
  Nd  Nd5  1  0.75000000  0.58097300  0.61242400  1
  Nd  Nd6  1  0.25000000  0.91902700  0.11242400  1
  Nd  Nd7  1  0.25000000  0.92383600  0.61292000  1
  Nd  Nd8  1  0.75000000  0.07616400  0.38708000  1
  Nd  Nd9  1  0.75000000  0.08097300  0.88757600  1
  Nd  Nd10  1  0.25000000  0.41902700  0.38757600  1
  Nd  Nd11  1  0.25000000  0.42383600  0.88708000  1
  O  O12  1  0.25000000  0.51101200  0.21544700  1
  O  O13  1  0.75000000  0.57476200  0.42034800  1
  O  O14  1  0.25000000  0.63071400  0.97943500  1
  O  O15  1  0.25000000  0.71291600  0.68439000  1
  O  O16  1  0.75000000  0.78708400  0.18439000  1
  O  O17  1  0.75000000  0.86928600  0.47943500  1
  O  O18  1  0.25000000  0.92523800  0.92034800  1
  O  O19  1  0.75000000  0.98898800  0.71544700  1
  O  O20  1  0.25000000  0.01101200  0.28455300  1
  O  O21  1  0.75000000  0.07476200  0.07965200  1
  O  O22  1  0.25000000  0.13071400  0.52056500  1
  O  O23  1  0.25000000  0.21291600  0.81561000  1
  O  O24  1  0.75000000  0.28708400  0.31561000  1
  O  O25  1  0.75000000  0.36928600  0.02056500  1
  O  O26  1  0.25000000  0.42523800  0.57965200  1
  O  O27  1  0.75000000  0.48898800  0.78455300  1
