# generated using pymatgen
data_CuReO4
_symmetry_space_group_name_H-M   'P 1'
_cell_length_a   6.63285100
_cell_length_b   7.85954223
_cell_length_c   9.74705722
_cell_angle_alpha   101.49397959
_cell_angle_beta   104.66059783
_cell_angle_gamma   94.04549246
_symmetry_Int_Tables_number   1
_chemical_formula_structural   CuReO4
_chemical_formula_sum   'Cu6 Re6 O24'
_cell_volume   477.78515959
_cell_formula_units_Z   6
loop_
 _symmetry_equiv_pos_site_id
 _symmetry_equiv_pos_as_xyz
  1  'x, y, z'
loop_
 _atom_site_type_symbol
 _atom_site_label
 _atom_site_symmetry_multiplicity
 _atom_site_fract_x
 _atom_site_fract_y
 _atom_site_fract_z
 _atom_site_occupancy
  Cu  Cu0  1  0.11663800  0.21068600  0.98470800  1
  Cu  Cu1  1  0.46129800  0.54215000  0.32539500  1
  Cu  Cu2  1  0.73912100  0.21272500  0.44022300  1
  Cu  Cu3  1  0.26087900  0.78727500  0.55977700  1
  Cu  Cu4  1  0.53870200  0.45785000  0.67460500  1
  Cu  Cu5  1  0.88336200  0.78931400  0.01529200  1
  Re  Re6  1  0.40358100  0.87977600  0.10377100  1
  Re  Re7  1  0.94944400  0.45203200  0.23576800  1
  Re  Re8  1  0.22744900  0.13354700  0.34171700  1
  Re  Re9  1  0.77255100  0.86645300  0.65828300  1
  Re  Re10  1  0.05055600  0.54796800  0.76423200  1
  Re  Re11  1  0.59641900  0.12022400  0.89622900  1
  O  O12  1  0.63622500  0.90075200  0.03778200  1
  O  O13  1  0.90587700  0.59425300  0.11536900  1
  O  O14  1  0.78977900  0.24302200  0.05978000  1
  O  O15  1  0.13460100  0.96286100  0.15145100  1
  O  O16  1  0.45322700  0.71349300  0.19922800  1
  O  O17  1  0.19286200  0.33128700  0.19996600  1
  O  O18  1  0.71333900  0.44423200  0.29298700  1
  O  O19  1  0.97827000  0.21793000  0.34679000  1
  O  O20  1  0.49061300  0.07815400  0.26808200  1
  O  O21  1  0.21832100  0.97707100  0.44775400  1
  O  O22  1  0.12987800  0.59125200  0.39171600  1
  O  O23  1  0.57677000  0.69824400  0.52876400  1
  O  O24  1  0.42323000  0.30175600  0.47123600  1
  O  O25  1  0.87012200  0.40874800  0.60828400  1
  O  O26  1  0.78167900  0.02292900  0.55224600  1
  O  O27  1  0.50938700  0.92184600  0.73191800  1
  O  O28  1  0.02173000  0.78207000  0.65321000  1
  O  O29  1  0.28666100  0.55576800  0.70701300  1
  O  O30  1  0.80713800  0.66871300  0.80003400  1
  O  O31  1  0.54677300  0.28650700  0.80077200  1
  O  O32  1  0.86539900  0.03713900  0.84854900  1
  O  O33  1  0.21022100  0.75697800  0.94022000  1
  O  O34  1  0.09412300  0.40574700  0.88463100  1
  O  O35  1  0.36377500  0.09924800  0.96221800  1
