# generated using pymatgen
data_KY(H2N)4
_symmetry_space_group_name_H-M   'P 1'
_cell_length_a   7.35854400
_cell_length_b   16.92690600
_cell_length_c   6.03997100
_cell_angle_alpha   90.00000000
_cell_angle_beta   119.74347408
_cell_angle_gamma   90.00000000
_symmetry_Int_Tables_number   1
_chemical_formula_structural   KY(H2N)4
_chemical_formula_sum   'K4 Y4 H32 N16'
_cell_volume   653.20843437
_cell_formula_units_Z   4
loop_
 _symmetry_equiv_pos_site_id
 _symmetry_equiv_pos_as_xyz
  1  'x, y, z'
loop_
 _atom_site_type_symbol
 _atom_site_label
 _atom_site_symmetry_multiplicity
 _atom_site_fract_x
 _atom_site_fract_y
 _atom_site_fract_z
 _atom_site_occupancy
  K  K0  1  0.00000000  0.30534900  0.75000000  1
  K  K1  1  0.50000000  0.19465100  0.25000000  1
  K  K2  1  0.50000000  0.80534900  0.75000000  1
  K  K3  1  0.00000000  0.69465100  0.25000000  1
  Y  Y4  1  0.50000000  0.43527200  0.25000000  1
  Y  Y5  1  0.00000000  0.06472800  0.75000000  1
  Y  Y6  1  0.00000000  0.93527200  0.25000000  1
  Y  Y7  1  0.50000000  0.56472800  0.75000000  1
  H  H8  1  0.14216500  0.47726500  0.71511100  1
  H  H9  1  0.14501700  0.35643800  0.26689100  1
  H  H10  1  0.28927600  0.41657600  0.66458800  1
  H  H11  1  0.85783500  0.47726500  0.78488900  1
  H  H12  1  0.15266750  0.19600050  0.54840300  1
  H  H13  1  0.84733250  0.19600050  0.95159700  1
  H  H14  1  0.71072400  0.41657600  0.83541200  1
  H  H15  1  0.64501700  0.14356200  0.76689100  1
  H  H16  1  0.85498300  0.35643800  0.23310900  1
  H  H17  1  0.78927600  0.08342400  0.16458800  1
  H  H18  1  0.65266750  0.30399950  0.04840300  1
  H  H19  1  0.34733250  0.30399950  0.45159700  1
  H  H20  1  0.64216500  0.02273500  0.21511100  1
  H  H21  1  0.21072400  0.08342400  0.33541200  1
  H  H22  1  0.35498300  0.14356200  0.73310900  1
  H  H23  1  0.35783500  0.02273500  0.28488900  1
  H  H24  1  0.64216500  0.97726500  0.71511100  1
  H  H25  1  0.64501700  0.85643800  0.26689100  1
  H  H26  1  0.78927600  0.91657600  0.66458800  1
  H  H27  1  0.35783500  0.97726500  0.78488900  1
  H  H28  1  0.65266750  0.69600050  0.54840300  1
  H  H29  1  0.34733250  0.69600050  0.95159700  1
  H  H30  1  0.21072400  0.91657600  0.83541200  1
  H  H31  1  0.14501700  0.64356200  0.76689100  1
  H  H32  1  0.35498300  0.85643800  0.23310900  1
  H  H33  1  0.28927600  0.58342400  0.16458800  1
  H  H34  1  0.15266750  0.80399950  0.04840300  1
  H  H35  1  0.84733250  0.80399950  0.45159700  1
  H  H36  1  0.14216500  0.52273500  0.21511100  1
  H  H37  1  0.71072400  0.58342400  0.33541200  1
  H  H38  1  0.85498300  0.64356200  0.73310900  1
  H  H39  1  0.85783500  0.52273500  0.28488900  1
  N  N40  1  0.28414500  0.33698300  0.28595900  1
  N  N41  1  0.29090150  0.45528150  0.79644700  1
  N  N42  1  0.78414500  0.16301700  0.78595900  1
  N  N43  1  0.70909850  0.45528150  0.70355300  1
  N  N44  1  0.79090150  0.04471850  0.29644700  1
  N  N45  1  0.71585500  0.33698300  0.21404100  1
  N  N46  1  0.20909850  0.04471850  0.20355300  1
  N  N47  1  0.21585500  0.16301700  0.71404100  1
  N  N48  1  0.78414500  0.83698300  0.28595900  1
  N  N49  1  0.79090150  0.95528150  0.79644700  1
  N  N50  1  0.28414500  0.66301700  0.78595900  1
  N  N51  1  0.20909850  0.95528150  0.70355300  1
  N  N52  1  0.29090150  0.54471850  0.29644700  1
  N  N53  1  0.21585500  0.83698300  0.21404100  1
  N  N54  1  0.70909850  0.54471850  0.20355300  1
  N  N55  1  0.71585500  0.66301700  0.71404100  1
