# generated using pymatgen
data_Y2O3
_symmetry_space_group_name_H-M   'P 1'
_cell_length_a   5.82879796
_cell_length_b   5.82879796
_cell_length_c   15.26383070
_cell_angle_alpha   90.00000000
_cell_angle_beta   90.00000000
_cell_angle_gamma   120.00000000
_symmetry_Int_Tables_number   1
_chemical_formula_structural   Y2O3
_chemical_formula_sum   'Y12 O18'
_cell_volume   449.10943200
_cell_formula_units_Z   6
loop_
 _symmetry_equiv_pos_site_id
 _symmetry_equiv_pos_as_xyz
  1  'x, y, z'
loop_
 _atom_site_type_symbol
 _atom_site_label
 _atom_site_symmetry_multiplicity
 _atom_site_fract_x
 _atom_site_fract_y
 _atom_site_fract_z
 _atom_site_occupancy
  Y  Y0  1  0.33333333  0.66666667  0.30860967  1
  Y  Y1  1  0.66666667  0.33333333  0.19139033  1
  Y  Y2  1  0.00000000  0.00000000  0.14194300  1
  Y  Y3  1  0.33333333  0.66666667  0.02472367  1
  Y  Y4  1  0.00000000  0.00000000  0.64194300  1
  Y  Y5  1  0.33333333  0.66666667  0.52472367  1
  Y  Y6  1  0.66666667  0.33333333  0.47527633  1
  Y  Y7  1  0.00000000  0.00000000  0.35805700  1
  Y  Y8  1  0.66666667  0.33333333  0.97527633  1
  Y  Y9  1  0.00000000  0.00000000  0.85805700  1
  Y  Y10  1  0.33333333  0.66666667  0.80860967  1
  Y  Y11  1  0.66666667  0.33333333  0.69139033  1
  O  O12  1  0.66666667  0.62630933  0.08333333  1
  O  O13  1  0.29297600  0.29297600  0.25000000  1
  O  O14  1  0.70702400  0.00000000  0.25000000  1
  O  O15  1  0.95964267  0.33333333  0.08333333  1
  O  O16  1  0.37369067  0.04035733  0.08333333  1
  O  O17  1  0.00000000  0.70702400  0.25000000  1
  O  O18  1  0.33333333  0.95964267  0.41666667  1
  O  O19  1  0.95964267  0.62630933  0.58333333  1
  O  O20  1  0.37369067  0.33333333  0.58333333  1
  O  O21  1  0.62630933  0.66666667  0.41666667  1
  O  O22  1  0.04035733  0.37369067  0.41666667  1
  O  O23  1  0.66666667  0.04035733  0.58333333  1
  O  O24  1  0.00000000  0.29297600  0.75000000  1
  O  O25  1  0.62630933  0.95964267  0.91666667  1
  O  O26  1  0.04035733  0.66666667  0.91666667  1
  O  O27  1  0.29297600  0.00000000  0.75000000  1
  O  O28  1  0.70702400  0.70702400  0.75000000  1
  O  O29  1  0.33333333  0.37369067  0.91666667  1
