# generated using pymatgen
data_Ba7Pb17O24
_symmetry_space_group_name_H-M   'P 1'
_cell_length_a   7.93426000
_cell_length_b   19.08901100
_cell_length_c   8.02466601
_cell_angle_alpha   90.00000000
_cell_angle_beta   118.90325648
_cell_angle_gamma   90.00000000
_symmetry_Int_Tables_number   1
_chemical_formula_structural   Ba7Pb17O24
_chemical_formula_sum   'Ba7 Pb17 O24'
_cell_volume   1064.00029547
_cell_formula_units_Z   1
loop_
 _symmetry_equiv_pos_site_id
 _symmetry_equiv_pos_as_xyz
  1  'x, y, z'
loop_
 _atom_site_type_symbol
 _atom_site_label
 _atom_site_symmetry_multiplicity
 _atom_site_fract_x
 _atom_site_fract_y
 _atom_site_fract_z
 _atom_site_occupancy
  Ba  Ba0  1  0.66720400  0.00000000  0.36530400  1
  Ba  Ba1  1  0.66436600  0.66620000  0.33204800  1
  Ba  Ba2  1  0.66436600  0.33380000  0.33204800  1
  Ba  Ba3  1  0.33358100  0.50000000  0.66697000  1
  Ba  Ba4  1  0.33312500  0.16907200  0.65843200  1
  Ba  Ba5  1  0.33312500  0.83092800  0.65843200  1
  Ba  Ba6  1  0.66606900  0.00000000  0.87266600  1
  Pb  Pb7  1  0.34526400  0.50000000  0.16145400  1
  Pb  Pb8  1  0.34876000  0.83445300  0.15703500  1
  Pb  Pb9  1  0.34876000  0.16554700  0.15703500  1
  Pb  Pb10  1  0.83980300  0.50000000  0.18343400  1
  Pb  Pb11  1  0.83679100  0.17024000  0.17868400  1
  Pb  Pb12  1  0.83679100  0.82976000  0.17868400  1
  Pb  Pb13  1  0.81718000  0.50000000  0.64811900  1
  Pb  Pb14  1  0.81427500  0.16960500  0.64732700  1
  Pb  Pb15  1  0.81427500  0.83039500  0.64732700  1
  Pb  Pb16  1  0.16897600  0.66508900  0.34924000  1
  Pb  Pb17  1  0.16897600  0.33491100  0.34924000  1
  Pb  Pb18  1  0.16895900  0.00000000  0.35560700  1
  Pb  Pb19  1  0.18199000  0.66652400  0.83903000  1
  Pb  Pb20  1  0.18930600  0.00000000  0.85364300  1
  Pb  Pb21  1  0.18199000  0.33347600  0.83903000  1
  Pb  Pb22  1  0.65120900  0.33437500  0.81554200  1
  Pb  Pb23  1  0.65120900  0.66562500  0.81554200  1
  O  O24  1  0.39751300  0.58356400  0.99930100  1
  O  O25  1  0.39527700  0.24956600  0.99337200  1
  O  O26  1  0.41567600  0.91894400  0.00340400  1
  O  O27  1  0.39527700  0.75043400  0.99337200  1
  O  O28  1  0.39751300  0.41643600  0.99930100  1
  O  O29  1  0.41567600  0.08105600  0.00340400  1
  O  O30  1  0.66529200  0.82676600  0.32899200  1
  O  O31  1  0.66529200  0.17323400  0.32899200  1
  O  O32  1  0.66432000  0.50000000  0.33089100  1
  O  O33  1  0.97992700  0.08150300  0.37303100  1
  O  O34  1  0.00609300  0.75021300  0.39617100  1
  O  O35  1  0.99875600  0.58308300  0.39651000  1
  O  O36  1  0.00609300  0.24978700  0.39617100  1
  O  O37  1  0.99875600  0.41691700  0.39651000  1
  O  O38  1  0.97992700  0.91849700  0.37303100  1
  O  O39  1  0.33055400  0.66578200  0.66562300  1
  O  O40  1  0.31014800  0.00000000  0.66178500  1
  O  O41  1  0.33055400  0.33421800  0.66562300  1
  O  O42  1  0.60239800  0.41757000  0.60351400  1
  O  O43  1  0.59937100  0.74695300  0.59873400  1
  O  O44  1  0.60239800  0.58243000  0.60351400  1
  O  O45  1  0.60873500  0.08789500  0.61407200  1
  O  O46  1  0.60873500  0.91210500  0.61407200  1
  O  O47  1  0.59937100  0.25304700  0.59873400  1
