# generated using pymatgen
data_Ho2(SeO3)3
_symmetry_space_group_name_H-M   'P 1'
_cell_length_a   6.82865600
_cell_length_b   8.22098200
_cell_length_c   14.03136100
_cell_angle_alpha   90.00000000
_cell_angle_beta   90.00000000
_cell_angle_gamma   90.00000000
_symmetry_Int_Tables_number   1
_chemical_formula_structural   Ho2(SeO3)3
_chemical_formula_sum   'Ho8 Se12 O36'
_cell_volume   787.69616475
_cell_formula_units_Z   4
loop_
 _symmetry_equiv_pos_site_id
 _symmetry_equiv_pos_as_xyz
  1  'x, y, z'
loop_
 _atom_site_type_symbol
 _atom_site_label
 _atom_site_symmetry_multiplicity
 _atom_site_fract_x
 _atom_site_fract_y
 _atom_site_fract_z
 _atom_site_occupancy
  Ho  Ho0  1  0.17939700  0.20111200  0.56133400  1
  Ho  Ho1  1  0.17939700  0.20111200  0.93866600  1
  Ho  Ho2  1  0.32060300  0.70111200  0.56133400  1
  Ho  Ho3  1  0.32060300  0.70111200  0.93866600  1
  Ho  Ho4  1  0.67939700  0.29888800  0.06133400  1
  Ho  Ho5  1  0.67939700  0.29888800  0.43866600  1
  Ho  Ho6  1  0.82060300  0.79888800  0.06133400  1
  Ho  Ho7  1  0.82060300  0.79888800  0.43866600  1
  Se  Se8  1  0.09361200  0.95506200  0.75000000  1
  Se  Se9  1  0.17667200  0.45263000  0.12580800  1
  Se  Se10  1  0.17667200  0.45263000  0.37419200  1
  Se  Se11  1  0.32332800  0.95263000  0.12580800  1
  Se  Se12  1  0.32332800  0.95263000  0.37419200  1
  Se  Se13  1  0.40638800  0.45506200  0.75000000  1
  Se  Se14  1  0.59361200  0.54493800  0.25000000  1
  Se  Se15  1  0.67667200  0.04737000  0.62580800  1
  Se  Se16  1  0.67667200  0.04737000  0.87419200  1
  Se  Se17  1  0.82332800  0.54737000  0.62580800  1
  Se  Se18  1  0.82332800  0.54737000  0.87419200  1
  Se  Se19  1  0.90638800  0.04493800  0.25000000  1
  O  O20  1  0.02374400  0.29341700  0.09477800  1
  O  O21  1  0.02374400  0.29341700  0.40522200  1
  O  O22  1  0.06604000  0.16244700  0.75000000  1
  O  O23  1  0.09088800  0.62741400  0.07496900  1
  O  O24  1  0.09088800  0.62741400  0.42503100  1
  O  O25  1  0.14497500  0.92686900  0.03829000  1
  O  O26  1  0.14497500  0.92686900  0.46171000  1
  O  O27  1  0.24379100  0.94564900  0.85000200  1
  O  O28  1  0.24379100  0.94564900  0.64999800  1
  O  O29  1  0.25620900  0.44564900  0.85000200  1
  O  O30  1  0.25620900  0.44564900  0.64999800  1
  O  O31  1  0.35502500  0.42686900  0.03829000  1
  O  O32  1  0.35502500  0.42686900  0.46171000  1
  O  O33  1  0.40911200  0.12741400  0.07496900  1
  O  O34  1  0.40911200  0.12741400  0.42503100  1
  O  O35  1  0.43396000  0.66244700  0.75000000  1
  O  O36  1  0.47625600  0.79341700  0.09477800  1
  O  O37  1  0.47625600  0.79341700  0.40522200  1
  O  O38  1  0.52374400  0.20658300  0.59477800  1
  O  O39  1  0.52374400  0.20658300  0.90522200  1
  O  O40  1  0.56604000  0.33755300  0.25000000  1
  O  O41  1  0.59088800  0.87258600  0.57496900  1
  O  O42  1  0.59088800  0.87258600  0.92503100  1
  O  O43  1  0.64497500  0.57313100  0.53829000  1
  O  O44  1  0.64497500  0.57313100  0.96171000  1
  O  O45  1  0.74379100  0.55435100  0.14999800  1
  O  O46  1  0.74379100  0.55435100  0.35000200  1
  O  O47  1  0.75620900  0.05435100  0.14999800  1
  O  O48  1  0.75620900  0.05435100  0.35000200  1
  O  O49  1  0.85502500  0.07313100  0.53829000  1
  O  O50  1  0.85502500  0.07313100  0.96171000  1
  O  O51  1  0.90911200  0.37258600  0.57496900  1
  O  O52  1  0.90911200  0.37258600  0.92503100  1
  O  O53  1  0.93396000  0.83755300  0.25000000  1
  O  O54  1  0.97625600  0.70658300  0.59477800  1
  O  O55  1  0.97625600  0.70658300  0.90522200  1
