# generated using pymatgen
data_Li2Ti2S5
_symmetry_space_group_name_H-M   'P 1'
_cell_length_a   10.55051200
_cell_length_b   6.22652800
_cell_length_c   11.91771961
_cell_angle_alpha   90.00000000
_cell_angle_beta   114.88693666
_cell_angle_gamma   90.00000000
_symmetry_Int_Tables_number   1
_chemical_formula_structural   Li2Ti2S5
_chemical_formula_sum   'Li8 Ti8 S20'
_cell_volume   710.21028189
_cell_formula_units_Z   4
loop_
 _symmetry_equiv_pos_site_id
 _symmetry_equiv_pos_as_xyz
  1  'x, y, z'
loop_
 _atom_site_type_symbol
 _atom_site_label
 _atom_site_symmetry_multiplicity
 _atom_site_fract_x
 _atom_site_fract_y
 _atom_site_fract_z
 _atom_site_occupancy
  Li  Li0  1  0.69034450  0.86580350  0.82448400  1
  Li  Li1  1  0.69034450  0.13419650  0.32448400  1
  Li  Li2  1  0.80965550  0.36580350  0.67551600  1
  Li  Li3  1  0.80965550  0.63419650  0.17551600  1
  Li  Li4  1  0.19034450  0.36580350  0.82448400  1
  Li  Li5  1  0.19034450  0.63419650  0.32448400  1
  Li  Li6  1  0.30965550  0.86580350  0.67551600  1
  Li  Li7  1  0.30965550  0.13419650  0.17551600  1
  Ti  Ti8  1  0.08824350  0.83911850  0.94217500  1
  Ti  Ti9  1  0.91175650  0.83911850  0.55782500  1
  Ti  Ti10  1  0.58824350  0.66088150  0.44217500  1
  Ti  Ti11  1  0.41175650  0.66088150  0.05782500  1
  Ti  Ti12  1  0.58824350  0.33911850  0.94217500  1
  Ti  Ti13  1  0.41175650  0.33911850  0.55782500  1
  Ti  Ti14  1  0.08824350  0.16088150  0.44217500  1
  Ti  Ti15  1  0.91175650  0.16088150  0.05782500  1
  S  S16  1  0.71324250  0.99893750  0.53903300  1
  S  S17  1  0.71324250  0.00106250  0.03903300  1
  S  S18  1  0.58328950  0.60416350  0.63756300  1
  S  S19  1  0.00000000  0.64390800  0.75000000  1
  S  S20  1  0.91671050  0.10416350  0.86243700  1
  S  S21  1  0.58328950  0.39583650  0.13756300  1
  S  S22  1  0.50000000  0.85609200  0.25000000  1
  S  S23  1  0.91671050  0.89583650  0.36243700  1
  S  S24  1  0.78675750  0.49893750  0.96096700  1
  S  S25  1  0.78675750  0.50106250  0.46096700  1
  S  S26  1  0.21324250  0.49893750  0.53903300  1
  S  S27  1  0.21324250  0.50106250  0.03903300  1
  S  S28  1  0.08328950  0.10416350  0.63756300  1
  S  S29  1  0.50000000  0.14390800  0.75000000  1
  S  S30  1  0.41671050  0.60416350  0.86243700  1
  S  S31  1  0.08328950  0.89583650  0.13756300  1
  S  S32  1  0.00000000  0.35609200  0.25000000  1
  S  S33  1  0.41671050  0.39583650  0.36243700  1
  S  S34  1  0.28675750  0.99893750  0.96096700  1
  S  S35  1  0.28675750  0.00106250  0.46096700  1
