# generated using pymatgen
data_LiU3O8
_symmetry_space_group_name_H-M   'P 1'
_cell_length_a   6.91332000
_cell_length_b   11.93420800
_cell_length_c   4.22788500
_cell_angle_alpha   90.00000000
_cell_angle_beta   90.00000000
_cell_angle_gamma   90.00000000
_symmetry_Int_Tables_number   1
_chemical_formula_structural   LiU3O8
_chemical_formula_sum   'Li2 U6 O16'
_cell_volume   348.82164707
_cell_formula_units_Z   2
loop_
 _symmetry_equiv_pos_site_id
 _symmetry_equiv_pos_as_xyz
  1  'x, y, z'
loop_
 _atom_site_type_symbol
 _atom_site_label
 _atom_site_symmetry_multiplicity
 _atom_site_fract_x
 _atom_site_fract_y
 _atom_site_fract_z
 _atom_site_occupancy
  Li  Li0  1  0.42222700  0.00000000  0.50000000  1
  Li  Li1  1  0.92222700  0.50000000  0.50000000  1
  U  U2  1  0.02113400  0.00000000  0.00000000  1
  U  U3  1  0.50970750  0.81709650  0.00000000  1
  U  U4  1  0.50970750  0.18290350  0.00000000  1
  U  U5  1  0.52113400  0.50000000  0.00000000  1
  U  U6  1  0.00970750  0.31709650  0.00000000  1
  U  U7  1  0.00970750  0.68290350  0.00000000  1
  O  O8  1  0.05357500  0.00000000  0.50000000  1
  O  O9  1  0.18212450  0.83894750  0.00000000  1
  O  O10  1  0.18212450  0.16105250  0.00000000  1
  O  O11  1  0.45280900  0.00000000  0.00000000  1
  O  O12  1  0.49843300  0.83483600  0.50000000  1
  O  O13  1  0.49843300  0.16516400  0.50000000  1
  O  O14  1  0.80861150  0.86514050  0.00000000  1
  O  O15  1  0.80861150  0.13485950  0.00000000  1
  O  O16  1  0.55357500  0.50000000  0.50000000  1
  O  O17  1  0.68212450  0.33894750  0.00000000  1
  O  O18  1  0.68212450  0.66105250  0.00000000  1
  O  O19  1  0.95280900  0.50000000  0.00000000  1
  O  O20  1  0.99843300  0.33483600  0.50000000  1
  O  O21  1  0.99843300  0.66516400  0.50000000  1
  O  O22  1  0.30861150  0.36514050  0.00000000  1
  O  O23  1  0.30861150  0.63485950  0.00000000  1
