# generated using pymatgen
data_Rb2Se3
_symmetry_space_group_name_H-M   'P 1'
_cell_length_a   7.88289200
_cell_length_b   11.24184800
_cell_length_c   8.09180400
_cell_angle_alpha   90.00000000
_cell_angle_beta   90.00000000
_cell_angle_gamma   90.00000000
_symmetry_Int_Tables_number   1
_chemical_formula_structural   Rb2Se3
_chemical_formula_sum   'Rb8 Se12'
_cell_volume   717.08170131
_cell_formula_units_Z   4
loop_
 _symmetry_equiv_pos_site_id
 _symmetry_equiv_pos_as_xyz
  1  'x, y, z'
loop_
 _atom_site_type_symbol
 _atom_site_label
 _atom_site_symmetry_multiplicity
 _atom_site_fract_x
 _atom_site_fract_y
 _atom_site_fract_z
 _atom_site_occupancy
  Rb  Rb0  1  0.50000000  0.08578900  0.82543900  1
  Rb  Rb1  1  0.50000000  0.91421100  0.32543900  1
  Rb  Rb2  1  0.50000000  0.59854300  0.54747500  1
  Rb  Rb3  1  0.50000000  0.40145700  0.04747500  1
  Rb  Rb4  1  0.00000000  0.58578900  0.82543900  1
  Rb  Rb5  1  0.00000000  0.41421100  0.32543900  1
  Rb  Rb6  1  0.00000000  0.09854300  0.54747500  1
  Rb  Rb7  1  0.00000000  0.90145700  0.04747500  1
  Se  Se8  1  0.24264150  0.83906550  0.67362900  1
  Se  Se9  1  0.75735850  0.16093450  0.17362900  1
  Se  Se10  1  0.75735850  0.83906550  0.67362900  1
  Se  Se11  1  0.24264150  0.16093450  0.17362900  1
  Se  Se12  1  0.50000000  0.70660600  0.00282800  1
  Se  Se13  1  0.50000000  0.29339400  0.50282800  1
  Se  Se14  1  0.74264150  0.33906550  0.67362900  1
  Se  Se15  1  0.25735850  0.66093450  0.17362900  1
  Se  Se16  1  0.25735850  0.33906550  0.67362900  1
  Se  Se17  1  0.74264150  0.66093450  0.17362900  1
  Se  Se18  1  0.00000000  0.20660600  0.00282800  1
  Se  Se19  1  0.00000000  0.79339400  0.50282800  1
