# generated using pymatgen
data_Bi4O5F2
_symmetry_space_group_name_H-M   'P 1'
_cell_length_a   10.66787000
_cell_length_b   5.62128700
_cell_length_c   14.22942255
_cell_angle_alpha   90.00000000
_cell_angle_beta   97.45305232
_cell_angle_gamma   90.00000000
_symmetry_Int_Tables_number   1
_chemical_formula_structural   Bi4O5F2
_chemical_formula_sum   'Bi16 O20 F8'
_cell_volume   846.08893887
_cell_formula_units_Z   4
loop_
 _symmetry_equiv_pos_site_id
 _symmetry_equiv_pos_as_xyz
  1  'x, y, z'
loop_
 _atom_site_type_symbol
 _atom_site_label
 _atom_site_symmetry_multiplicity
 _atom_site_fract_x
 _atom_site_fract_y
 _atom_site_fract_z
 _atom_site_occupancy
  Bi  Bi0  1  0.61098700  0.81798200  0.96444000  1
  Bi  Bi1  1  0.25834000  0.80087000  0.88326400  1
  Bi  Bi2  1  0.80970800  0.21521500  0.83263500  1
  Bi  Bi3  1  0.43407900  0.31479700  0.77372200  1
  Bi  Bi4  1  0.08645700  0.26393100  0.70757000  1
  Bi  Bi5  1  0.66968800  0.71323800  0.68593100  1
  Bi  Bi6  1  0.27912200  0.78360100  0.61575600  1
  Bi  Bi7  1  0.91704400  0.75041000  0.55139700  1
  Bi  Bi8  1  0.08295600  0.25041000  0.44860300  1
  Bi  Bi9  1  0.72087800  0.28360100  0.38424400  1
  Bi  Bi10  1  0.33031200  0.21323800  0.31406900  1
  Bi  Bi11  1  0.91354300  0.76393100  0.29243000  1
  Bi  Bi12  1  0.56592100  0.81479700  0.22627800  1
  Bi  Bi13  1  0.19029200  0.71521500  0.16736500  1
  Bi  Bi14  1  0.74166000  0.30087000  0.11673600  1
  Bi  Bi15  1  0.38901300  0.31798200  0.03556000  1
  O  O16  1  0.73740000  0.15728100  0.96520100  1
  O  O17  1  0.42262800  0.52524800  0.90392700  1
  O  O18  1  0.43092600  0.02239000  0.91402000  1
  O  O19  1  0.68147200  0.50230700  0.81043700  1
  O  O20  1  0.65358200  0.00051200  0.77957500  1
  O  O21  1  0.24869200  0.51563900  0.73795000  1
  O  O22  1  0.26125900  0.02169400  0.73495000  1
  O  O23  1  0.47118500  0.65484200  0.68294400  1
  O  O24  1  0.07700500  0.49705300  0.57970700  1
  O  O25  1  0.07589200  0.00715400  0.58328300  1
  O  O26  1  0.92410800  0.50715400  0.41671700  1
  O  O27  1  0.92299500  0.99705300  0.42029300  1
  O  O28  1  0.52881500  0.15484200  0.31705600  1
  O  O29  1  0.73874100  0.52169400  0.26505000  1
  O  O30  1  0.75130800  0.01563900  0.26205000  1
  O  O31  1  0.34641800  0.50051200  0.22042500  1
  O  O32  1  0.31852800  0.00230700  0.18956300  1
  O  O33  1  0.56907400  0.52239000  0.08598000  1
  O  O34  1  0.57737200  0.02524800  0.09607300  1
  O  O35  1  0.26260000  0.65728100  0.03479900  1
  F  F36  1  0.17781100  0.17510900  0.92002500  1
  F  F37  1  0.92254500  0.74020000  0.72570100  1
  F  F38  1  0.83698400  0.25726700  0.65293600  1
  F  F39  1  0.33419900  0.15094100  0.55609700  1
  F  F40  1  0.66580100  0.65094100  0.44390300  1
  F  F41  1  0.16301600  0.75726700  0.34706400  1
  F  F42  1  0.07745500  0.24020000  0.27429900  1
  F  F43  1  0.82218900  0.67510900  0.07997500  1
