# generated using pymatgen
data_LiMnOF2
_symmetry_space_group_name_H-M   'P 1'
_cell_length_a   9.30359112
_cell_length_b   5.49032200
_cell_length_c   9.48767563
_cell_angle_alpha   90.00000000
_cell_angle_beta   115.87115078
_cell_angle_gamma   90.00000000
_symmetry_Int_Tables_number   1
_chemical_formula_structural   LiMnOF2
_chemical_formula_sum   'Li8 Mn8 O8 F16'
_cell_volume   436.05717598
_cell_formula_units_Z   8
loop_
 _symmetry_equiv_pos_site_id
 _symmetry_equiv_pos_as_xyz
  1  'x, y, z'
loop_
 _atom_site_type_symbol
 _atom_site_label
 _atom_site_symmetry_multiplicity
 _atom_site_fract_x
 _atom_site_fract_y
 _atom_site_fract_z
 _atom_site_occupancy
  Li  Li0  1  0.34251800  0.78697400  0.34683600  1
  Li  Li1  1  0.65748200  0.78697400  0.15316400  1
  Li  Li2  1  0.84251800  0.71302600  0.84683600  1
  Li  Li3  1  0.15748200  0.71302600  0.65316400  1
  Li  Li4  1  0.84251800  0.28697400  0.34683600  1
  Li  Li5  1  0.15748200  0.28697400  0.15316400  1
  Li  Li6  1  0.34251800  0.21302600  0.84683600  1
  Li  Li7  1  0.65748200  0.21302600  0.65316400  1
  Mn  Mn8  1  0.75000000  0.25000000  0.00000000  1
  Mn  Mn9  1  0.50000000  0.67505500  0.75000000  1
  Mn  Mn10  1  0.75000000  0.75000000  0.50000000  1
  Mn  Mn11  1  0.00000000  0.82494500  0.25000000  1
  Mn  Mn12  1  0.25000000  0.75000000  0.00000000  1
  Mn  Mn13  1  0.00000000  0.17505500  0.75000000  1
  Mn  Mn14  1  0.25000000  0.25000000  0.50000000  1
  Mn  Mn15  1  0.50000000  0.32494500  0.25000000  1
  O  O16  1  0.83193200  0.04773300  0.17926100  1
  O  O17  1  0.83193200  0.95226700  0.67926100  1
  O  O18  1  0.66806800  0.54773300  0.32073900  1
  O  O19  1  0.66806800  0.45226700  0.82073900  1
  O  O20  1  0.33193200  0.54773300  0.17926100  1
  O  O21  1  0.33193200  0.45226700  0.67926100  1
  O  O22  1  0.16806800  0.04773300  0.32073900  1
  O  O23  1  0.16806800  0.95226700  0.82073900  1
  F  F24  1  0.54695450  0.74276450  0.52659100  1
  F  F25  1  0.16050850  0.43643250  0.84807400  1
  F  F26  1  0.83949150  0.43643250  0.65192600  1
  F  F27  1  0.54695450  0.25723550  0.02659100  1
  F  F28  1  0.95304550  0.24276450  0.97340900  1
  F  F29  1  0.66050850  0.06356750  0.34807400  1
  F  F30  1  0.33949150  0.06356750  0.15192600  1
  F  F31  1  0.95304550  0.75723550  0.47340900  1
  F  F32  1  0.04695450  0.24276450  0.52659100  1
  F  F33  1  0.66050850  0.93643250  0.84807400  1
  F  F34  1  0.33949150  0.93643250  0.65192600  1
  F  F35  1  0.04695450  0.75723550  0.02659100  1
  F  F36  1  0.45304550  0.74276450  0.97340900  1
  F  F37  1  0.16050850  0.56356750  0.34807400  1
  F  F38  1  0.83949150  0.56356750  0.15192600  1
  F  F39  1  0.45304550  0.25723550  0.47340900  1
