# generated using pymatgen
data_Lu4(B2O5)3
_symmetry_space_group_name_H-M   'P 1'
_cell_length_a   13.17004139
_cell_length_b   13.17004139
_cell_length_c   6.88924551
_cell_angle_alpha   90.00000000
_cell_angle_beta   90.00000000
_cell_angle_gamma   120.00000000
_symmetry_Int_Tables_number   1
_chemical_formula_structural   Lu4(B2O5)3
_chemical_formula_sum   'Lu12 B18 O45'
_cell_volume   1034.84802131
_cell_formula_units_Z   3
loop_
 _symmetry_equiv_pos_site_id
 _symmetry_equiv_pos_as_xyz
  1  'x, y, z'
loop_
 _atom_site_type_symbol
 _atom_site_label
 _atom_site_symmetry_multiplicity
 _atom_site_fract_x
 _atom_site_fract_y
 _atom_site_fract_z
 _atom_site_occupancy
  Lu  Lu0  1  0.74310400  0.96361400  0.05887900  1
  Lu  Lu1  1  0.55384333  0.92356267  0.72554567  1
  Lu  Lu2  1  0.00000000  0.00000000  0.99364300  1
  Lu  Lu3  1  0.70305267  0.11282333  0.39221233  1
  Lu  Lu4  1  0.40977067  0.29694733  0.39221233  1
  Lu  Lu5  1  0.22051000  0.25689600  0.05887900  1
  Lu  Lu6  1  0.66666667  0.33333333  0.32697633  1
  Lu  Lu7  1  0.36971933  0.44615667  0.72554567  1
  Lu  Lu8  1  0.07643733  0.63028067  0.72554567  1
  Lu  Lu9  1  0.88717667  0.59022933  0.39221233  1
  Lu  Lu10  1  0.33333333  0.66666667  0.66030967  1
  Lu  Lu11  1  0.03638600  0.77949000  0.05887900  1
  B  B12  1  0.84746933  0.38155067  0.65355967  1
  B  B13  1  0.53154467  0.80637033  0.31899033  1
  B  B14  1  0.60815900  0.13512200  0.98565700  1
  B  B15  1  0.20074800  0.48586400  0.98689300  1
  B  B16  1  0.95178267  0.13258533  0.32022633  1
  B  B17  1  0.86029633  0.05850767  0.65232367  1
  B  B18  1  0.51413600  0.71488400  0.98689300  1
  B  B19  1  0.19821133  0.13970367  0.65232367  1
  B  B20  1  0.27482567  0.46845533  0.31899033  1
  B  B21  1  0.86741467  0.81919733  0.32022633  1
  B  B22  1  0.61844933  0.46591867  0.65355967  1
  B  B23  1  0.52696300  0.39184100  0.98565700  1
  B  B24  1  0.18080267  0.04821733  0.32022633  1
  B  B25  1  0.86487800  0.47303700  0.98565700  1
  B  B26  1  0.94149233  0.80178867  0.65232367  1
  B  B27  1  0.53408133  0.15253067  0.65355967  1
  B  B28  1  0.28511600  0.79925200  0.98689300  1
  B  B29  1  0.19362967  0.72517433  0.31899033  1
  O  O30  1  0.88516467  0.03884733  0.83905933  1
  O  O31  1  0.60476067  0.81626833  0.90440033  1
  O  O32  1  0.60981467  0.92224133  0.27659533  1
  O  O33  1  0.83071133  0.37915867  0.85482267  1
  O  O34  1  0.77335667  0.28699733  0.53513933  1
  O  O35  1  0.64576000  0.05685200  0.94326200  1
  O  O36  1  0.62781933  0.17965067  0.17239267  1
  O  O37  1  0.54484100  0.06190600  0.57106700  1
  O  O38  1  0.04633600  0.15302600  0.20180600  1
  O  O39  1  0.21511400  0.50262200  0.18815600  1
  O  O40  1  0.95417467  0.11821933  0.52148933  1
  O  O41  1  0.18030733  0.55997667  0.86847267  1
  O  O42  1  0.85039833  0.12182567  0.23773367  1
  O  O43  1  0.74442533  0.02090667  0.60992867  1
  O  O44  1  0.48701600  0.78150200  0.50572600  1
  O  O45  1  0.55183133  0.37218067  0.17239267  1
  O  O46  1  0.27142733  0.14960167  0.23773367  1
  O  O47  1  0.27648133  0.25557467  0.60992867  1
  O  O48  1  0.49737800  0.71249200  0.18815600  1
  O  O49  1  0.44002333  0.62033067  0.86847267  1
  O  O50  1  0.31242667  0.39018533  0.27659533  1
  O  O51  1  0.29448600  0.51298400  0.50572600  1
  O  O52  1  0.21150767  0.39523933  0.90440033  1
  O  O53  1  0.71300267  0.48635933  0.53513933  1
  O  O54  1  0.88178067  0.83595533  0.52148933  1
  O  O55  1  0.62084133  0.45155267  0.85482267  1
  O  O56  1  0.84697400  0.89331000  0.20180600  1
  O  O57  1  0.51706500  0.45515900  0.57106700  1
  O  O58  1  0.41109200  0.35424000  0.94326200  1
  O  O59  1  0.15368267  0.11483533  0.83905933  1
  O  O60  1  0.21849800  0.70551400  0.50572600  1
  O  O61  1  0.93809400  0.48293500  0.57106700  1
  O  O62  1  0.94314800  0.58890800  0.94326200  1
  O  O63  1  0.16404467  0.04582533  0.52148933  1
  O  O64  1  0.10669000  0.95366400  0.20180600  1
  O  O65  1  0.97909333  0.72351867  0.60992867  1
  O  O66  1  0.96115267  0.84631733  0.83905933  1
  O  O67  1  0.87817433  0.72857267  0.23773367  1
  O  O68  1  0.37966933  0.81969267  0.86847267  1
  O  O69  1  0.54844733  0.16928867  0.85482267  1
  O  O70  1  0.28750800  0.78488600  0.18815600  1
  O  O71  1  0.51364067  0.22664333  0.53513933  1
  O  O72  1  0.18373167  0.78849233  0.90440033  1
  O  O73  1  0.07775867  0.68757333  0.27659533  1
  O  O74  1  0.82034933  0.44816867  0.17239267  1
