# generated using pymatgen
data_Rb3SbO3
_symmetry_space_group_name_H-M   'P 1'
_cell_length_a   9.23477900
_cell_length_b   6.92132200
_cell_length_c   11.23100169
_cell_angle_alpha   90.00000000
_cell_angle_beta   94.99017637
_cell_angle_gamma   90.00000000
_symmetry_Int_Tables_number   1
_chemical_formula_structural   Rb3SbO3
_chemical_formula_sum   'Rb12 Sb4 O12'
_cell_volume   715.12965499
_cell_formula_units_Z   4
loop_
 _symmetry_equiv_pos_site_id
 _symmetry_equiv_pos_as_xyz
  1  'x, y, z'
loop_
 _atom_site_type_symbol
 _atom_site_label
 _atom_site_symmetry_multiplicity
 _atom_site_fract_x
 _atom_site_fract_y
 _atom_site_fract_z
 _atom_site_occupancy
  Rb  Rb0  1  0.65880600  0.69477500  0.06580400  1
  Rb  Rb1  1  0.07823400  0.35738900  0.18586300  1
  Rb  Rb2  1  0.58192500  0.22492000  0.18779800  1
  Rb  Rb3  1  0.41807500  0.72492000  0.31220200  1
  Rb  Rb4  1  0.92176600  0.85738900  0.31413700  1
  Rb  Rb5  1  0.34119400  0.19477500  0.43419600  1
  Rb  Rb6  1  0.65880600  0.80522500  0.56580400  1
  Rb  Rb7  1  0.07823400  0.14261100  0.68586300  1
  Rb  Rb8  1  0.58192500  0.27508000  0.68779800  1
  Rb  Rb9  1  0.41807500  0.77508000  0.81220200  1
  Rb  Rb10  1  0.92176600  0.64261100  0.81413700  1
  Rb  Rb11  1  0.34119400  0.30522500  0.93419600  1
  Sb  Sb12  1  0.18617800  0.85100400  0.06081300  1
  Sb  Sb13  1  0.81382200  0.35100400  0.43918700  1
  Sb  Sb14  1  0.18617800  0.64899600  0.56081300  1
  Sb  Sb15  1  0.81382200  0.14899600  0.93918700  1
  O  O16  1  0.34219600  0.65469300  0.05717400  1
  O  O17  1  0.81785300  0.04306300  0.10273200  1
  O  O18  1  0.28855100  0.05718700  0.15909900  1
  O  O19  1  0.71144900  0.55718700  0.34090100  1
  O  O20  1  0.18214700  0.54306300  0.39726800  1
  O  O21  1  0.65780400  0.15469300  0.44282600  1
  O  O22  1  0.34219600  0.84530700  0.55717400  1
  O  O23  1  0.81785300  0.45693700  0.60273200  1
  O  O24  1  0.28855100  0.44281300  0.65909900  1
  O  O25  1  0.71144900  0.94281300  0.84090100  1
  O  O26  1  0.18214700  0.95693700  0.89726800  1
  O  O27  1  0.65780400  0.34530700  0.94282600  1
