# generated using pymatgen
data_Li3Mn2Fe(BO3)3
_symmetry_space_group_name_H-M   'P 1'
_cell_length_a   8.25024300
_cell_length_b   3.16968200
_cell_length_c   14.31506263
_cell_angle_alpha   90.00000000
_cell_angle_beta   90.04610059
_cell_angle_gamma   90.00000000
_symmetry_Int_Tables_number   1
_chemical_formula_structural   Li3Mn2Fe(BO3)3
_chemical_formula_sum   'Li6 Mn4 Fe2 B6 O18'
_cell_volume   374.34802472
_cell_formula_units_Z   2
loop_
 _symmetry_equiv_pos_site_id
 _symmetry_equiv_pos_as_xyz
  1  'x, y, z'
loop_
 _atom_site_type_symbol
 _atom_site_label
 _atom_site_symmetry_multiplicity
 _atom_site_fract_x
 _atom_site_fract_y
 _atom_site_fract_z
 _atom_site_occupancy
  Li  Li0  1  0.29295400  0.50000000  0.98999800  1
  Li  Li1  1  0.34070100  0.50000000  0.35854300  1
  Li  Li2  1  0.36682900  0.50000000  0.65148800  1
  Li  Li3  1  0.79304600  0.50000000  0.49294400  1
  Li  Li4  1  0.84136200  0.50000000  0.85681600  1
  Li  Li5  1  0.86712200  0.50000000  0.15030800  1
  Mn  Mn6  1  0.13410500  0.00000000  0.50658100  1
  Mn  Mn7  1  0.19156900  0.00000000  0.17971600  1
  Mn  Mn8  1  0.63446200  0.00000000  0.00535600  1
  Mn  Mn9  1  0.67379300  0.00000000  0.31456500  1
  Fe  Fe10  1  0.17530400  0.00000000  0.81661800  1
  Fe  Fe11  1  0.68722000  0.00000000  0.67943100  1
  B  B12  1  0.99945100  0.50000000  0.66830800  1
  B  B13  1  0.99943800  0.00000000  0.99886000  1
  B  B14  1  0.99994900  0.50000000  0.33347900  1
  B  B15  1  0.49994400  0.50000000  0.16641100  1
  B  B16  1  0.50152900  0.00000000  0.50028500  1
  B  B17  1  0.49903900  0.50000000  0.83214600  1
  O  O18  1  0.00985900  0.50000000  0.43014100  1
  O  O19  1  0.01830000  0.50000000  0.76480500  1
  O  O20  1  0.13714500  0.50000000  0.61115700  1
  O  O21  1  0.14055800  0.50000000  0.27997800  1
  O  O22  1  0.15374000  0.00000000  0.95843000  1
  O  O23  1  0.34736800  0.50000000  0.12458400  1
  O  O24  1  0.34679700  0.50000000  0.79049200  1
  O  O25  1  0.36441100  0.00000000  0.44353600  1
  O  O26  1  0.48537500  0.00000000  0.59748900  1
  O  O27  1  0.51138400  0.50000000  0.92911800  1
  O  O28  1  0.51338500  0.50000000  0.26335700  1
  O  O29  1  0.63857100  0.50000000  0.11111700  1
  O  O30  1  0.63837900  0.50000000  0.77763100  1
  O  O31  1  0.65547200  0.00000000  0.46061900  1
  O  O32  1  0.84564900  0.50000000  0.62828300  1
  O  O33  1  0.84971700  0.50000000  0.28969000  1
  O  O34  1  0.86309500  0.00000000  0.94192700  1
  O  O35  1  0.98297900  0.00000000  0.09579500  1
