# generated using pymatgen
data_In3NO3
_symmetry_space_group_name_H-M   'P 1'
_cell_length_a   6.53023566
_cell_length_b   6.53023566
_cell_length_c   16.24323622
_cell_angle_alpha   90.00000000
_cell_angle_beta   90.00000000
_cell_angle_gamma   120.00000000
_symmetry_Int_Tables_number   1
_chemical_formula_structural   In3NO3
_chemical_formula_sum   'In18 N6 O18'
_cell_volume   599.87518939
_cell_formula_units_Z   6
loop_
 _symmetry_equiv_pos_site_id
 _symmetry_equiv_pos_as_xyz
  1  'x, y, z'
loop_
 _atom_site_type_symbol
 _atom_site_label
 _atom_site_symmetry_multiplicity
 _atom_site_fract_x
 _atom_site_fract_y
 _atom_site_fract_z
 _atom_site_occupancy
  In  In0  1  0.50000000  0.50000000  0.00000000  1
  In  In1  1  0.66666667  0.33333333  0.19822833  1
  In  In2  1  0.33333333  0.66666667  0.16666667  1
  In  In3  1  0.00000000  0.00000000  0.13510500  1
  In  In4  1  0.50000000  0.00000000  0.00000000  1
  In  In5  1  0.00000000  0.50000000  0.00000000  1
  In  In6  1  0.16666667  0.83333333  0.33333333  1
  In  In7  1  0.33333333  0.66666667  0.53156167  1
  In  In8  1  1.00000000  1.00000000  0.50000000  1
  In  In9  1  0.66666667  0.33333333  0.46843833  1
  In  In10  1  0.16666667  0.33333333  0.33333333  1
  In  In11  1  0.66666667  0.83333333  0.33333333  1
  In  In12  1  0.83333333  0.16666667  0.66666667  1
  In  In13  1  0.00000000  0.00000000  0.86489500  1
  In  In14  1  0.66666667  0.33333333  0.83333333  1
  In  In15  1  0.33333333  0.66666667  0.80177167  1
  In  In16  1  0.83333333  0.66666667  0.66666667  1
  In  In17  1  0.33333333  0.16666667  0.66666667  1
  N  N18  1  0.66666667  0.33333333  0.06706533  1
  N  N19  1  0.00000000  0.00000000  0.26626800  1
  N  N20  1  0.33333333  0.66666667  0.40039867  1
  N  N21  1  0.66666667  0.33333333  0.59960133  1
  N  N22  1  0.00000000  0.00000000  0.73373200  1
  N  N23  1  0.33333333  0.66666667  0.93293467  1
  O  O24  1  0.64817600  0.82408800  0.08464300  1
  O  O25  1  0.17591200  0.35182400  0.08464300  1
  O  O26  1  0.49075467  0.50924533  0.24869033  1
  O  O27  1  0.49075467  0.98150933  0.24869033  1
  O  O28  1  0.01849067  0.50924533  0.24869033  1
  O  O29  1  0.17591200  0.82408800  0.08464300  1
  O  O30  1  0.31484267  0.15742133  0.41797633  1
  O  O31  1  0.84257867  0.68515733  0.41797633  1
  O  O32  1  0.15742133  0.84257867  0.58202367  1
  O  O33  1  0.15742133  0.31484267  0.58202367  1
  O  O34  1  0.68515733  0.84257867  0.58202367  1
  O  O35  1  0.84257867  0.15742133  0.41797633  1
  O  O36  1  0.98150933  0.49075467  0.75130967  1
  O  O37  1  0.50924533  0.01849067  0.75130967  1
  O  O38  1  0.82408800  0.17591200  0.91535700  1
  O  O39  1  0.82408800  0.64817600  0.91535700  1
  O  O40  1  0.35182400  0.17591200  0.91535700  1
  O  O41  1  0.50924533  0.49075467  0.75130967  1
