# generated using pymatgen
data_BaSr3I8
_symmetry_space_group_name_H-M   'P 1'
_cell_length_a   8.14358450
_cell_length_b   8.14358450
_cell_length_c   16.32497400
_cell_angle_alpha   90.00000000
_cell_angle_beta   90.00000000
_cell_angle_gamma   90.00000000
_symmetry_Int_Tables_number   1
_chemical_formula_structural   BaSr3I8
_chemical_formula_sum   'Ba2 Sr6 I16'
_cell_volume   1082.63911164
_cell_formula_units_Z   2
loop_
 _symmetry_equiv_pos_site_id
 _symmetry_equiv_pos_as_xyz
  1  'x, y, z'
loop_
 _atom_site_type_symbol
 _atom_site_label
 _atom_site_symmetry_multiplicity
 _atom_site_fract_x
 _atom_site_fract_y
 _atom_site_fract_z
 _atom_site_occupancy
  Ba  Ba0  1  0.00000000  0.00000000  0.00000000  1
  Ba  Ba1  1  0.50000000  0.50000000  0.50000000  1
  Sr  Sr2  1  0.50000000  0.50000000  0.00000000  1
  Sr  Sr3  1  0.50000000  0.00000000  0.25000000  1
  Sr  Sr4  1  0.00000000  0.50000000  0.25000000  1
  Sr  Sr5  1  0.00000000  0.00000000  0.50000000  1
  Sr  Sr6  1  0.00000000  0.50000000  0.75000000  1
  Sr  Sr7  1  0.50000000  0.00000000  0.75000000  1
  I  I8  1  0.25430650  0.74569350  0.12711250  1
  I  I9  1  0.25430650  0.25430650  0.12711250  1
  I  I10  1  0.75430650  0.24569350  0.37288750  1
  I  I11  1  0.75430650  0.75430650  0.37288750  1
  I  I12  1  0.74569350  0.74569350  0.12711250  1
  I  I13  1  0.74569350  0.25430650  0.12711250  1
  I  I14  1  0.24569350  0.75430650  0.37288750  1
  I  I15  1  0.24569350  0.24569350  0.37288750  1
  I  I16  1  0.75430650  0.24569350  0.62711250  1
  I  I17  1  0.75430650  0.75430650  0.62711250  1
  I  I18  1  0.25430650  0.74569350  0.87288750  1
  I  I19  1  0.25430650  0.25430650  0.87288750  1
  I  I20  1  0.24569350  0.24569350  0.62711250  1
  I  I21  1  0.24569350  0.75430650  0.62711250  1
  I  I22  1  0.74569350  0.25430650  0.87288750  1
  I  I23  1  0.74569350  0.74569350  0.87288750  1
