# generated using pymatgen
data_Na4B4Sb2SO16
_symmetry_space_group_name_H-M   'P 1'
_cell_length_a   13.88981800
_cell_length_b   13.98112600
_cell_length_c   14.44181600
_cell_angle_alpha   90.00000000
_cell_angle_beta   90.00000000
_cell_angle_gamma   90.00000000
_symmetry_Int_Tables_number   1
_chemical_formula_structural   Na4B4Sb2SO16
_chemical_formula_sum   'Na32 B32 Sb16 S8 O128'
_cell_volume   2804.53272676
_cell_formula_units_Z   8
loop_
 _symmetry_equiv_pos_site_id
 _symmetry_equiv_pos_as_xyz
  1  'x, y, z'
loop_
 _atom_site_type_symbol
 _atom_site_label
 _atom_site_symmetry_multiplicity
 _atom_site_fract_x
 _atom_site_fract_y
 _atom_site_fract_z
 _atom_site_occupancy
  Na  Na0  1  0.75000000  0.04383600  0.25000000  1
  Na  Na1  1  0.54334100  0.25000000  0.25000000  1
  Na  Na2  1  0.29334100  0.00000000  0.00000000  1
  Na  Na3  1  0.50000000  0.79383600  0.00000000  1
  Na  Na4  1  0.75000000  0.45616400  0.25000000  1
  Na  Na5  1  0.95665900  0.25000000  0.25000000  1
  Na  Na6  1  0.70665900  0.00000000  0.00000000  1
  Na  Na7  1  0.50000000  0.20616400  0.00000000  1
  Na  Na8  1  0.75000000  0.54383600  0.75000000  1
  Na  Na9  1  0.54334100  0.75000000  0.75000000  1
  Na  Na10  1  0.29334100  0.50000000  0.50000000  1
  Na  Na11  1  0.50000000  0.29383600  0.50000000  1
  Na  Na12  1  0.75000000  0.95616400  0.75000000  1
  Na  Na13  1  0.95665900  0.75000000  0.75000000  1
  Na  Na14  1  0.70665900  0.50000000  0.50000000  1
  Na  Na15  1  0.50000000  0.70616400  0.50000000  1
  Na  Na16  1  0.25000000  0.04383600  0.75000000  1
  Na  Na17  1  0.04334100  0.25000000  0.75000000  1
  Na  Na18  1  0.79334100  0.00000000  0.50000000  1
  Na  Na19  1  0.00000000  0.79383600  0.50000000  1
  Na  Na20  1  0.25000000  0.45616400  0.75000000  1
  Na  Na21  1  0.45665900  0.25000000  0.75000000  1
  Na  Na22  1  0.20665900  0.00000000  0.50000000  1
  Na  Na23  1  0.00000000  0.20616400  0.50000000  1
  Na  Na24  1  0.25000000  0.54383600  0.25000000  1
  Na  Na25  1  0.04334100  0.75000000  0.25000000  1
  Na  Na26  1  0.79334100  0.50000000  0.00000000  1
  Na  Na27  1  0.00000000  0.29383600  0.00000000  1
  Na  Na28  1  0.25000000  0.95616400  0.25000000  1
  Na  Na29  1  0.45665900  0.75000000  0.25000000  1
  Na  Na30  1  0.20665900  0.50000000  0.00000000  1
  Na  Na31  1  0.00000000  0.70616400  0.00000000  1
  B  B32  1  0.59015550  0.08854800  0.41576050  1
  B  B33  1  0.84015550  0.83854800  0.33423950  1
  B  B34  1  0.90984450  0.08854800  0.08423950  1
  B  B35  1  0.59015550  0.41145200  0.08423950  1
  B  B36  1  0.65984450  0.83854800  0.16576050  1
  B  B37  1  0.34015550  0.16145200  0.16576050  1
  B  B38  1  0.90984450  0.41145200  0.41576050  1
  B  B39  1  0.15984450  0.16145200  0.33423950  1
  B  B40  1  0.59015550  0.58854800  0.91576050  1
  B  B41  1  0.84015550  0.33854800  0.83423950  1
  B  B42  1  0.90984450  0.58854800  0.58423950  1
  B  B43  1  0.59015550  0.91145200  0.58423950  1
  B  B44  1  0.65984450  0.33854800  0.66576050  1
  B  B45  1  0.34015550  0.66145200  0.66576050  1
  B  B46  1  0.90984450  0.91145200  0.91576050  1
  B  B47  1  0.15984450  0.66145200  0.83423950  1
  B  B48  1  0.09015550  0.08854800  0.91576050  1
  B  B49  1  0.34015550  0.83854800  0.83423950  1
  B  B50  1  0.40984450  0.08854800  0.58423950  1
  B  B51  1  0.09015550  0.41145200  0.58423950  1
  B  B52  1  0.15984450  0.83854800  0.66576050  1
  B  B53  1  0.84015550  0.16145200  0.66576050  1
  B  B54  1  0.40984450  0.41145200  0.91576050  1
  B  B55  1  0.65984450  0.16145200  0.83423950  1
  B  B56  1  0.09015550  0.58854800  0.41576050  1
  B  B57  1  0.34015550  0.33854800  0.33423950  1
  B  B58  1  0.40984450  0.58854800  0.08423950  1
  B  B59  1  0.09015550  0.91145200  0.08423950  1
  B  B60  1  0.15984450  0.33854800  0.16576050  1
  B  B61  1  0.84015550  0.66145200  0.16576050  1
  B  B62  1  0.40984450  0.91145200  0.41576050  1
  B  B63  1  0.65984450  0.66145200  0.33423950  1
  Sb  Sb64  1  0.87500000  0.87500000  0.12500000  1
  Sb  Sb65  1  0.62500000  0.62500000  0.12500000  1
  Sb  Sb66  1  0.62500000  0.87500000  0.37500000  1
  Sb  Sb67  1  0.87500000  0.62500000  0.37500000  1
  Sb  Sb68  1  0.87500000  0.37500000  0.62500000  1
  Sb  Sb69  1  0.62500000  0.12500000  0.62500000  1
  Sb  Sb70  1  0.62500000  0.37500000  0.87500000  1
  Sb  Sb71  1  0.87500000  0.12500000  0.87500000  1
  Sb  Sb72  1  0.37500000  0.87500000  0.62500000  1
  Sb  Sb73  1  0.12500000  0.62500000  0.62500000  1
  Sb  Sb74  1  0.12500000  0.87500000  0.87500000  1
  Sb  Sb75  1  0.37500000  0.62500000  0.87500000  1
  Sb  Sb76  1  0.37500000  0.37500000  0.12500000  1
  Sb  Sb77  1  0.12500000  0.12500000  0.12500000  1
  Sb  Sb78  1  0.12500000  0.37500000  0.37500000  1
  Sb  Sb79  1  0.37500000  0.12500000  0.37500000  1
  S  S80  1  0.50000000  0.00000000  0.00000000  1
  S  S81  1  0.75000000  0.25000000  0.25000000  1
  S  S82  1  0.50000000  0.50000000  0.50000000  1
  S  S83  1  0.75000000  0.75000000  0.75000000  1
  S  S84  1  0.00000000  0.00000000  0.50000000  1
  S  S85  1  0.25000000  0.25000000  0.75000000  1
  S  S86  1  0.00000000  0.50000000  0.00000000  1
  S  S87  1  0.25000000  0.75000000  0.25000000  1
  O  O88  1  0.60628550  0.01521650  0.35350500  1
  O  O89  1  0.93699850  0.06270800  0.44176750  1
  O  O90  1  0.65031800  0.10069350  0.49072950  1
  O  O91  1  0.90031800  0.85069350  0.25927050  1
  O  O92  1  0.84968200  0.10069350  0.00927050  1
  O  O93  1  0.76532150  0.90272600  0.35054550  1
  O  O94  1  0.56300150  0.06270800  0.05823250  1
  O  O95  1  0.06300150  0.93729200  0.44176750  1
  O  O96  1  0.26532150  0.09727400  0.14945450  1
  O  O97  1  0.15031800  0.89930650  0.00927050  1
  O  O98  1  0.85628550  0.76521650  0.39649500  1
  O  O99  1  0.43699850  0.93729200  0.05823250  1
  O  O100  1  0.89371450  0.01521650  0.14649500  1
  O  O101  1  0.10628550  0.98478350  0.14649500  1
  O  O102  1  0.01532150  0.65272600  0.39945450  1
  O  O103  1  0.73467850  0.90272600  0.14945450  1
  O  O104  1  0.51532150  0.34727400  0.10054550  1
  O  O105  1  0.23467850  0.09727400  0.35054550  1
  O  O106  1  0.64371450  0.76521650  0.10350500  1
  O  O107  1  0.35628550  0.23478350  0.10350500  1
  O  O108  1  0.81300150  0.31270800  0.19176750  1
  O  O109  1  0.39371450  0.98478350  0.35350500  1
  O  O110  1  0.59968200  0.85069350  0.24072950  1
  O  O111  1  0.48467850  0.65272600  0.10054550  1
  O  O112  1  0.68699850  0.31270800  0.30823250  1
  O  O113  1  0.68699850  0.18729200  0.19176750  1
  O  O114  1  0.98467850  0.34727400  0.39945450  1
  O  O115  1  0.40031800  0.14930650  0.24072950  1
  O  O116  1  0.34968200  0.89930650  0.49072950  1
  O  O117  1  0.09968200  0.14930650  0.25927050  1
  O  O118  1  0.81300150  0.18729200  0.30823250  1
  O  O119  1  0.14371450  0.23478350  0.39649500  1
  O  O120  1  0.60628550  0.51521650  0.85350500  1
  O  O121  1  0.93699850  0.56270800  0.94176750  1
  O  O122  1  0.65031800  0.60069350  0.99072950  1
  O  O123  1  0.90031800  0.35069350  0.75927050  1
  O  O124  1  0.84968200  0.60069350  0.50927050  1
  O  O125  1  0.76532150  0.40272600  0.85054550  1
  O  O126  1  0.56300150  0.56270800  0.55823250  1
  O  O127  1  0.06300150  0.43729200  0.94176750  1
  O  O128  1  0.26532150  0.59727400  0.64945450  1
  O  O129  1  0.15031800  0.39930650  0.50927050  1
  O  O130  1  0.85628550  0.26521650  0.89649500  1
  O  O131  1  0.43699850  0.43729200  0.55823250  1
  O  O132  1  0.89371450  0.51521650  0.64649500  1
  O  O133  1  0.10628550  0.48478350  0.64649500  1
  O  O134  1  0.01532150  0.15272600  0.89945450  1
  O  O135  1  0.73467850  0.40272600  0.64945450  1
  O  O136  1  0.51532150  0.84727400  0.60054550  1
  O  O137  1  0.23467850  0.59727400  0.85054550  1
  O  O138  1  0.64371450  0.26521650  0.60350500  1
  O  O139  1  0.35628550  0.73478350  0.60350500  1
  O  O140  1  0.81300150  0.81270800  0.69176750  1
  O  O141  1  0.39371450  0.48478350  0.85350500  1
  O  O142  1  0.59968200  0.35069350  0.74072950  1
  O  O143  1  0.48467850  0.15272600  0.60054550  1
  O  O144  1  0.68699850  0.81270800  0.80823250  1
  O  O145  1  0.68699850  0.68729200  0.69176750  1
  O  O146  1  0.98467850  0.84727400  0.89945450  1
  O  O147  1  0.40031800  0.64930650  0.74072950  1
  O  O148  1  0.34968200  0.39930650  0.99072950  1
  O  O149  1  0.09968200  0.64930650  0.75927050  1
  O  O150  1  0.81300150  0.68729200  0.80823250  1
  O  O151  1  0.14371450  0.73478350  0.89649500  1
  O  O152  1  0.10628550  0.01521650  0.85350500  1
  O  O153  1  0.43699850  0.06270800  0.94176750  1
  O  O154  1  0.15031800  0.10069350  0.99072950  1
  O  O155  1  0.40031800  0.85069350  0.75927050  1
  O  O156  1  0.34968200  0.10069350  0.50927050  1
  O  O157  1  0.26532150  0.90272600  0.85054550  1
  O  O158  1  0.06300150  0.06270800  0.55823250  1
  O  O159  1  0.56300150  0.93729200  0.94176750  1
  O  O160  1  0.76532150  0.09727400  0.64945450  1
  O  O161  1  0.65031800  0.89930650  0.50927050  1
  O  O162  1  0.35628550  0.76521650  0.89649500  1
  O  O163  1  0.93699850  0.93729200  0.55823250  1
  O  O164  1  0.39371450  0.01521650  0.64649500  1
  O  O165  1  0.60628550  0.98478350  0.64649500  1
  O  O166  1  0.51532150  0.65272600  0.89945450  1
  O  O167  1  0.23467850  0.90272600  0.64945450  1
  O  O168  1  0.01532150  0.34727400  0.60054550  1
  O  O169  1  0.73467850  0.09727400  0.85054550  1
  O  O170  1  0.14371450  0.76521650  0.60350500  1
  O  O171  1  0.85628550  0.23478350  0.60350500  1
  O  O172  1  0.31300150  0.31270800  0.69176750  1
  O  O173  1  0.89371450  0.98478350  0.85350500  1
  O  O174  1  0.09968200  0.85069350  0.74072950  1
  O  O175  1  0.98467850  0.65272600  0.60054550  1
  O  O176  1  0.18699850  0.31270800  0.80823250  1
  O  O177  1  0.18699850  0.18729200  0.69176750  1
  O  O178  1  0.48467850  0.34727400  0.89945450  1
  O  O179  1  0.90031800  0.14930650  0.74072950  1
  O  O180  1  0.84968200  0.89930650  0.99072950  1
  O  O181  1  0.59968200  0.14930650  0.75927050  1
  O  O182  1  0.31300150  0.18729200  0.80823250  1
  O  O183  1  0.64371450  0.23478350  0.89649500  1
  O  O184  1  0.10628550  0.51521650  0.35350500  1
  O  O185  1  0.43699850  0.56270800  0.44176750  1
  O  O186  1  0.15031800  0.60069350  0.49072950  1
  O  O187  1  0.40031800  0.35069350  0.25927050  1
  O  O188  1  0.34968200  0.60069350  0.00927050  1
  O  O189  1  0.26532150  0.40272600  0.35054550  1
  O  O190  1  0.06300150  0.56270800  0.05823250  1
  O  O191  1  0.56300150  0.43729200  0.44176750  1
  O  O192  1  0.76532150  0.59727400  0.14945450  1
  O  O193  1  0.65031800  0.39930650  0.00927050  1
  O  O194  1  0.35628550  0.26521650  0.39649500  1
  O  O195  1  0.93699850  0.43729200  0.05823250  1
  O  O196  1  0.39371450  0.51521650  0.14649500  1
  O  O197  1  0.60628550  0.48478350  0.14649500  1
  O  O198  1  0.51532150  0.15272600  0.39945450  1
  O  O199  1  0.23467850  0.40272600  0.14945450  1
  O  O200  1  0.01532150  0.84727400  0.10054550  1
  O  O201  1  0.73467850  0.59727400  0.35054550  1
  O  O202  1  0.14371450  0.26521650  0.10350500  1
  O  O203  1  0.85628550  0.73478350  0.10350500  1
  O  O204  1  0.31300150  0.81270800  0.19176750  1
  O  O205  1  0.89371450  0.48478350  0.35350500  1
  O  O206  1  0.09968200  0.35069350  0.24072950  1
  O  O207  1  0.98467850  0.15272600  0.10054550  1
  O  O208  1  0.18699850  0.81270800  0.30823250  1
  O  O209  1  0.18699850  0.68729200  0.19176750  1
  O  O210  1  0.48467850  0.84727400  0.39945450  1
  O  O211  1  0.90031800  0.64930650  0.24072950  1
  O  O212  1  0.84968200  0.39930650  0.49072950  1
  O  O213  1  0.59968200  0.64930650  0.25927050  1
  O  O214  1  0.31300150  0.68729200  0.30823250  1
  O  O215  1  0.64371450  0.73478350  0.39649500  1
