# generated using pymatgen
data_CsCoH18N6(ClO2)4
_symmetry_space_group_name_H-M   'P 1'
_cell_length_a   13.99113800
_cell_length_b   8.08172800
_cell_length_c   10.28508847
_cell_angle_alpha   90.00000000
_cell_angle_beta   117.20910347
_cell_angle_gamma   90.00000000
_symmetry_Int_Tables_number   1
_chemical_formula_structural   CsCoH18N6(ClO2)4
_chemical_formula_sum   'Cs2 Co2 H36 N12 Cl8 O16'
_cell_volume   1034.27243906
_cell_formula_units_Z   2
loop_
 _symmetry_equiv_pos_site_id
 _symmetry_equiv_pos_as_xyz
  1  'x, y, z'
loop_
 _atom_site_type_symbol
 _atom_site_label
 _atom_site_symmetry_multiplicity
 _atom_site_fract_x
 _atom_site_fract_y
 _atom_site_fract_z
 _atom_site_occupancy
  Cs  Cs0  1  0.50314800  0.00000000  0.50912000  1
  Cs  Cs1  1  0.00314800  0.50000000  0.50912000  1
  Co  Co2  1  0.45368600  0.50000000  0.86061200  1
  Co  Co3  1  0.95368600  0.00000000  0.86061200  1
  H  H4  1  0.40824950  0.20524750  0.82373500  1
  H  H5  1  0.11193150  0.89971650  0.83243600  1
  H  H6  1  0.31057450  0.70257950  0.83649800  1
  H  H7  1  0.40824950  0.79475250  0.82373500  1
  H  H8  1  0.31057450  0.29742050  0.83649800  1
  H  H9  1  0.11193150  0.10028350  0.83243600  1
  H  H10  1  0.14572650  0.65044850  0.08814200  1
  H  H11  1  0.04526850  0.75022750  0.09689600  1
  H  H12  1  0.15150750  0.85527650  0.10001400  1
  H  H13  1  0.16767950  0.74343350  0.24947300  1
  H  H14  1  0.29642200  0.50000000  0.08730200  1
  H  H15  1  0.14572650  0.34955150  0.08814200  1
  H  H16  1  0.04526850  0.24977250  0.09689600  1
  H  H17  1  0.40211450  0.60524550  0.09957800  1
  H  H18  1  0.90211450  0.89475450  0.09957800  1
  H  H19  1  0.65150750  0.64472350  0.10001400  1
  H  H20  1  0.16767950  0.25656650  0.24947300  1
  H  H21  1  0.41302900  0.50000000  0.24934200  1
  H  H22  1  0.90824950  0.70524750  0.82373500  1
  H  H23  1  0.61193150  0.39971650  0.83243600  1
  H  H24  1  0.81057450  0.20257950  0.83649800  1
  H  H25  1  0.90824950  0.29475250  0.82373500  1
  H  H26  1  0.81057450  0.79742050  0.83649800  1
  H  H27  1  0.61193150  0.60028350  0.83243600  1
  H  H28  1  0.64572650  0.15044850  0.08814200  1
  H  H29  1  0.54526850  0.25022750  0.09689600  1
  H  H30  1  0.65150750  0.35527650  0.10001400  1
  H  H31  1  0.66767950  0.24343350  0.24947300  1
  H  H32  1  0.79642200  0.00000000  0.08730200  1
  H  H33  1  0.64572650  0.84955150  0.08814200  1
  H  H34  1  0.54526850  0.74977250  0.09689600  1
  H  H35  1  0.90211450  0.10524550  0.09957800  1
  H  H36  1  0.40211450  0.39475450  0.09957800  1
  H  H37  1  0.15150750  0.14472350  0.10001400  1
  H  H38  1  0.66767950  0.75656650  0.24947300  1
  H  H39  1  0.91302900  0.00000000  0.24934200  1
  N  N40  1  0.39308500  0.30162300  0.87539100  1
  N  N41  1  0.09021400  0.00000000  0.87370500  1
  N  N42  1  0.39308500  0.69837700  0.87539100  1
  N  N43  1  0.12800100  0.75194000  0.13738500  1
  N  N44  1  0.12800100  0.24806000  0.13738500  1
  N  N45  1  0.38109200  0.50000000  0.13730100  1
  N  N46  1  0.89308500  0.80162300  0.87539100  1
  N  N47  1  0.59021400  0.50000000  0.87370500  1
  N  N48  1  0.89308500  0.19837700  0.87539100  1
  N  N49  1  0.62800100  0.25194000  0.13738500  1
  N  N50  1  0.62800100  0.74806000  0.13738500  1
  N  N51  1  0.88109200  0.00000000  0.13730100  1
  Cl  Cl52  1  0.18410900  0.00000000  0.55250800  1
  Cl  Cl53  1  0.88163700  0.50000000  0.15266400  1
  Cl  Cl54  1  0.64127700  0.00000000  0.92217500  1
  Cl  Cl55  1  0.30994600  0.50000000  0.42962400  1
  Cl  Cl56  1  0.68410900  0.50000000  0.55250800  1
  Cl  Cl57  1  0.38163700  0.00000000  0.15266400  1
  Cl  Cl58  1  0.14127700  0.50000000  0.92217500  1
  Cl  Cl59  1  0.80994600  0.00000000  0.42962400  1
  O  O60  1  0.12987500  0.00000000  0.39099900  1
  O  O61  1  0.34039000  0.35203200  0.37337300  1
  O  O62  1  0.34039000  0.64796800  0.37337300  1
  O  O63  1  0.19240500  0.50000000  0.37312900  1
  O  O64  1  0.30050400  0.00000000  0.60512900  1
  O  O65  1  0.15243100  0.85212500  0.60485200  1
  O  O66  1  0.15243100  0.14787500  0.60485200  1
  O  O67  1  0.36255200  0.50000000  0.58684300  1
  O  O68  1  0.62987500  0.50000000  0.39099900  1
  O  O69  1  0.84039000  0.85203200  0.37337300  1
  O  O70  1  0.84039000  0.14796800  0.37337300  1
  O  O71  1  0.69240500  0.00000000  0.37312900  1
  O  O72  1  0.80050400  0.50000000  0.60512900  1
  O  O73  1  0.65243100  0.35212500  0.60485200  1
  O  O74  1  0.65243100  0.64787500  0.60485200  1
  O  O75  1  0.86255200  0.00000000  0.58684300  1
