# generated using pymatgen
data_Li2MnOF3
_symmetry_space_group_name_H-M   'P 1'
_cell_length_a   3.03069071
_cell_length_b   5.22686500
_cell_length_c   9.58365584
_cell_angle_alpha   90.00000000
_cell_angle_beta   93.23640227
_cell_angle_gamma   90.00000000
_symmetry_Int_Tables_number   1
_chemical_formula_structural   Li2MnOF3
_chemical_formula_sum   'Li4 Mn2 O2 F6'
_cell_volume   151.57266934
_cell_formula_units_Z   2
loop_
 _symmetry_equiv_pos_site_id
 _symmetry_equiv_pos_as_xyz
  1  'x, y, z'
loop_
 _atom_site_type_symbol
 _atom_site_label
 _atom_site_symmetry_multiplicity
 _atom_site_fract_x
 _atom_site_fract_y
 _atom_site_fract_z
 _atom_site_occupancy
  Li  Li0  1  0.51655600  0.77815625  0.18049050  1
  Li  Li1  1  0.51655600  0.22184375  0.68049050  1
  Li  Li2  1  0.47588400  0.21867375  0.31376400  1
  Li  Li3  1  0.47588400  0.78132625  0.81376400  1
  Mn  Mn4  1  0.00549100  0.73224575  0.48625700  1
  Mn  Mn5  1  0.00549100  0.26775425  0.98625700  1
  O  O6  1  0.52978300  0.86080775  0.38283550  1
  O  O7  1  0.52978300  0.13919225  0.88283550  1
  F  F8  1  0.98591200  0.39082425  0.38412450  1
  F  F9  1  0.98591200  0.60917575  0.88412450  1
  F  F10  1  0.00893000  0.98566775  0.13747250  1
  F  F11  1  0.00893000  0.01433225  0.63747250  1
  F  F12  1  0.47745200  0.42462175  0.11506200  1
  F  F13  1  0.47745200  0.57537825  0.61506200  1
