# generated using pymatgen
data_LaTa3O9
_symmetry_space_group_name_H-M   'P 1'
_cell_length_a   16.77720200
_cell_length_b   5.59569800
_cell_length_c   9.74773276
_cell_angle_alpha   90.00000000
_cell_angle_beta   125.00876309
_cell_angle_gamma   90.00000000
_symmetry_Int_Tables_number   1
_chemical_formula_structural   LaTa3O9
_chemical_formula_sum   'La4 Ta12 O36'
_cell_volume   749.54104053
_cell_formula_units_Z   4
loop_
 _symmetry_equiv_pos_site_id
 _symmetry_equiv_pos_as_xyz
  1  'x, y, z'
loop_
 _atom_site_type_symbol
 _atom_site_label
 _atom_site_symmetry_multiplicity
 _atom_site_fract_x
 _atom_site_fract_y
 _atom_site_fract_z
 _atom_site_occupancy
  La  La0  1  0.66702400  0.00000000  0.00062900  1
  La  La1  1  0.33297600  0.00000000  0.99937100  1
  La  La2  1  0.16702400  0.50000000  0.00062900  1
  La  La3  1  0.83297600  0.50000000  0.99937100  1
  Ta  Ta4  1  0.91557900  0.50000000  0.74699000  1
  Ta  Ta5  1  0.75119900  0.50000000  0.26284200  1
  Ta  Ta6  1  0.07678700  0.00000000  0.74104300  1
  Ta  Ta7  1  0.92321300  0.00000000  0.25895700  1
  Ta  Ta8  1  0.24880100  0.50000000  0.73715800  1
  Ta  Ta9  1  0.08442100  0.50000000  0.25301000  1
  Ta  Ta10  1  0.41557900  0.00000000  0.74699000  1
  Ta  Ta11  1  0.25119900  0.00000000  0.26284200  1
  Ta  Ta12  1  0.57678700  0.50000000  0.74104300  1
  Ta  Ta13  1  0.42321300  0.50000000  0.25895700  1
  Ta  Ta14  1  0.74880100  0.00000000  0.73715800  1
  Ta  Ta15  1  0.58442100  0.00000000  0.25301000  1
  O  O16  1  0.66525150  0.75970350  0.23393600  1
  O  O17  1  0.83493700  0.50000000  0.50203000  1
  O  O18  1  0.00000000  0.50000000  0.00000000  1
  O  O19  1  0.82543850  0.75000850  0.22654000  1
  O  O20  1  0.66525150  0.24029650  0.23393600  1
  O  O21  1  0.00948650  0.74012450  0.76697500  1
  O  O22  1  0.99051350  0.74012450  0.23302500  1
  O  O23  1  0.82543850  0.24999150  0.22654000  1
  O  O24  1  0.00948650  0.25987550  0.76697500  1
  O  O25  1  0.00000000  0.00000000  0.50000000  1
  O  O26  1  0.17456150  0.75000850  0.77346000  1
  O  O27  1  0.32597600  0.50000000  0.99976400  1
  O  O28  1  0.67402400  0.50000000  0.00023600  1
  O  O29  1  0.99051350  0.25987550  0.23302500  1
  O  O30  1  0.33474850  0.75970350  0.76606400  1
  O  O31  1  0.17456150  0.24999150  0.77346000  1
  O  O32  1  0.33474850  0.24029650  0.76606400  1
  O  O33  1  0.16506300  0.50000000  0.49797000  1
  O  O34  1  0.16525150  0.25970350  0.23393600  1
  O  O35  1  0.33493700  0.00000000  0.50203000  1
  O  O36  1  0.50000000  0.00000000  0.00000000  1
  O  O37  1  0.32543850  0.25000850  0.22654000  1
  O  O38  1  0.16525150  0.74029650  0.23393600  1
  O  O39  1  0.50948650  0.24012450  0.76697500  1
  O  O40  1  0.49051350  0.24012450  0.23302500  1
  O  O41  1  0.32543850  0.74999150  0.22654000  1
  O  O42  1  0.50948650  0.75987550  0.76697500  1
  O  O43  1  0.50000000  0.50000000  0.50000000  1
  O  O44  1  0.67456150  0.25000850  0.77346000  1
  O  O45  1  0.82597600  0.00000000  0.99976400  1
  O  O46  1  0.17402400  0.00000000  0.00023600  1
  O  O47  1  0.49051350  0.75987550  0.23302500  1
  O  O48  1  0.83474850  0.25970350  0.76606400  1
  O  O49  1  0.67456150  0.74999150  0.77346000  1
  O  O50  1  0.83474850  0.74029650  0.76606400  1
  O  O51  1  0.66506300  0.00000000  0.49797000  1
