# generated using pymatgen
data_LiCuC2O5
_symmetry_space_group_name_H-M   'P 1'
_cell_length_a   10.34601800
_cell_length_b   10.31177200
_cell_length_c   10.04410657
_cell_angle_alpha   90.00000000
_cell_angle_beta   120.77076310
_cell_angle_gamma   90.00000000
_symmetry_Int_Tables_number   1
_chemical_formula_structural   LiCuC2O5
_chemical_formula_sum   'Li8 Cu8 C16 O40'
_cell_volume   920.70979245
_cell_formula_units_Z   8
loop_
 _symmetry_equiv_pos_site_id
 _symmetry_equiv_pos_as_xyz
  1  'x, y, z'
loop_
 _atom_site_type_symbol
 _atom_site_label
 _atom_site_symmetry_multiplicity
 _atom_site_fract_x
 _atom_site_fract_y
 _atom_site_fract_z
 _atom_site_occupancy
  Li  Li0  1  0.30772000  0.34929400  0.85692200  1
  Li  Li1  1  0.30772000  0.65070600  0.35692200  1
  Li  Li2  1  0.69228000  0.34929400  0.64307800  1
  Li  Li3  1  0.69228000  0.65070600  0.14307800  1
  Li  Li4  1  0.80772000  0.84929400  0.85692200  1
  Li  Li5  1  0.80772000  0.15070600  0.35692200  1
  Li  Li6  1  0.19228000  0.84929400  0.64307800  1
  Li  Li7  1  0.19228000  0.15070600  0.14307800  1
  Cu  Cu8  1  0.00000000  0.17026600  0.75000000  1
  Cu  Cu9  1  0.00000000  0.62008800  0.75000000  1
  Cu  Cu10  1  0.00000000  0.37991200  0.25000000  1
  Cu  Cu11  1  0.00000000  0.82973400  0.25000000  1
  Cu  Cu12  1  0.50000000  0.67026600  0.75000000  1
  Cu  Cu13  1  0.50000000  0.12008800  0.75000000  1
  Cu  Cu14  1  0.50000000  0.87991200  0.25000000  1
  Cu  Cu15  1  0.50000000  0.32973400  0.25000000  1
  C  C16  1  0.27002450  0.50361150  0.60160500  1
  C  C17  1  0.07044600  0.32894900  0.53480200  1
  C  C18  1  0.27002450  0.49638850  0.10160500  1
  C  C19  1  0.07044600  0.67105100  0.03480200  1
  C  C20  1  0.92955400  0.32894900  0.96519800  1
  C  C21  1  0.72997550  0.50361150  0.89839500  1
  C  C22  1  0.92955400  0.67105100  0.46519800  1
  C  C23  1  0.72997550  0.49638850  0.39839500  1
  C  C24  1  0.77002450  0.00361150  0.60160500  1
  C  C25  1  0.57044600  0.82894900  0.53480200  1
  C  C26  1  0.77002450  0.99638850  0.10160500  1
  C  C27  1  0.57044600  0.17105100  0.03480200  1
  C  C28  1  0.42955400  0.82894900  0.96519800  1
  C  C29  1  0.22997550  0.00361150  0.89839500  1
  C  C30  1  0.42955400  0.17105100  0.46519800  1
  C  C31  1  0.22997550  0.99638850  0.39839500  1
  O  O32  1  0.30135100  0.58927600  0.53363000  1
  O  O33  1  0.33346700  0.48142400  0.74242300  1
  O  O34  1  0.30135100  0.41072400  0.03363000  1
  O  O35  1  0.11492000  0.29889300  0.67167900  1
  O  O36  1  0.03911150  0.71422450  0.58996300  1
  O  O37  1  0.33346700  0.51857600  0.24242300  1
  O  O38  1  0.14344950  0.57393750  0.99476600  1
  O  O39  1  0.85655050  0.57393750  0.50523400  1
  O  O40  1  0.11492000  0.70110700  0.17167900  1
  O  O41  1  0.03911150  0.28577550  0.08996300  1
  O  O42  1  0.96088850  0.71422450  0.91003700  1
  O  O43  1  0.88508000  0.29889300  0.82832100  1
  O  O44  1  0.14344950  0.42606250  0.49476600  1
  O  O45  1  0.85655050  0.42606250  0.00523400  1
  O  O46  1  0.66653300  0.48142400  0.75757700  1
  O  O47  1  0.96088850  0.28577550  0.41003700  1
  O  O48  1  0.88508000  0.70110700  0.32832100  1
  O  O49  1  0.69864900  0.58927600  0.96637000  1
  O  O50  1  0.66653300  0.51857600  0.25757700  1
  O  O51  1  0.69864900  0.41072400  0.46637000  1
  O  O52  1  0.80135100  0.08927600  0.53363000  1
  O  O53  1  0.83346700  0.98142400  0.74242300  1
  O  O54  1  0.80135100  0.91072400  0.03363000  1
  O  O55  1  0.61492000  0.79889300  0.67167900  1
  O  O56  1  0.53911150  0.21422450  0.58996300  1
  O  O57  1  0.83346700  0.01857600  0.24242300  1
  O  O58  1  0.64344950  0.07393750  0.99476600  1
  O  O59  1  0.35655050  0.07393750  0.50523400  1
  O  O60  1  0.61492000  0.20110700  0.17167900  1
  O  O61  1  0.53911150  0.78577550  0.08996300  1
  O  O62  1  0.46088850  0.21422450  0.91003700  1
  O  O63  1  0.38508000  0.79889300  0.82832100  1
  O  O64  1  0.64344950  0.92606250  0.49476600  1
  O  O65  1  0.35655050  0.92606250  0.00523400  1
  O  O66  1  0.16653300  0.98142400  0.75757700  1
  O  O67  1  0.46088850  0.78577550  0.41003700  1
  O  O68  1  0.38508000  0.20110700  0.32832100  1
  O  O69  1  0.19864900  0.08927600  0.96637000  1
  O  O70  1  0.16653300  0.01857600  0.25757700  1
  O  O71  1  0.19864900  0.91072400  0.46637000  1
