# generated using pymatgen
data_Sc2O3
_symmetry_space_group_name_H-M   'P 1'
_cell_length_a   5.43133977
_cell_length_b   5.43133977
_cell_length_c   14.84436974
_cell_angle_alpha   90.00000000
_cell_angle_beta   90.00000000
_cell_angle_gamma   120.00000000
_symmetry_Int_Tables_number   1
_chemical_formula_structural   Sc2O3
_chemical_formula_sum   'Sc12 O18'
_cell_volume   379.23318940
_cell_formula_units_Z   6
loop_
 _symmetry_equiv_pos_site_id
 _symmetry_equiv_pos_as_xyz
  1  'x, y, z'
loop_
 _atom_site_type_symbol
 _atom_site_label
 _atom_site_symmetry_multiplicity
 _atom_site_fract_x
 _atom_site_fract_y
 _atom_site_fract_z
 _atom_site_occupancy
  Sc  Sc0  1  0.00000000  0.00000000  0.00000000  1
  Sc  Sc1  1  0.66666667  0.33333333  0.03361333  1
  Sc  Sc2  1  0.33333333  0.66666667  0.16666667  1
  Sc  Sc3  1  0.00000000  0.00000000  0.29972000  1
  Sc  Sc4  1  0.66666667  0.33333333  0.33333333  1
  Sc  Sc5  1  0.33333333  0.66666667  0.36694667  1
  Sc  Sc6  1  1.00000000  0.00000000  0.50000000  1
  Sc  Sc7  1  0.66666667  0.33333333  0.63305333  1
  Sc  Sc8  1  0.33333333  0.66666667  0.66666667  1
  Sc  Sc9  1  0.00000000  0.00000000  0.70028000  1
  Sc  Sc10  1  0.66666667  0.33333333  0.83333333  1
  Sc  Sc11  1  0.33333333  0.66666667  0.96638667  1
  O  O12  1  0.64047000  0.68300100  0.07261500  1
  O  O13  1  0.34966767  0.37586433  0.26071833  1
  O  O14  1  0.62413567  0.97380333  0.26071833  1
  O  O15  1  0.04253100  0.35953000  0.07261500  1
  O  O16  1  0.31699900  0.95746900  0.07261500  1
  O  O17  1  0.02619667  0.65033233  0.26071833  1
  O  O18  1  0.30713667  0.01633433  0.40594833  1
  O  O19  1  0.01633433  0.70919767  0.59405167  1
  O  O20  1  0.29080233  0.30713667  0.59405167  1
  O  O21  1  0.70919767  0.69286333  0.40594833  1
  O  O22  1  0.98366567  0.29080233  0.40594833  1
  O  O23  1  0.69286333  0.98366567  0.59405167  1
  O  O24  1  0.97380333  0.34966767  0.73928167  1
  O  O25  1  0.68300100  0.04253100  0.92738500  1
  O  O26  1  0.95746900  0.64047000  0.92738500  1
  O  O27  1  0.37586433  0.02619667  0.73928167  1
  O  O28  1  0.65033233  0.62413567  0.73928167  1
  O  O29  1  0.35953000  0.31699900  0.92738500  1
