# generated using pymatgen
data_Na2Cr4O13
_symmetry_space_group_name_H-M   'P 1'
_cell_length_a   7.69739600
_cell_length_b   20.01054300
_cell_length_c   9.68492253
_cell_angle_alpha   90.00000000
_cell_angle_beta   123.17558057
_cell_angle_gamma   90.00000000
_symmetry_Int_Tables_number   1
_chemical_formula_structural   Na2Cr4O13
_chemical_formula_sum   'Na8 Cr16 O52'
_cell_volume   1248.59925645
_cell_formula_units_Z   4
loop_
 _symmetry_equiv_pos_site_id
 _symmetry_equiv_pos_as_xyz
  1  'x, y, z'
loop_
 _atom_site_type_symbol
 _atom_site_label
 _atom_site_symmetry_multiplicity
 _atom_site_fract_x
 _atom_site_fract_y
 _atom_site_fract_z
 _atom_site_occupancy
  Na  Na0  1  0.60510700  0.10237000  0.40674900  1
  Na  Na1  1  0.39489300  0.60237000  0.09325100  1
  Na  Na2  1  0.11519200  0.23978500  0.01321600  1
  Na  Na3  1  0.88480800  0.73978500  0.48678400  1
  Na  Na4  1  0.11519200  0.26021500  0.51321600  1
  Na  Na5  1  0.88480800  0.76021500  0.98678400  1
  Na  Na6  1  0.60510700  0.39763000  0.90674900  1
  Na  Na7  1  0.39489300  0.89763000  0.59325100  1
  Cr  Cr8  1  0.61173700  0.27268900  0.54521900  1
  Cr  Cr9  1  0.44087000  0.89282000  0.19979700  1
  Cr  Cr10  1  0.78166100  0.55328500  0.63776200  1
  Cr  Cr11  1  0.55913000  0.39282000  0.30020300  1
  Cr  Cr12  1  0.93161300  0.92081600  0.69130900  1
  Cr  Cr13  1  0.06838700  0.42081600  0.80869100  1
  Cr  Cr14  1  0.61173700  0.22731100  0.04521900  1
  Cr  Cr15  1  0.21833900  0.05328500  0.86223800  1
  Cr  Cr16  1  0.78166100  0.94671500  0.13776200  1
  Cr  Cr17  1  0.38826300  0.77268900  0.95478100  1
  Cr  Cr18  1  0.93161300  0.57918400  0.19130900  1
  Cr  Cr19  1  0.06838700  0.07918400  0.30869100  1
  Cr  Cr20  1  0.44087000  0.60718000  0.69979700  1
  Cr  Cr21  1  0.21833900  0.44671500  0.36223800  1
  Cr  Cr22  1  0.55913000  0.10718000  0.80020300  1
  Cr  Cr23  1  0.38826300  0.72731100  0.45478100  1
  O  O24  1  0.28267800  0.92753700  0.23596700  1
  O  O25  1  0.38833900  0.24590000  0.39196700  1
  O  O26  1  0.41156300  0.70252400  0.30582200  1
  O  O27  1  0.42528500  0.45633800  0.33205500  1
  O  O28  1  0.30358900  0.08850500  0.03747000  1
  O  O29  1  0.30524400  0.84352800  0.02536200  1
  O  O30  1  0.39773100  0.34560400  0.14901600  1
  O  O31  1  0.84888600  0.86879600  0.77221900  1
  O  O32  1  0.60226900  0.84560400  0.35098400  1
  O  O33  1  0.95651400  0.38184700  0.88805000  1
  O  O34  1  0.69475600  0.34352800  0.47463800  1
  O  O35  1  0.74480600  0.96940900  0.55697000  1
  O  O36  1  0.69641100  0.58850500  0.46253000  1
  O  O37  1  0.79381500  0.21633900  0.60797900  1
  O  O38  1  0.95521800  0.59936100  0.78258200  1
  O  O39  1  0.87220000  0.47446500  0.64216200  1
  O  O40  1  0.57471500  0.95633800  0.16794500  1
  O  O41  1  0.58843700  0.20252400  0.19417800  1
  O  O42  1  0.61166100  0.74590000  0.10803300  1
  O  O43  1  0.71732200  0.42753700  0.26403300  1
  O  O44  1  0.12780000  0.97446500  0.85783800  1
  O  O45  1  0.04478200  0.09936100  0.71741800  1
  O  O46  1  0.20618500  0.71633900  0.89202100  1
  O  O47  1  0.25519400  0.46940900  0.94303000  1
  O  O48  1  0.04348600  0.88184700  0.61195000  1
  O  O49  1  0.15111400  0.36879600  0.72778100  1
  O  O50  1  0.84888600  0.63120400  0.27221900  1
  O  O51  1  0.95651400  0.11815300  0.38805000  1
  O  O52  1  0.74480600  0.53059100  0.05697000  1
  O  O53  1  0.79381500  0.28366100  0.10797900  1
  O  O54  1  0.95521800  0.90063900  0.28258200  1
  O  O55  1  0.87220000  0.02553500  0.14216200  1
  O  O56  1  0.28267800  0.57246300  0.73596700  1
  O  O57  1  0.38833900  0.25410000  0.89196700  1
  O  O58  1  0.41156300  0.79747600  0.80582200  1
  O  O59  1  0.42528500  0.04366200  0.83205500  1
  O  O60  1  0.12780000  0.52553500  0.35783800  1
  O  O61  1  0.04478200  0.40063900  0.21741800  1
  O  O62  1  0.20618500  0.78366100  0.39202100  1
  O  O63  1  0.30358900  0.41149500  0.53747000  1
  O  O64  1  0.25519400  0.03059100  0.44303000  1
  O  O65  1  0.30524400  0.65647200  0.52536200  1
  O  O66  1  0.04348600  0.61815300  0.11195000  1
  O  O67  1  0.39773100  0.15439600  0.64901600  1
  O  O68  1  0.15111400  0.13120400  0.22778100  1
  O  O69  1  0.60226900  0.65439600  0.85098400  1
  O  O70  1  0.69475600  0.15647200  0.97463800  1
  O  O71  1  0.69641100  0.91149500  0.96253000  1
  O  O72  1  0.57471500  0.54366200  0.66794500  1
  O  O73  1  0.58843700  0.29747600  0.69417800  1
  O  O74  1  0.61166100  0.75410000  0.60803300  1
  O  O75  1  0.71732200  0.07246300  0.76403300  1
