# generated using pymatgen
data_Li2Co4OF8
_symmetry_space_group_name_H-M   'P 1'
_cell_length_a   9.17627600
_cell_length_b   5.16777400
_cell_length_c   14.15323333
_cell_angle_alpha   90.00000000
_cell_angle_beta   90.86216334
_cell_angle_gamma   90.00000000
_symmetry_Int_Tables_number   1
_chemical_formula_structural   Li2Co4OF8
_chemical_formula_sum   'Li8 Co16 O4 F32'
_cell_volume   671.08336902
_cell_formula_units_Z   4
loop_
 _symmetry_equiv_pos_site_id
 _symmetry_equiv_pos_as_xyz
  1  'x, y, z'
loop_
 _atom_site_type_symbol
 _atom_site_label
 _atom_site_symmetry_multiplicity
 _atom_site_fract_x
 _atom_site_fract_y
 _atom_site_fract_z
 _atom_site_occupancy
  Li  Li0  1  0.50080150  0.49579050  0.15204400  1
  Li  Li1  1  0.50656750  0.51588250  0.35703400  1
  Li  Li2  1  0.50080150  0.50420950  0.65204400  1
  Li  Li3  1  0.50656750  0.48411750  0.85703400  1
  Li  Li4  1  0.00080150  0.99579050  0.15204400  1
  Li  Li5  1  0.00656750  0.01588250  0.35703400  1
  Li  Li6  1  0.00080150  0.00420950  0.65204400  1
  Li  Li7  1  0.00656750  0.98411750  0.85703400  1
  Co  Co8  1  0.67074500  0.98332900  0.31886700  1
  Co  Co9  1  0.66226200  0.01116800  0.01480900  1
  Co  Co10  1  0.67074500  0.01667100  0.81886700  1
  Co  Co11  1  0.66226200  0.98883200  0.51480900  1
  Co  Co12  1  0.83240250  0.49678150  0.18556700  1
  Co  Co13  1  0.83240250  0.50321850  0.68556700  1
  Co  Co14  1  0.82458450  0.47793850  0.97318700  1
  Co  Co15  1  0.82458450  0.52206150  0.47318700  1
  Co  Co16  1  0.17074500  0.48332900  0.31886700  1
  Co  Co17  1  0.16226200  0.51116800  0.01480900  1
  Co  Co18  1  0.17074500  0.51667100  0.81886700  1
  Co  Co19  1  0.16226200  0.48883200  0.51480900  1
  Co  Co20  1  0.33240250  0.99678150  0.18556700  1
  Co  Co21  1  0.33240250  0.00321850  0.68556700  1
  Co  Co22  1  0.32458450  0.97793850  0.97318700  1
  Co  Co23  1  0.32458450  0.02206150  0.47318700  1
  O  O24  1  0.66636950  0.28487650  0.91848500  1
  O  O25  1  0.66636950  0.71512350  0.41848500  1
  O  O26  1  0.16636950  0.78487650  0.91848500  1
  O  O27  1  0.16636950  0.21512350  0.41848500  1
  F  F28  1  0.50133100  0.19316400  0.74745300  1
  F  F29  1  0.51063600  0.17074500  0.41755700  1
  F  F30  1  0.50133100  0.80683600  0.24745300  1
  F  F31  1  0.51063600  0.82925500  0.91755700  1
  F  F32  1  0.65764450  0.66804450  0.74811000  1
  F  F33  1  0.67948500  0.65842500  0.08375600  1
  F  F34  1  0.82516700  0.16454900  0.41449000  1
  F  F35  1  0.65764450  0.33195550  0.24811000  1
  F  F36  1  0.67948500  0.34157500  0.58375600  1
  F  F37  1  0.82516700  0.83545100  0.91449000  1
  F  F38  1  0.84939800  0.84395700  0.24728800  1
  F  F39  1  0.83487150  0.81306750  0.58834100  1
  F  F40  1  0.97813550  0.64574150  0.08300700  1
  F  F41  1  0.83487150  0.18693250  0.08834100  1
  F  F42  1  0.84939800  0.15604300  0.74728800  1
  F  F43  1  0.97813550  0.35425850  0.58300700  1
  F  F44  1  0.00133100  0.69316400  0.74745300  1
  F  F45  1  0.01063600  0.67074500  0.41755700  1
  F  F46  1  0.00133100  0.30683600  0.24745300  1
  F  F47  1  0.01063600  0.32925500  0.91755700  1
  F  F48  1  0.15764450  0.16804450  0.74811000  1
  F  F49  1  0.17948500  0.15842500  0.08375600  1
  F  F50  1  0.32516700  0.66454900  0.41449000  1
  F  F51  1  0.15764450  0.83195550  0.24811000  1
  F  F52  1  0.17948500  0.84157500  0.58375600  1
  F  F53  1  0.32516700  0.33545100  0.91449000  1
  F  F54  1  0.34939800  0.34395700  0.24728800  1
  F  F55  1  0.33487150  0.31306750  0.58834100  1
  F  F56  1  0.47813550  0.14574150  0.08300700  1
  F  F57  1  0.33487150  0.68693250  0.08834100  1
  F  F58  1  0.34939800  0.65604300  0.74728800  1
  F  F59  1  0.47813550  0.85425850  0.58300700  1
