# generated using pymatgen
data_YbTiO3
_symmetry_space_group_name_H-M   'P 1'
_cell_length_a   5.29876228
_cell_length_b   5.29876228
_cell_length_c   14.94783932
_cell_angle_alpha   90.00000000
_cell_angle_beta   90.00000000
_cell_angle_gamma   120.00000000
_symmetry_Int_Tables_number   1
_chemical_formula_structural   YbTiO3
_chemical_formula_sum   'Yb6 Ti6 O18'
_cell_volume   363.46109000
_cell_formula_units_Z   6
loop_
 _symmetry_equiv_pos_site_id
 _symmetry_equiv_pos_as_xyz
  1  'x, y, z'
loop_
 _atom_site_type_symbol
 _atom_site_label
 _atom_site_symmetry_multiplicity
 _atom_site_fract_x
 _atom_site_fract_y
 _atom_site_fract_z
 _atom_site_occupancy
  Yb  Yb0  1  0.33333333  0.66666667  0.30552367  1
  Yb  Yb1  1  0.33333333  0.66666667  0.02780967  1
  Yb  Yb2  1  0.00000000  0.00000000  0.63885700  1
  Yb  Yb3  1  0.00000000  0.00000000  0.36114300  1
  Yb  Yb4  1  0.66666667  0.33333333  0.97219033  1
  Yb  Yb5  1  0.66666667  0.33333333  0.69447633  1
  Ti  Ti6  1  0.66666667  0.33333333  0.18508733  1
  Ti  Ti7  1  0.00000000  0.00000000  0.14824600  1
  Ti  Ti8  1  0.33333333  0.66666667  0.51842067  1
  Ti  Ti9  1  0.66666667  0.33333333  0.48157933  1
  Ti  Ti10  1  0.00000000  0.00000000  0.85175400  1
  Ti  Ti11  1  0.33333333  0.66666667  0.81491267  1
  O  O12  1  0.73086500  0.67760000  0.24295200  1
  O  O13  1  0.32240000  0.05326500  0.24295200  1
  O  O14  1  0.94673500  0.26913500  0.24295200  1
  O  O15  1  0.71993167  0.06419833  0.09038133  1
  O  O16  1  0.34426667  0.28006833  0.09038133  1
  O  O17  1  0.93580167  0.65573333  0.09038133  1
  O  O18  1  0.39753167  0.01093333  0.57628533  1
  O  O19  1  0.98906667  0.38659833  0.57628533  1
  O  O20  1  0.61340167  0.60246833  0.57628533  1
  O  O21  1  0.38659833  0.39753167  0.42371467  1
  O  O22  1  0.01093333  0.61340167  0.42371467  1
  O  O23  1  0.60246833  0.98906667  0.42371467  1
  O  O24  1  0.06419833  0.34426667  0.90961867  1
  O  O25  1  0.65573333  0.71993167  0.90961867  1
  O  O26  1  0.28006833  0.93580167  0.90961867  1
  O  O27  1  0.05326500  0.73086500  0.75704800  1
  O  O28  1  0.67760000  0.94673500  0.75704800  1
  O  O29  1  0.26913500  0.32240000  0.75704800  1
