# generated using pymatgen
data_Nb2Ge2O7
_symmetry_space_group_name_H-M   'P 1'
_cell_length_a   3.94004800
_cell_length_b   26.75375600
_cell_length_c   5.87043400
_cell_angle_alpha   90.00000000
_cell_angle_beta   90.00000000
_cell_angle_gamma   90.00000000
_symmetry_Int_Tables_number   1
_chemical_formula_structural   Nb2Ge2O7
_chemical_formula_sum   'Nb8 Ge8 O28'
_cell_volume   618.80880457
_cell_formula_units_Z   4
loop_
 _symmetry_equiv_pos_site_id
 _symmetry_equiv_pos_as_xyz
  1  'x, y, z'
loop_
 _atom_site_type_symbol
 _atom_site_label
 _atom_site_symmetry_multiplicity
 _atom_site_fract_x
 _atom_site_fract_y
 _atom_site_fract_z
 _atom_site_occupancy
  Nb  Nb0  1  0.50000000  0.55726100  0.99719300  1
  Nb  Nb1  1  0.50000000  0.66107500  0.51623900  1
  Nb  Nb2  1  0.00000000  0.83892500  0.01623900  1
  Nb  Nb3  1  0.00000000  0.94273900  0.49719300  1
  Nb  Nb4  1  0.00000000  0.05726100  0.99719300  1
  Nb  Nb5  1  0.00000000  0.16107500  0.51623900  1
  Nb  Nb6  1  0.50000000  0.33892500  0.01623900  1
  Nb  Nb7  1  0.50000000  0.44273900  0.49719300  1
  Ge  Ge8  1  0.50000000  0.78634800  0.56260200  1
  Ge  Ge9  1  0.00000000  0.56357800  0.43267700  1
  Ge  Ge10  1  0.50000000  0.93642200  0.93267700  1
  Ge  Ge11  1  0.00000000  0.71365200  0.06260200  1
  Ge  Ge12  1  0.00000000  0.28634800  0.56260200  1
  Ge  Ge13  1  0.50000000  0.06357800  0.43267700  1
  Ge  Ge14  1  0.00000000  0.43642200  0.93267700  1
  Ge  Ge15  1  0.50000000  0.21365200  0.06260200  1
  O  O16  1  0.50000000  0.50799000  0.77845700  1
  O  O17  1  0.50000000  0.61432500  0.81968700  1
  O  O18  1  0.50000000  0.59219400  0.34114100  1
  O  O19  1  0.50000000  0.72284800  0.69803900  1
  O  O20  1  0.50000000  0.69835200  0.23937700  1
  O  O21  1  0.50000000  0.94315400  0.59187000  1
  O  O22  1  0.50000000  0.85200200  0.01229800  1
  O  O23  1  0.00000000  0.55684600  0.09187000  1
  O  O24  1  0.00000000  0.64799800  0.51229800  1
  O  O25  1  0.00000000  0.80164800  0.73937700  1
  O  O26  1  0.00000000  0.88567500  0.31968700  1
  O  O27  1  0.00000000  0.99201000  0.27845700  1
  O  O28  1  0.00000000  0.77715200  0.19803900  1
  O  O29  1  0.00000000  0.90780600  0.84114100  1
  O  O30  1  0.00000000  0.00799000  0.77845700  1
  O  O31  1  0.00000000  0.11432500  0.81968700  1
  O  O32  1  0.00000000  0.09219400  0.34114100  1
  O  O33  1  0.00000000  0.22284800  0.69803900  1
  O  O34  1  0.00000000  0.19835200  0.23937700  1
  O  O35  1  0.00000000  0.44315400  0.59187000  1
  O  O36  1  0.00000000  0.35200200  0.01229800  1
  O  O37  1  0.50000000  0.05684600  0.09187000  1
  O  O38  1  0.50000000  0.14799800  0.51229800  1
  O  O39  1  0.50000000  0.30164800  0.73937700  1
  O  O40  1  0.50000000  0.38567500  0.31968700  1
  O  O41  1  0.50000000  0.49201000  0.27845700  1
  O  O42  1  0.50000000  0.27715200  0.19803900  1
  O  O43  1  0.50000000  0.40780600  0.84114100  1
