# generated using pymatgen
data_Na2Te(H5O4)2
_symmetry_space_group_name_H-M   'P 1'
_cell_length_a   13.54074600
_cell_length_b   7.51161800
_cell_length_c   17.74250359
_cell_angle_alpha   90.00000000
_cell_angle_beta   97.35813965
_cell_angle_gamma   90.00000000
_symmetry_Int_Tables_number   1
_chemical_formula_structural   Na2Te(H5O4)2
_chemical_formula_sum   'Na16 Te8 H80 O64'
_cell_volume   1789.78046365
_cell_formula_units_Z   8
loop_
 _symmetry_equiv_pos_site_id
 _symmetry_equiv_pos_as_xyz
  1  'x, y, z'
loop_
 _atom_site_type_symbol
 _atom_site_label
 _atom_site_symmetry_multiplicity
 _atom_site_fract_x
 _atom_site_fract_y
 _atom_site_fract_z
 _atom_site_occupancy
  Na  Na0  1  0.54859700  0.01987900  0.92527700  1
  Na  Na1  1  0.95140300  0.51987900  0.57472300  1
  Na  Na2  1  0.95140300  0.48012100  0.07472300  1
  Na  Na3  1  0.54859700  0.98012100  0.42527700  1
  Na  Na4  1  0.00000000  0.52954800  0.75000000  1
  Na  Na5  1  0.00000000  0.47045200  0.25000000  1
  Na  Na6  1  0.75000000  0.75000000  0.00000000  1
  Na  Na7  1  0.75000000  0.25000000  0.50000000  1
  Na  Na8  1  0.04859700  0.51987900  0.92527700  1
  Na  Na9  1  0.45140300  0.01987900  0.57472300  1
  Na  Na10  1  0.45140300  0.98012100  0.07472300  1
  Na  Na11  1  0.04859700  0.48012100  0.42527700  1
  Na  Na12  1  0.50000000  0.02954800  0.75000000  1
  Na  Na13  1  0.50000000  0.97045200  0.25000000  1
  Na  Na14  1  0.25000000  0.25000000  0.00000000  1
  Na  Na15  1  0.25000000  0.75000000  0.50000000  1
  Te  Te16  1  0.84264400  0.01992300  0.82566100  1
  Te  Te17  1  0.65735600  0.51992300  0.67433900  1
  Te  Te18  1  0.65735600  0.48007700  0.17433900  1
  Te  Te19  1  0.84264400  0.98007700  0.32566100  1
  Te  Te20  1  0.34264400  0.51992300  0.82566100  1
  Te  Te21  1  0.15735600  0.01992300  0.67433900  1
  Te  Te22  1  0.15735600  0.98007700  0.17433900  1
  Te  Te23  1  0.34264400  0.48007700  0.32566100  1
  H  H24  1  0.84866200  0.62336400  0.85530100  1
  H  H25  1  0.65133800  0.12336400  0.64469900  1
  H  H26  1  0.65133800  0.87663600  0.14469900  1
  H  H27  1  0.84866200  0.37663600  0.35530100  1
  H  H28  1  0.84780500  0.41068900  0.85567100  1
  H  H29  1  0.65219500  0.91068900  0.64432900  1
  H  H30  1  0.65219500  0.08931100  0.14432900  1
  H  H31  1  0.84780500  0.58931100  0.35567100  1
  H  H32  1  0.70327800  0.13415300  0.03912600  1
  H  H33  1  0.79672200  0.63415300  0.46087400  1
  H  H34  1  0.79672200  0.36584700  0.96087400  1
  H  H35  1  0.70327800  0.86584700  0.53912600  1
  H  H36  1  0.74713700  0.10146500  0.96097000  1
  H  H37  1  0.75286300  0.60146500  0.53903000  1
  H  H38  1  0.75286300  0.39853500  0.03903000  1
  H  H39  1  0.74713700  0.89853500  0.46097000  1
  H  H40  1  0.65699900  0.78570300  0.83911300  1
  H  H41  1  0.84300100  0.28570300  0.66088700  1
  H  H42  1  0.84300100  0.71429700  0.16088700  1
  H  H43  1  0.65699900  0.21429700  0.33911300  1
  H  H44  1  0.54894800  0.69540100  0.84134300  1
  H  H45  1  0.95105200  0.19540100  0.65865700  1
  H  H46  1  0.95105200  0.80459900  0.15865700  1
  H  H47  1  0.54894800  0.30459900  0.34134300  1
  H  H48  1  0.99896650  0.82954450  0.04539800  1
  H  H49  1  0.50103350  0.32954450  0.45460200  1
  H  H50  1  0.50103350  0.67045550  0.95460200  1
  H  H51  1  0.99896650  0.17045550  0.54539800  1
  H  H52  1  0.95912250  0.82896650  0.95897900  1
  H  H53  1  0.54087750  0.32896650  0.54102100  1
  H  H54  1  0.54087750  0.67103350  0.04102100  1
  H  H55  1  0.95912250  0.17103350  0.45897900  1
  H  H56  1  0.55434450  0.35033350  0.85395100  1
  H  H57  1  0.94565550  0.85033350  0.64604900  1
  H  H58  1  0.94565550  0.14966650  0.14604900  1
  H  H59  1  0.55434450  0.64966650  0.35395100  1
  H  H60  1  0.65828450  0.24858050  0.84599700  1
  H  H61  1  0.84171550  0.74858050  0.65400300  1
  H  H62  1  0.84171550  0.25141950  0.15400300  1
  H  H63  1  0.65828450  0.75141950  0.34599700  1
  H  H64  1  0.34866200  0.12336400  0.85530100  1
  H  H65  1  0.15133800  0.62336400  0.64469900  1
  H  H66  1  0.15133800  0.37663600  0.14469900  1
  H  H67  1  0.34866200  0.87663600  0.35530100  1
  H  H68  1  0.34780500  0.91068900  0.85567100  1
  H  H69  1  0.15219500  0.41068900  0.64432900  1
  H  H70  1  0.15219500  0.58931100  0.14432900  1
  H  H71  1  0.34780500  0.08931100  0.35567100  1
  H  H72  1  0.20327800  0.63415300  0.03912600  1
  H  H73  1  0.29672200  0.13415300  0.46087400  1
  H  H74  1  0.29672200  0.86584700  0.96087400  1
  H  H75  1  0.20327800  0.36584700  0.53912600  1
  H  H76  1  0.24713700  0.60146500  0.96097000  1
  H  H77  1  0.25286300  0.10146500  0.53903000  1
  H  H78  1  0.25286300  0.89853500  0.03903000  1
  H  H79  1  0.24713700  0.39853500  0.46097000  1
  H  H80  1  0.15699900  0.28570300  0.83911300  1
  H  H81  1  0.34300100  0.78570300  0.66088700  1
  H  H82  1  0.34300100  0.21429700  0.16088700  1
  H  H83  1  0.15699900  0.71429700  0.33911300  1
  H  H84  1  0.04894800  0.19540100  0.84134300  1
  H  H85  1  0.45105200  0.69540100  0.65865700  1
  H  H86  1  0.45105200  0.30459900  0.15865700  1
  H  H87  1  0.04894800  0.80459900  0.34134300  1
  H  H88  1  0.49896650  0.32954450  0.04539800  1
  H  H89  1  0.00103350  0.82954450  0.45460200  1
  H  H90  1  0.00103350  0.17045550  0.95460200  1
  H  H91  1  0.49896650  0.67045550  0.54539800  1
  H  H92  1  0.45912250  0.32896650  0.95897900  1
  H  H93  1  0.04087750  0.82896650  0.54102100  1
  H  H94  1  0.04087750  0.17103350  0.04102100  1
  H  H95  1  0.45912250  0.67103350  0.45897900  1
  H  H96  1  0.05434450  0.85033350  0.85395100  1
  H  H97  1  0.44565550  0.35033350  0.64604900  1
  H  H98  1  0.44565550  0.64966650  0.14604900  1
  H  H99  1  0.05434450  0.14966650  0.35395100  1
  H  H100  1  0.15828450  0.74858050  0.84599700  1
  H  H101  1  0.34171550  0.24858050  0.65400300  1
  H  H102  1  0.34171550  0.75141950  0.15400300  1
  H  H103  1  0.15828450  0.25141950  0.34599700  1
  O  O104  1  0.97323250  0.02067850  0.87994100  1
  O  O105  1  0.52676750  0.52067850  0.62005900  1
  O  O106  1  0.52676750  0.47932150  0.12005900  1
  O  O107  1  0.97323250  0.97932150  0.37994100  1
  O  O108  1  0.78656500  0.20687500  0.87898000  1
  O  O109  1  0.71343500  0.70687500  0.62102000  1
  O  O110  1  0.71343500  0.29312500  0.12102000  1
  O  O111  1  0.78656500  0.79312500  0.37898000  1
  O  O112  1  0.78882250  0.82017650  0.87030500  1
  O  O113  1  0.71117750  0.32017650  0.62969500  1
  O  O114  1  0.71117750  0.67982350  0.12969500  1
  O  O115  1  0.78882250  0.17982350  0.37030500  1
  O  O116  1  0.58386950  0.80545850  0.82888200  1
  O  O117  1  0.91613050  0.30545850  0.67111800  1
  O  O118  1  0.91613050  0.69454150  0.17111800  1
  O  O119  1  0.58386950  0.19454150  0.32888200  1
  O  O120  1  0.97213400  0.74839200  0.00279400  1
  O  O121  1  0.52786600  0.24839200  0.49720600  1
  O  O122  1  0.52786600  0.75160800  0.99720600  1
  O  O123  1  0.97213400  0.25160800  0.50279400  1
  O  O124  1  0.58455150  0.24070550  0.83480100  1
  O  O125  1  0.91544850  0.74070550  0.66519900  1
  O  O126  1  0.91544850  0.25929450  0.16519900  1
  O  O127  1  0.58455150  0.75929450  0.33480100  1
  O  O128  1  0.88927200  0.51547500  0.84673000  1
  O  O129  1  0.61072800  0.01547500  0.65327000  1
  O  O130  1  0.61072800  0.98452500  0.15327000  1
  O  O131  1  0.88927200  0.48452500  0.34673000  1
  O  O132  1  0.70909400  0.04461100  0.99929100  1
  O  O133  1  0.79090600  0.54461100  0.50070900  1
  O  O134  1  0.79090600  0.45538900  0.00070900  1
  O  O135  1  0.70909400  0.95538900  0.49929100  1
  O  O136  1  0.47323250  0.52067850  0.87994100  1
  O  O137  1  0.02676750  0.02067850  0.62005900  1
  O  O138  1  0.02676750  0.97932150  0.12005900  1
  O  O139  1  0.47323250  0.47932150  0.37994100  1
  O  O140  1  0.28656500  0.70687500  0.87898000  1
  O  O141  1  0.21343500  0.20687500  0.62102000  1
  O  O142  1  0.21343500  0.79312500  0.12102000  1
  O  O143  1  0.28656500  0.29312500  0.37898000  1
  O  O144  1  0.28882250  0.32017650  0.87030500  1
  O  O145  1  0.21117750  0.82017650  0.62969500  1
  O  O146  1  0.21117750  0.17982350  0.12969500  1
  O  O147  1  0.28882250  0.67982350  0.37030500  1
  O  O148  1  0.08386950  0.30545850  0.82888200  1
  O  O149  1  0.41613050  0.80545850  0.67111800  1
  O  O150  1  0.41613050  0.19454150  0.17111800  1
  O  O151  1  0.08386950  0.69454150  0.32888200  1
  O  O152  1  0.47213400  0.24839200  0.00279400  1
  O  O153  1  0.02786600  0.74839200  0.49720600  1
  O  O154  1  0.02786600  0.25160800  0.99720600  1
  O  O155  1  0.47213400  0.75160800  0.50279400  1
  O  O156  1  0.08455150  0.74070550  0.83480100  1
  O  O157  1  0.41544850  0.24070550  0.66519900  1
  O  O158  1  0.41544850  0.75929450  0.16519900  1
  O  O159  1  0.08455150  0.25929450  0.33480100  1
  O  O160  1  0.38927200  0.01547500  0.84673000  1
  O  O161  1  0.11072800  0.51547500  0.65327000  1
  O  O162  1  0.11072800  0.48452500  0.15327000  1
  O  O163  1  0.38927200  0.98452500  0.34673000  1
  O  O164  1  0.20909400  0.54461100  0.99929100  1
  O  O165  1  0.29090600  0.04461100  0.50070900  1
  O  O166  1  0.29090600  0.95538900  0.00070900  1
  O  O167  1  0.20909400  0.45538900  0.49929100  1
