# generated using pymatgen
data_Ta2MnO6
_symmetry_space_group_name_H-M   'P 1'
_cell_length_a   9.63106400
_cell_length_b   35.02944200
_cell_length_c   5.19009371
_cell_angle_alpha   90.00000000
_cell_angle_beta   90.94016174
_cell_angle_gamma   90.00000000
_symmetry_Int_Tables_number   1
_chemical_formula_structural   Ta2MnO6
_chemical_formula_sum   'Ta32 Mn16 O96'
_cell_volume   1750.75033118
_cell_formula_units_Z   16
loop_
 _symmetry_equiv_pos_site_id
 _symmetry_equiv_pos_as_xyz
  1  'x, y, z'
loop_
 _atom_site_type_symbol
 _atom_site_label
 _atom_site_symmetry_multiplicity
 _atom_site_fract_x
 _atom_site_fract_y
 _atom_site_fract_z
 _atom_site_occupancy
  Ta  Ta0  1  0.74497750  0.86232750  0.75585200  1
  Ta  Ta1  1  0.00000000  0.94261100  0.75000000  1
  Ta  Ta2  1  0.75347500  0.52872800  0.75555800  1
  Ta  Ta3  1  0.25502250  0.86232750  0.74414800  1
  Ta  Ta4  1  0.25406450  0.69359850  0.74224300  1
  Ta  Ta5  1  0.24652500  0.52872800  0.74444200  1
  Ta  Ta6  1  0.50000000  0.77686100  0.75000000  1
  Ta  Ta7  1  0.74593550  0.69359850  0.75775700  1
  Ta  Ta8  1  0.25347500  0.97127200  0.25555800  1
  Ta  Ta9  1  0.24497750  0.63767250  0.25585200  1
  Ta  Ta10  1  0.74652500  0.97127200  0.24444200  1
  Ta  Ta11  1  0.50000000  0.55738900  0.25000000  1
  Ta  Ta12  1  0.75406450  0.80640150  0.24224300  1
  Ta  Ta13  1  0.75502250  0.63767250  0.24414800  1
  Ta  Ta14  1  0.00000000  0.72313900  0.25000000  1
  Ta  Ta15  1  0.24593550  0.80640150  0.25775700  1
  Ta  Ta16  1  0.24497750  0.36232750  0.75585200  1
  Ta  Ta17  1  0.50000000  0.44261100  0.75000000  1
  Ta  Ta18  1  0.25347500  0.02872800  0.75555800  1
  Ta  Ta19  1  0.75502250  0.36232750  0.74414800  1
  Ta  Ta20  1  0.75406450  0.19359850  0.74224300  1
  Ta  Ta21  1  0.74652500  0.02872800  0.74444200  1
  Ta  Ta22  1  0.00000000  0.27686100  0.75000000  1
  Ta  Ta23  1  0.24593550  0.19359850  0.75775700  1
  Ta  Ta24  1  0.75347500  0.47127200  0.25555800  1
  Ta  Ta25  1  0.74497750  0.13767250  0.25585200  1
  Ta  Ta26  1  0.24652500  0.47127200  0.24444200  1
  Ta  Ta27  1  0.00000000  0.05738900  0.25000000  1
  Ta  Ta28  1  0.25406450  0.30640150  0.24224300  1
  Ta  Ta29  1  0.25502250  0.13767250  0.24414800  1
  Ta  Ta30  1  0.50000000  0.22313900  0.25000000  1
  Ta  Ta31  1  0.74593550  0.30640150  0.25775700  1
  Mn  Mn32  1  0.50000000  0.94362700  0.75000000  1
  Mn  Mn33  1  0.00000000  0.61075200  0.75000000  1
  Mn  Mn34  1  0.50000000  0.61460400  0.75000000  1
  Mn  Mn35  1  0.00000000  0.77932700  0.75000000  1
  Mn  Mn36  1  0.00000000  0.88539600  0.25000000  1
  Mn  Mn37  1  0.00000000  0.55637300  0.25000000  1
  Mn  Mn38  1  0.50000000  0.88924800  0.25000000  1
  Mn  Mn39  1  0.50000000  0.72067300  0.25000000  1
  Mn  Mn40  1  0.00000000  0.44362700  0.75000000  1
  Mn  Mn41  1  0.50000000  0.11075200  0.75000000  1
  Mn  Mn42  1  0.00000000  0.11460400  0.75000000  1
  Mn  Mn43  1  0.50000000  0.27932700  0.75000000  1
  Mn  Mn44  1  0.50000000  0.38539600  0.25000000  1
  Mn  Mn45  1  0.50000000  0.05637300  0.25000000  1
  Mn  Mn46  1  0.00000000  0.38924800  0.25000000  1
  Mn  Mn47  1  0.00000000  0.22067300  0.25000000  1
  O  O48  1  0.34754900  0.98313300  0.93623700  1
  O  O49  1  0.35118200  0.65131600  0.93820100  1
  O  O50  1  0.37827650  0.89570950  0.90139400  1
  O  O51  1  0.85905200  0.81493700  0.93893600  1
  O  O52  1  0.87117800  0.97794600  0.91837400  1
  O  O53  1  0.88416450  0.89756250  0.89076300  1
  O  O54  1  0.38780950  0.56048750  0.92436800  1
  O  O55  1  0.85650700  0.64890100  0.92915100  1
  O  O56  1  0.87462450  0.56278250  0.90071300  1
  O  O57  1  0.88827950  0.72721650  0.92325100  1
  O  O58  1  0.36738650  0.81195050  0.91587000  1
  O  O59  1  0.38006000  0.73221700  0.88316500  1
  O  O60  1  0.11583550  0.89756250  0.60923700  1
  O  O61  1  0.12537550  0.56278250  0.59928700  1
  O  O62  1  0.61994000  0.73221700  0.61683500  1
  O  O63  1  0.12882200  0.97794600  0.58162600  1
  O  O64  1  0.62172350  0.89570950  0.59860600  1
  O  O65  1  0.14349300  0.64890100  0.57084900  1
  O  O66  1  0.61219050  0.56048750  0.57563200  1
  O  O67  1  0.63261350  0.81195050  0.58413000  1
  O  O68  1  0.65245100  0.98313300  0.56376300  1
  O  O69  1  0.11172050  0.72721650  0.57674900  1
  O  O70  1  0.64881800  0.65131600  0.56179900  1
  O  O71  1  0.14094800  0.81493700  0.56106400  1
  O  O72  1  0.85118200  0.84868400  0.43820100  1
  O  O73  1  0.84754900  0.51686700  0.43623700  1
  O  O74  1  0.88780950  0.93951250  0.42436800  1
  O  O75  1  0.35905200  0.68506300  0.43893600  1
  O  O76  1  0.35650700  0.85109900  0.42915100  1
  O  O77  1  0.87827650  0.60429050  0.40139400  1
  O  O78  1  0.37117800  0.52205400  0.41837400  1
  O  O79  1  0.38827950  0.77278350  0.42325100  1
  O  O80  1  0.86738650  0.68804950  0.41587000  1
  O  O81  1  0.37462450  0.93721750  0.40071300  1
  O  O82  1  0.38416450  0.60243750  0.39076300  1
  O  O83  1  0.88006000  0.76778300  0.38316500  1
  O  O84  1  0.62537550  0.93721750  0.09928700  1
  O  O85  1  0.64349300  0.85109900  0.07084900  1
  O  O86  1  0.11219050  0.93951250  0.07563200  1
  O  O87  1  0.61583550  0.60243750  0.10923700  1
  O  O88  1  0.62882200  0.52205400  0.08162600  1
  O  O89  1  0.12172350  0.60429050  0.09860600  1
  O  O90  1  0.11994000  0.76778300  0.11683500  1
  O  O91  1  0.13261350  0.68804950  0.08413000  1
  O  O92  1  0.14881800  0.84868400  0.06179900  1
  O  O93  1  0.61172050  0.77278350  0.07674900  1
  O  O94  1  0.15245100  0.51686700  0.06376300  1
  O  O95  1  0.64094800  0.68506300  0.06106400  1
  O  O96  1  0.84754900  0.48313300  0.93623700  1
  O  O97  1  0.85118200  0.15131600  0.93820100  1
  O  O98  1  0.87827650  0.39570950  0.90139400  1
  O  O99  1  0.35905200  0.31493700  0.93893600  1
  O  O100  1  0.37117800  0.47794600  0.91837400  1
  O  O101  1  0.38416450  0.39756250  0.89076300  1
  O  O102  1  0.88780950  0.06048750  0.92436800  1
  O  O103  1  0.35650700  0.14890100  0.92915100  1
  O  O104  1  0.37462450  0.06278250  0.90071300  1
  O  O105  1  0.38827950  0.22721650  0.92325100  1
  O  O106  1  0.86738650  0.31195050  0.91587000  1
  O  O107  1  0.88006000  0.23221700  0.88316500  1
  O  O108  1  0.61583550  0.39756250  0.60923700  1
  O  O109  1  0.62537550  0.06278250  0.59928700  1
  O  O110  1  0.11994000  0.23221700  0.61683500  1
  O  O111  1  0.62882200  0.47794600  0.58162600  1
  O  O112  1  0.12172350  0.39570950  0.59860600  1
  O  O113  1  0.64349300  0.14890100  0.57084900  1
  O  O114  1  0.11219050  0.06048750  0.57563200  1
  O  O115  1  0.13261350  0.31195050  0.58413000  1
  O  O116  1  0.15245100  0.48313300  0.56376300  1
  O  O117  1  0.61172050  0.22721650  0.57674900  1
  O  O118  1  0.14881800  0.15131600  0.56179900  1
  O  O119  1  0.64094800  0.31493700  0.56106400  1
  O  O120  1  0.35118200  0.34868400  0.43820100  1
  O  O121  1  0.34754900  0.01686700  0.43623700  1
  O  O122  1  0.38780950  0.43951250  0.42436800  1
  O  O123  1  0.85905200  0.18506300  0.43893600  1
  O  O124  1  0.85650700  0.35109900  0.42915100  1
  O  O125  1  0.37827650  0.10429050  0.40139400  1
  O  O126  1  0.87117800  0.02205400  0.41837400  1
  O  O127  1  0.88827950  0.27278350  0.42325100  1
  O  O128  1  0.36738650  0.18804950  0.41587000  1
  O  O129  1  0.87462450  0.43721750  0.40071300  1
  O  O130  1  0.88416450  0.10243750  0.39076300  1
  O  O131  1  0.38006000  0.26778300  0.38316500  1
  O  O132  1  0.12537550  0.43721750  0.09928700  1
  O  O133  1  0.14349300  0.35109900  0.07084900  1
  O  O134  1  0.61219050  0.43951250  0.07563200  1
  O  O135  1  0.11583550  0.10243750  0.10923700  1
  O  O136  1  0.12882200  0.02205400  0.08162600  1
  O  O137  1  0.62172350  0.10429050  0.09860600  1
  O  O138  1  0.61994000  0.26778300  0.11683500  1
  O  O139  1  0.63261350  0.18804950  0.08413000  1
  O  O140  1  0.64881800  0.34868400  0.06179900  1
  O  O141  1  0.11172050  0.27278350  0.07674900  1
  O  O142  1  0.65245100  0.01686700  0.06376300  1
  O  O143  1  0.14094800  0.18506300  0.06106400  1
