# generated using pymatgen
data_Mn2FeO3
_symmetry_space_group_name_H-M   'P 1'
_cell_length_a   5.51536900
_cell_length_b   3.18549300
_cell_length_c   7.70895208
_cell_angle_alpha   90.00000000
_cell_angle_beta   90.17529271
_cell_angle_gamma   90.00000000
_symmetry_Int_Tables_number   1
_chemical_formula_structural   Mn2FeO3
_chemical_formula_sum   'Mn4 Fe2 O6'
_cell_volume   135.43925065
_cell_formula_units_Z   2
loop_
 _symmetry_equiv_pos_site_id
 _symmetry_equiv_pos_as_xyz
  1  'x, y, z'
loop_
 _atom_site_type_symbol
 _atom_site_label
 _atom_site_symmetry_multiplicity
 _atom_site_fract_x
 _atom_site_fract_y
 _atom_site_fract_z
 _atom_site_occupancy
  Mn  Mn0  1  0.67014200  0.00000000  0.33525300  1
  Mn  Mn1  1  0.32985800  0.00000000  0.66474700  1
  Mn  Mn2  1  0.50000000  0.50000000  0.00000000  1
  Mn  Mn3  1  0.00000000  0.00000000  0.00000000  1
  Fe  Fe4  1  0.16814200  0.50000000  0.33459900  1
  Fe  Fe5  1  0.83185800  0.50000000  0.66540100  1
  O  O6  1  0.33278700  0.00000000  0.17237600  1
  O  O7  1  0.83696100  0.50000000  0.16849000  1
  O  O8  1  0.16303900  0.50000000  0.83151000  1
  O  O9  1  0.50000000  0.50000000  0.50000000  1
  O  O10  1  0.00000000  0.00000000  0.50000000  1
  O  O11  1  0.66721300  0.00000000  0.82762400  1
