# generated using pymatgen
data_Be4Si2H2O9
_symmetry_space_group_name_H-M   'P 1'
_cell_length_a   8.78092400
_cell_length_b   15.40083000
_cell_length_c   4.61165700
_cell_angle_alpha   90.00000000
_cell_angle_beta   90.00000000
_cell_angle_gamma   90.00000000
_symmetry_Int_Tables_number   1
_chemical_formula_structural   Be4Si2H2O9
_chemical_formula_sum   'Be16 Si8 H8 O36'
_cell_volume   623.65059884
_cell_formula_units_Z   4
loop_
 _symmetry_equiv_pos_site_id
 _symmetry_equiv_pos_as_xyz
  1  'x, y, z'
loop_
 _atom_site_type_symbol
 _atom_site_label
 _atom_site_symmetry_multiplicity
 _atom_site_fract_x
 _atom_site_fract_y
 _atom_site_fract_z
 _atom_site_occupancy
  Be  Be0  1  0.67270100  0.44758400  0.00577600  1
  Be  Be1  1  0.32729900  0.44758400  0.00577600  1
  Be  Be2  1  0.82729900  0.05241600  0.50577600  1
  Be  Be3  1  0.17270100  0.05241600  0.50577600  1
  Be  Be4  1  0.82576050  0.28010750  0.00146900  1
  Be  Be5  1  0.17423950  0.28010750  0.00146900  1
  Be  Be6  1  0.67423950  0.21989250  0.50146900  1
  Be  Be7  1  0.32576050  0.21989250  0.50146900  1
  Be  Be8  1  0.17270100  0.94758400  0.00577600  1
  Be  Be9  1  0.82729900  0.94758400  0.00577600  1
  Be  Be10  1  0.32729900  0.55241600  0.50577600  1
  Be  Be11  1  0.67270100  0.55241600  0.50577600  1
  Be  Be12  1  0.32576050  0.78010750  0.00146900  1
  Be  Be13  1  0.67423950  0.78010750  0.00146900  1
  Be  Be14  1  0.17423950  0.71989250  0.50146900  1
  Be  Be15  1  0.82576050  0.71989250  0.50146900  1
  Si  Si16  1  0.67567950  0.11439350  0.00268700  1
  Si  Si17  1  0.32432050  0.11439350  0.00268700  1
  Si  Si18  1  0.82432050  0.38560650  0.50268700  1
  Si  Si19  1  0.17567950  0.38560650  0.50268700  1
  Si  Si20  1  0.17567950  0.61439350  0.00268700  1
  Si  Si21  1  0.82432050  0.61439350  0.00268700  1
  Si  Si22  1  0.32432050  0.88560650  0.50268700  1
  Si  Si23  1  0.67567950  0.88560650  0.50268700  1
  H  H24  1  0.00000000  0.13593200  0.31600500  1
  H  H25  1  0.50000000  0.36406800  0.81600500  1
  H  H26  1  0.00000000  0.19806100  0.80329100  1
  H  H27  1  0.50000000  0.30193900  0.30329100  1
  H  H28  1  0.50000000  0.63593200  0.31600500  1
  H  H29  1  0.00000000  0.86406800  0.81600500  1
  H  H30  1  0.50000000  0.69806100  0.80329100  1
  H  H31  1  0.00000000  0.80193900  0.30329100  1
  O  O32  1  0.71171800  0.12454200  0.35033700  1
  O  O33  1  0.28828200  0.12454200  0.35033700  1
  O  O34  1  0.78828200  0.37545800  0.85033700  1
  O  O35  1  0.21171800  0.37545800  0.85033700  1
  O  O36  1  0.78965600  0.04232600  0.85421900  1
  O  O37  1  0.21034400  0.04232600  0.85421900  1
  O  O38  1  0.71034400  0.45767400  0.35421900  1
  O  O39  1  0.28965600  0.45767400  0.35421900  1
  O  O40  1  0.70933600  0.20902500  0.84931700  1
  O  O41  1  0.29066400  0.20902500  0.84931700  1
  O  O42  1  0.79066400  0.29097500  0.34931700  1
  O  O43  1  0.20933600  0.29097500  0.34931700  1
  O  O44  1  0.00000000  0.41432000  0.44343500  1
  O  O45  1  0.50000000  0.08568000  0.94343500  1
  O  O46  1  0.00000000  0.08765800  0.45333200  1
  O  O47  1  0.50000000  0.41234200  0.95333200  1
  O  O48  1  0.00000000  0.24550500  0.94412900  1
  O  O49  1  0.50000000  0.25449500  0.44412900  1
  O  O50  1  0.21171800  0.62454200  0.35033700  1
  O  O51  1  0.78828200  0.62454200  0.35033700  1
  O  O52  1  0.28828200  0.87545800  0.85033700  1
  O  O53  1  0.71171800  0.87545800  0.85033700  1
  O  O54  1  0.28965600  0.54232600  0.85421900  1
  O  O55  1  0.71034400  0.54232600  0.85421900  1
  O  O56  1  0.21034400  0.95767400  0.35421900  1
  O  O57  1  0.78965600  0.95767400  0.35421900  1
  O  O58  1  0.20933600  0.70902500  0.84931700  1
  O  O59  1  0.79066400  0.70902500  0.84931700  1
  O  O60  1  0.29066400  0.79097500  0.34931700  1
  O  O61  1  0.70933600  0.79097500  0.34931700  1
  O  O62  1  0.50000000  0.91432000  0.44343500  1
  O  O63  1  0.00000000  0.58568000  0.94343500  1
  O  O64  1  0.50000000  0.58765800  0.45333200  1
  O  O65  1  0.00000000  0.91234200  0.95333200  1
  O  O66  1  0.50000000  0.74550500  0.94412900  1
  O  O67  1  0.00000000  0.75449500  0.44412900  1
