# generated using pymatgen
data_Ba3Y2Cl12
_symmetry_space_group_name_H-M   'P 1'
_cell_length_a   12.90062100
_cell_length_b   12.38327500
_cell_length_c   18.34874024
_cell_angle_alpha   90.00000000
_cell_angle_beta   134.26255670
_cell_angle_gamma   90.00000000
_symmetry_Int_Tables_number   1
_chemical_formula_structural   Ba3Y2Cl12
_chemical_formula_sum   'Ba12 Y8 Cl48'
_cell_volume   2099.20947177
_cell_formula_units_Z   4
loop_
 _symmetry_equiv_pos_site_id
 _symmetry_equiv_pos_as_xyz
  1  'x, y, z'
loop_
 _atom_site_type_symbol
 _atom_site_label
 _atom_site_symmetry_multiplicity
 _atom_site_fract_x
 _atom_site_fract_y
 _atom_site_fract_z
 _atom_site_occupancy
  Ba  Ba0  1  0.22517000  0.78268700  0.20103500  1
  Ba  Ba1  1  0.32254100  0.38876300  0.30962600  1
  Ba  Ba2  1  0.67455600  0.00828200  0.48144400  1
  Ba  Ba3  1  0.32544400  0.50828200  0.01855600  1
  Ba  Ba4  1  0.67745900  0.88876300  0.19037400  1
  Ba  Ba5  1  0.77483000  0.28268700  0.29896500  1
  Ba  Ba6  1  0.22517000  0.71731300  0.70103500  1
  Ba  Ba7  1  0.32254100  0.11123700  0.80962600  1
  Ba  Ba8  1  0.67455600  0.49171800  0.98144400  1
  Ba  Ba9  1  0.32544400  0.99171800  0.51855600  1
  Ba  Ba10  1  0.67745900  0.61123700  0.69037400  1
  Ba  Ba11  1  0.77483000  0.21731300  0.79896500  1
  Y  Y12  1  0.26651000  0.14707200  0.07459200  1
  Y  Y13  1  0.04319400  0.83480900  0.85243500  1
  Y  Y14  1  0.73349000  0.64707200  0.42540800  1
  Y  Y15  1  0.95680600  0.33480900  0.64756500  1
  Y  Y16  1  0.04319400  0.66519100  0.35243500  1
  Y  Y17  1  0.26651000  0.35292800  0.57459200  1
  Y  Y18  1  0.95680600  0.16519100  0.14756500  1
  Y  Y19  1  0.73349000  0.85292800  0.92540800  1
  Cl  Cl20  1  0.09745500  0.24401500  0.09796100  1
  Cl  Cl21  1  0.42915300  0.86177200  0.42902400  1
  Cl  Cl22  1  0.24581100  0.54762800  0.14988100  1
  Cl  Cl23  1  0.58095900  0.57103000  0.45970400  1
  Cl  Cl24  1  0.78029800  0.88182600  0.68399900  1
  Cl  Cl25  1  0.79957100  0.39161100  0.68224700  1
  Cl  Cl26  1  0.03609800  0.02533400  0.92439400  1
  Cl  Cl27  1  0.35898600  0.01711500  0.22065800  1
  Cl  Cl28  1  0.11944900  0.29745300  0.93275400  1
  Cl  Cl29  1  0.01388700  0.63285600  0.79637800  1
  Cl  Cl30  1  0.27931400  0.77468300  0.04012400  1
  Cl  Cl31  1  0.44742800  0.29568000  0.20377900  1
  Cl  Cl32  1  0.55257200  0.79568000  0.29622100  1
  Cl  Cl33  1  0.72068600  0.27468300  0.45987600  1
  Cl  Cl34  1  0.98611300  0.13285600  0.70362200  1
  Cl  Cl35  1  0.88055100  0.79745300  0.56724600  1
  Cl  Cl36  1  0.64101400  0.51711500  0.27934200  1
  Cl  Cl37  1  0.96390200  0.52533400  0.57560600  1
  Cl  Cl38  1  0.20042900  0.89161100  0.81775300  1
  Cl  Cl39  1  0.41904100  0.07103000  0.04029600  1
  Cl  Cl40  1  0.21970200  0.38182600  0.81600100  1
  Cl  Cl41  1  0.75418900  0.04762800  0.35011900  1
  Cl  Cl42  1  0.57084700  0.36177200  0.07097600  1
  Cl  Cl43  1  0.90254500  0.74401500  0.40203900  1
  Cl  Cl44  1  0.09745500  0.25598500  0.59796100  1
  Cl  Cl45  1  0.42915300  0.63822800  0.92902400  1
  Cl  Cl46  1  0.24581100  0.95237200  0.64988100  1
  Cl  Cl47  1  0.78029800  0.61817400  0.18399900  1
  Cl  Cl48  1  0.58095900  0.92897000  0.95970400  1
  Cl  Cl49  1  0.79957100  0.10838900  0.18224700  1
  Cl  Cl50  1  0.03609800  0.47466600  0.42439400  1
  Cl  Cl51  1  0.35898600  0.48288500  0.72065800  1
  Cl  Cl52  1  0.11944900  0.20254700  0.43275400  1
  Cl  Cl53  1  0.01388700  0.86714400  0.29637800  1
  Cl  Cl54  1  0.27931400  0.72531700  0.54012400  1
  Cl  Cl55  1  0.44742800  0.20432000  0.70377900  1
  Cl  Cl56  1  0.55257200  0.70432000  0.79622100  1
  Cl  Cl57  1  0.72068600  0.22531700  0.95987600  1
  Cl  Cl58  1  0.98611300  0.36714400  0.20362200  1
  Cl  Cl59  1  0.88055100  0.70254700  0.06724600  1
  Cl  Cl60  1  0.64101400  0.98288500  0.77934200  1
  Cl  Cl61  1  0.96390200  0.97466600  0.07560600  1
  Cl  Cl62  1  0.20042900  0.60838900  0.31775300  1
  Cl  Cl63  1  0.21970200  0.11817400  0.31600100  1
  Cl  Cl64  1  0.41904100  0.42897000  0.54029600  1
  Cl  Cl65  1  0.75418900  0.45237200  0.85011900  1
  Cl  Cl66  1  0.57084700  0.13822800  0.57097600  1
  Cl  Cl67  1  0.90254500  0.75598500  0.90203900  1
