# generated using pymatgen
data_Li4Mn3F10
_symmetry_space_group_name_H-M   'P 1'
_cell_length_a   11.26756200
_cell_length_b   16.50546600
_cell_length_c   5.21498177
_cell_angle_alpha   90.00000000
_cell_angle_beta   100.36361995
_cell_angle_gamma   90.00000000
_symmetry_Int_Tables_number   1
_chemical_formula_structural   Li4Mn3F10
_chemical_formula_sum   'Li16 Mn12 F40'
_cell_volume   954.04088073
_cell_formula_units_Z   4
loop_
 _symmetry_equiv_pos_site_id
 _symmetry_equiv_pos_as_xyz
  1  'x, y, z'
loop_
 _atom_site_type_symbol
 _atom_site_label
 _atom_site_symmetry_multiplicity
 _atom_site_fract_x
 _atom_site_fract_y
 _atom_site_fract_z
 _atom_site_occupancy
  Li  Li0  1  0.36081400  0.75890900  0.67557300  1
  Li  Li1  1  0.36081400  0.24109100  0.17557300  1
  Li  Li2  1  0.50000000  0.20960700  0.75000000  1
  Li  Li3  1  0.50000000  0.92294700  0.75000000  1
  Li  Li4  1  0.50000000  0.07705300  0.25000000  1
  Li  Li5  1  0.50000000  0.79039300  0.25000000  1
  Li  Li6  1  0.63918600  0.75890900  0.82442700  1
  Li  Li7  1  0.63918600  0.24109100  0.32442700  1
  Li  Li8  1  0.86081400  0.25890900  0.67557300  1
  Li  Li9  1  0.86081400  0.74109100  0.17557300  1
  Li  Li10  1  0.00000000  0.70960700  0.75000000  1
  Li  Li11  1  0.00000000  0.42294700  0.75000000  1
  Li  Li12  1  0.00000000  0.57705300  0.25000000  1
  Li  Li13  1  0.00000000  0.29039300  0.25000000  1
  Li  Li14  1  0.13918600  0.25890900  0.82442700  1
  Li  Li15  1  0.13918600  0.74109100  0.32442700  1
  Mn  Mn16  1  0.29841250  0.07754950  0.65629700  1
  Mn  Mn17  1  0.29841250  0.92245050  0.15629700  1
  Mn  Mn18  1  0.50000000  0.38501300  0.75000000  1
  Mn  Mn19  1  0.50000000  0.61498700  0.25000000  1
  Mn  Mn20  1  0.70158750  0.07754950  0.84370300  1
  Mn  Mn21  1  0.70158750  0.92245050  0.34370300  1
  Mn  Mn22  1  0.79841250  0.57754950  0.65629700  1
  Mn  Mn23  1  0.79841250  0.42245050  0.15629700  1
  Mn  Mn24  1  0.00000000  0.88501300  0.75000000  1
  Mn  Mn25  1  0.00000000  0.11498700  0.25000000  1
  Mn  Mn26  1  0.20158750  0.57754950  0.84370300  1
  Mn  Mn27  1  0.20158750  0.42245050  0.34370300  1
  F  F28  1  0.27329350  0.18520650  0.84299300  1
  F  F29  1  0.27329350  0.81479350  0.34299300  1
  F  F30  1  0.85169700  0.95003400  0.61719000  1
  F  F31  1  0.85169700  0.04996600  0.11719000  1
  F  F32  1  0.41281000  0.85204300  0.95190000  1
  F  F33  1  0.41281000  0.14795700  0.45190000  1
  F  F34  1  0.37723900  0.02657300  0.01082500  1
  F  F35  1  0.37723900  0.97342700  0.51082500  1
  F  F36  1  0.47755750  0.29329750  0.99533900  1
  F  F37  1  0.47755750  0.70670250  0.49533900  1
  F  F38  1  0.52244250  0.29329750  0.50466100  1
  F  F39  1  0.52244250  0.70670250  0.00466100  1
  F  F40  1  0.62276100  0.02657300  0.48917500  1
  F  F41  1  0.62276100  0.97342700  0.98917500  1
  F  F42  1  0.58719000  0.85204300  0.54810000  1
  F  F43  1  0.58719000  0.14795700  0.04810000  1
  F  F44  1  0.14830300  0.95003400  0.88281000  1
  F  F45  1  0.14830300  0.04996600  0.38281000  1
  F  F46  1  0.72670650  0.18520650  0.65700700  1
  F  F47  1  0.72670650  0.81479350  0.15700700  1
  F  F48  1  0.77329350  0.68520650  0.84299300  1
  F  F49  1  0.77329350  0.31479350  0.34299300  1
  F  F50  1  0.35169700  0.45003400  0.61719000  1
  F  F51  1  0.35169700  0.54996600  0.11719000  1
  F  F52  1  0.91281000  0.35204300  0.95190000  1
  F  F53  1  0.91281000  0.64795700  0.45190000  1
  F  F54  1  0.87723900  0.52657300  0.01082500  1
  F  F55  1  0.87723900  0.47342700  0.51082500  1
  F  F56  1  0.97755750  0.79329750  0.99533900  1
  F  F57  1  0.97755750  0.20670250  0.49533900  1
  F  F58  1  0.02244250  0.79329750  0.50466100  1
  F  F59  1  0.02244250  0.20670250  0.00466100  1
  F  F60  1  0.12276100  0.52657300  0.48917500  1
  F  F61  1  0.12276100  0.47342700  0.98917500  1
  F  F62  1  0.08719000  0.35204300  0.54810000  1
  F  F63  1  0.08719000  0.64795700  0.04810000  1
  F  F64  1  0.64830300  0.45003400  0.88281000  1
  F  F65  1  0.64830300  0.54996600  0.38281000  1
  F  F66  1  0.22670650  0.68520650  0.65700700  1
  F  F67  1  0.22670650  0.31479350  0.15700700  1
