# generated using pymatgen
data_CrFe3Sb2(PO4)6
_symmetry_space_group_name_H-M   'P 1'
_cell_length_a   8.67164555
_cell_length_b   8.67164555
_cell_length_c   21.87094807
_cell_angle_alpha   90.00000000
_cell_angle_beta   90.00000000
_cell_angle_gamma   120.00000000
_symmetry_Int_Tables_number   1
_chemical_formula_structural   CrFe3Sb2(PO4)6
_chemical_formula_sum   'Cr3 Fe9 Sb6 P18 O72'
_cell_volume   1424.29935300
_cell_formula_units_Z   3
loop_
 _symmetry_equiv_pos_site_id
 _symmetry_equiv_pos_as_xyz
  1  'x, y, z'
loop_
 _atom_site_type_symbol
 _atom_site_label
 _atom_site_symmetry_multiplicity
 _atom_site_fract_x
 _atom_site_fract_y
 _atom_site_fract_z
 _atom_site_occupancy
  Cr  Cr0  1  0.00000000  0.00000000  0.14553800  1
  Cr  Cr1  1  0.66666667  0.33333333  0.47887133  1
  Cr  Cr2  1  0.33333333  0.66666667  0.81220467  1
  Fe  Fe3  1  0.66666667  0.33333333  0.18395333  1
  Fe  Fe4  1  0.33333333  0.66666667  0.31598967  1
  Fe  Fe5  1  0.33333333  0.66666667  0.01765767  1
  Fe  Fe6  1  0.33333333  0.66666667  0.51728667  1
  Fe  Fe7  1  0.00000000  0.00000000  0.64932300  1
  Fe  Fe8  1  0.00000000  0.00000000  0.35099100  1
  Fe  Fe9  1  0.00000000  0.00000000  0.85062000  1
  Fe  Fe10  1  0.66666667  0.33333333  0.98265633  1
  Fe  Fe11  1  0.66666667  0.33333333  0.68432433  1
  Sb  Sb12  1  0.66666667  0.33333333  0.33039333  1
  Sb  Sb13  1  0.33333333  0.66666667  0.16710267  1
  Sb  Sb14  1  0.33333333  0.66666667  0.66372667  1
  Sb  Sb15  1  0.00000000  0.00000000  0.50043600  1
  Sb  Sb16  1  0.00000000  0.00000000  0.99706000  1
  Sb  Sb17  1  0.66666667  0.33333333  0.83376933  1
  P  P18  1  0.71093867  0.71165333  0.24960533  1
  P  P19  1  0.28834667  0.99928533  0.24960533  1
  P  P20  1  0.00071467  0.28906133  0.24960533  1
  P  P21  1  0.66682967  0.04237033  0.08384833  1
  P  P22  1  0.37554067  0.33317033  0.08384833  1
  P  P23  1  0.95762967  0.62445933  0.08384833  1
  P  P24  1  0.37760533  0.04498667  0.58293867  1
  P  P25  1  0.95501333  0.33261867  0.58293867  1
  P  P26  1  0.66738133  0.62239467  0.58293867  1
  P  P27  1  0.33349633  0.37570367  0.41718167  1
  P  P28  1  0.04220733  0.66650367  0.41718167  1
  P  P29  1  0.62429633  0.95779267  0.41718167  1
  P  P30  1  0.04427200  0.37832000  0.91627200  1
  P  P31  1  0.62168000  0.66595200  0.91627200  1
  P  P32  1  0.33404800  0.95572800  0.91627200  1
  P  P33  1  0.00016300  0.70903700  0.75051500  1
  P  P34  1  0.70887400  0.99983700  0.75051500  1
  P  P35  1  0.29096300  0.29112600  0.75051500  1
  O  O36  1  0.85902300  0.53366600  0.02490900  1
  O  O37  1  0.67464300  0.14097700  0.02490900  1
  O  O38  1  0.68840200  0.51896800  0.25212600  1
  O  O39  1  0.46633400  0.32535700  0.02490900  1
  O  O40  1  0.80068633  0.80874567  0.19106467  1
  O  O41  1  0.51858633  0.68742467  0.24818967  1
  O  O42  1  0.48103200  0.16943400  0.25212600  1
  O  O43  1  0.31257533  0.83116167  0.24818967  1
  O  O44  1  0.65970067  0.13458033  0.14234533  1
  O  O45  1  0.16883833  0.48141367  0.24818967  1
  O  O46  1  0.83594233  0.02129467  0.08233767  1
  O  O47  1  0.47487967  0.34029933  0.14234533  1
  O  O48  1  0.19125433  0.99194067  0.19106467  1
  O  O49  1  0.83056600  0.31159800  0.25212600  1
  O  O50  1  0.49734767  0.85190633  0.08543333  1
  O  O51  1  0.00805933  0.19931367  0.19106467  1
  O  O52  1  0.35455867  0.50265233  0.08543333  1
  O  O53  1  0.18535233  0.16405767  0.08233767  1
  O  O54  1  0.14809367  0.64544133  0.08543333  1
  O  O55  1  0.86541967  0.52512033  0.14234533  1
  O  O56  1  0.19869267  0.00631433  0.30881733  1
  O  O57  1  0.97870533  0.81464767  0.08233767  1
  O  O58  1  0.99368567  0.19237833  0.30881733  1
  O  O59  1  0.80762167  0.80130733  0.30881733  1
  O  O60  1  0.52568967  0.86699933  0.35824233  1
  O  O61  1  0.34130967  0.47431033  0.35824233  1
  O  O62  1  0.35506867  0.85230133  0.58545933  1
  O  O63  1  0.13300067  0.65869033  0.35824233  1
  O  O64  1  0.46735300  0.14207900  0.52439800  1
  O  O65  1  0.18525300  0.02075800  0.58152300  1
  O  O66  1  0.14769867  0.50276733  0.58545933  1
  O  O67  1  0.97924200  0.16449500  0.58152300  1
  O  O68  1  0.32636733  0.46791367  0.47567867  1
  O  O69  1  0.83550500  0.81474700  0.58152300  1
  O  O70  1  0.50260900  0.35462800  0.41567100  1
  O  O71  1  0.14154633  0.67363267  0.47567867  1
  O  O72  1  0.85792100  0.32527400  0.52439800  1
  O  O73  1  0.49723267  0.64493133  0.58545933  1
  O  O74  1  0.16401433  0.18523967  0.41876667  1
  O  O75  1  0.67472600  0.53264700  0.52439800  1
  O  O76  1  0.02122533  0.83598567  0.41876667  1
  O  O77  1  0.85201900  0.49739100  0.41567100  1
  O  O78  1  0.81476033  0.97877467  0.41876667  1
  O  O79  1  0.53208633  0.85845367  0.47567867  1
  O  O80  1  0.86535933  0.33964767  0.64215067  1
  O  O81  1  0.64537200  0.14798100  0.41567100  1
  O  O82  1  0.66035233  0.52571167  0.64215067  1
  O  O83  1  0.47428833  0.13464067  0.64215067  1
  O  O84  1  0.19235633  0.20033267  0.69157567  1
  O  O85  1  0.00797633  0.80764367  0.69157567  1
  O  O86  1  0.02173533  0.18563467  0.91879267  1
  O  O87  1  0.79966733  0.99202367  0.69157567  1
  O  O88  1  0.13401967  0.47541233  0.85773133  1
  O  O89  1  0.85191967  0.35409133  0.91485633  1
  O  O90  1  0.81436533  0.83610067  0.91879267  1
  O  O91  1  0.64590867  0.49782833  0.91485633  1
  O  O92  1  0.99303400  0.80124700  0.80901200  1
  O  O93  1  0.50217167  0.14808033  0.91485633  1
  O  O94  1  0.16927567  0.68796133  0.74900433  1
  O  O95  1  0.80821300  0.00696600  0.80901200  1
  O  O96  1  0.52458767  0.65860733  0.85773133  1
  O  O97  1  0.16389933  0.97826467  0.91879267  1
  O  O98  1  0.83068100  0.51857300  0.75210000  1
  O  O99  1  0.34139267  0.86598033  0.85773133  1
  O  O100  1  0.68789200  0.16931900  0.75210000  1
  O  O101  1  0.51868567  0.83072433  0.74900433  1
  O  O102  1  0.48142700  0.31210800  0.75210000  1
  O  O103  1  0.19875300  0.19178700  0.80901200  1
  O  O104  1  0.53202600  0.67298100  0.97548400  1
  O  O105  1  0.31203867  0.48131433  0.74900433  1
  O  O106  1  0.32701900  0.85904500  0.97548400  1
  O  O107  1  0.14095500  0.46797400  0.97548400  1
