# generated using pymatgen
data_Li6Mn5Fe(BO3)6
_symmetry_space_group_name_H-M   'P 1'
_cell_length_a   8.27969200
_cell_length_b   3.18330700
_cell_length_c   14.31593498
_cell_angle_alpha   90.00000000
_cell_angle_beta   90.03696868
_cell_angle_gamma   90.00000000
_symmetry_Int_Tables_number   1
_chemical_formula_structural   Li6Mn5Fe(BO3)6
_chemical_formula_sum   'Li6 Mn5 Fe1 B6 O18'
_cell_volume   377.32217803
_cell_formula_units_Z   1
loop_
 _symmetry_equiv_pos_site_id
 _symmetry_equiv_pos_as_xyz
  1  'x, y, z'
loop_
 _atom_site_type_symbol
 _atom_site_label
 _atom_site_symmetry_multiplicity
 _atom_site_fract_x
 _atom_site_fract_y
 _atom_site_fract_z
 _atom_site_occupancy
  Li  Li0  1  0.29251700  0.50000000  0.00880400  1
  Li  Li1  1  0.33927900  0.50000000  0.64150500  1
  Li  Li2  1  0.36530300  0.50000000  0.34976400  1
  Li  Li3  1  0.79283500  0.50000000  0.50873100  1
  Li  Li4  1  0.84104400  0.50000000  0.14227700  1
  Li  Li5  1  0.86705300  0.50000000  0.84906900  1
  Mn  Mn6  1  0.17367100  0.00000000  0.18602800  1
  Mn  Mn7  1  0.19137500  0.00000000  0.82013600  1
  Mn  Mn8  1  0.63471800  0.00000000  0.99417900  1
  Mn  Mn9  1  0.67426200  0.00000000  0.68590700  1
  Mn  Mn10  1  0.69208700  0.00000000  0.32011800  1
  Fe  Fe11  1  0.13785300  0.00000000  0.49596300  1
  B  B12  1  0.00068300  0.50000000  0.33482600  1
  B  B13  1  0.00000700  0.00000000  0.00002900  1
  B  B14  1  0.00110000  0.50000000  0.66547700  1
  B  B15  1  0.49980800  0.50000000  0.83313900  1
  B  B16  1  0.49897900  0.00000000  0.49930800  1
  B  B17  1  0.49989100  0.50000000  0.16668800  1
  O  O18  1  0.01305400  0.50000000  0.56859800  1
  O  O19  1  0.01524200  0.50000000  0.23765500  1
  O  O20  1  0.13725500  0.50000000  0.39130300  1
  O  O21  1  0.13986900  0.50000000  0.72001600  1
  O  O22  1  0.15432500  0.00000000  0.03912800  1
  O  O23  1  0.34776100  0.50000000  0.87457300  1
  O  O24  1  0.34974200  0.50000000  0.20985500  1
  O  O25  1  0.36104000  0.00000000  0.55598800  1
  O  O26  1  0.48152400  0.00000000  0.40272900  1
  O  O27  1  0.51030200  0.50000000  0.06979800  1
  O  O28  1  0.51391000  0.50000000  0.73611600  1
  O  O29  1  0.63817100  0.50000000  0.88850100  1
  O  O30  1  0.63983700  0.50000000  0.22016700  1
  O  O31  1  0.65224500  0.00000000  0.53948000  1
  O  O32  1  0.84723400  0.50000000  0.37499900  1
  O  O33  1  0.85036700  0.50000000  0.70829800  1
  O  O34  1  0.86427700  0.00000000  0.05773200  1
  O  O35  1  0.98137500  0.00000000  0.90311500  1
