# generated using pymatgen
data_Ba8In8O19
_symmetry_space_group_name_H-M   'P 1'
_cell_length_a   8.74219400
_cell_length_b   16.82004600
_cell_length_c   8.62677386
_cell_angle_alpha   90.00000000
_cell_angle_beta   91.97696583
_cell_angle_gamma   90.00000000
_symmetry_Int_Tables_number   1
_chemical_formula_structural   Ba8In8O19
_chemical_formula_sum   'Ba16 In16 O38'
_cell_volume   1267.76119229
_cell_formula_units_Z   2
loop_
 _symmetry_equiv_pos_site_id
 _symmetry_equiv_pos_as_xyz
  1  'x, y, z'
loop_
 _atom_site_type_symbol
 _atom_site_label
 _atom_site_symmetry_multiplicity
 _atom_site_fract_x
 _atom_site_fract_y
 _atom_site_fract_z
 _atom_site_occupancy
  Ba  Ba0  1  0.51515900  0.64568300  0.24347500  1
  Ba  Ba1  1  0.48966350  0.63850850  0.76066200  1
  Ba  Ba2  1  0.49285250  0.85995050  0.26298600  1
  Ba  Ba3  1  0.99285250  0.64004950  0.26298600  1
  Ba  Ba4  1  0.51510650  0.86022750  0.74443600  1
  Ba  Ba5  1  0.01515900  0.85431700  0.24347500  1
  Ba  Ba6  1  0.01510650  0.63977250  0.74443600  1
  Ba  Ba7  1  0.98966350  0.86149150  0.76066200  1
  Ba  Ba8  1  0.01515900  0.14568300  0.24347500  1
  Ba  Ba9  1  0.98966350  0.13850850  0.76066200  1
  Ba  Ba10  1  0.99285250  0.35995050  0.26298600  1
  Ba  Ba11  1  0.49285250  0.14004950  0.26298600  1
  Ba  Ba12  1  0.01510650  0.36022750  0.74443600  1
  Ba  Ba13  1  0.51515900  0.35431700  0.24347500  1
  Ba  Ba14  1  0.51510650  0.13977250  0.74443600  1
  Ba  Ba15  1  0.48966350  0.36149150  0.76066200  1
  In  In16  1  0.25034600  0.74935800  0.00010600  1
  In  In17  1  0.74254100  0.00000000  0.08599800  1
  In  In18  1  0.80127100  0.00000000  0.45008700  1
  In  In19  1  0.25079700  0.74904800  0.50180300  1
  In  In20  1  0.75034600  0.75064200  0.00010600  1
  In  In21  1  0.75079700  0.75095200  0.50180300  1
  In  In22  1  0.23369500  0.00000000  0.54685800  1
  In  In23  1  0.29949900  0.00000000  0.98381800  1
  In  In24  1  0.75034600  0.24935800  0.00010600  1
  In  In25  1  0.24254100  0.50000000  0.08599800  1
  In  In26  1  0.30127100  0.50000000  0.45008700  1
  In  In27  1  0.75079700  0.24904800  0.50180300  1
  In  In28  1  0.25034600  0.25064200  0.00010600  1
  In  In29  1  0.25079700  0.25095200  0.50180300  1
  In  In30  1  0.73369500  0.50000000  0.54685800  1
  In  In31  1  0.79949900  0.50000000  0.98381800  1
  O  O32  1  0.25227550  0.74256850  0.25033700  1
  O  O33  1  0.50023150  0.74181450  0.50460600  1
  O  O34  1  0.75227550  0.75743150  0.25033700  1
  O  O35  1  0.49987550  0.76035650  0.00581100  1
  O  O36  1  0.99987550  0.73964350  0.00581100  1
  O  O37  1  0.50138800  0.00000000  0.12458600  1
  O  O38  1  0.20542450  0.88847850  0.01697700  1
  O  O39  1  0.70542450  0.61152150  0.01697700  1
  O  O40  1  0.21548650  0.61222050  0.51689200  1
  O  O41  1  0.71548650  0.88777950  0.51689200  1
  O  O42  1  0.77360800  0.88951500  0.97468000  1
  O  O43  1  0.27360800  0.61048500  0.97468000  1
  O  O44  1  0.76676050  0.61271350  0.45839600  1
  O  O45  1  0.26676050  0.88728650  0.45839600  1
  O  O46  1  0.37262400  0.00000000  0.75297200  1
  O  O47  1  0.25436050  0.75852850  0.75125300  1
  O  O48  1  0.75436050  0.74147150  0.75125300  1
  O  O49  1  0.00023150  0.75818550  0.50460600  1
  O  O50  1  0.00106600  0.00000000  0.60410900  1
  O  O51  1  0.75227550  0.24256850  0.25033700  1
  O  O52  1  0.00023150  0.24181450  0.50460600  1
  O  O53  1  0.25227550  0.25743150  0.25033700  1
  O  O54  1  0.99987550  0.26035650  0.00581100  1
  O  O55  1  0.49987550  0.23964350  0.00581100  1
  O  O56  1  0.00138800  0.50000000  0.12458600  1
  O  O57  1  0.70542450  0.38847850  0.01697700  1
  O  O58  1  0.20542450  0.11152150  0.01697700  1
  O  O59  1  0.71548650  0.11222050  0.51689200  1
  O  O60  1  0.21548650  0.38777950  0.51689200  1
  O  O61  1  0.27360800  0.38951500  0.97468000  1
  O  O62  1  0.77360800  0.11048500  0.97468000  1
  O  O63  1  0.26676050  0.11271350  0.45839600  1
  O  O64  1  0.76676050  0.38728650  0.45839600  1
  O  O65  1  0.87262400  0.50000000  0.75297200  1
  O  O66  1  0.75436050  0.25852850  0.75125300  1
  O  O67  1  0.25436050  0.24147150  0.75125300  1
  O  O68  1  0.50023150  0.25818550  0.50460600  1
  O  O69  1  0.50106600  0.50000000  0.60410900  1
