# generated using pymatgen
data_Ba2GaP4HO14
_symmetry_space_group_name_H-M   'P 1'
_cell_length_a   4.84903600
_cell_length_b   7.66363984
_cell_length_c   8.68009654
_cell_angle_alpha   108.07905052
_cell_angle_beta   97.03796422
_cell_angle_gamma   105.77939730
_symmetry_Int_Tables_number   1
_chemical_formula_structural   Ba2GaP4HO14
_chemical_formula_sum   'Ba2 Ga1 P4 H1 O14'
_cell_volume   287.43546587
_cell_formula_units_Z   1
loop_
 _symmetry_equiv_pos_site_id
 _symmetry_equiv_pos_as_xyz
  1  'x, y, z'
loop_
 _atom_site_type_symbol
 _atom_site_label
 _atom_site_symmetry_multiplicity
 _atom_site_fract_x
 _atom_site_fract_y
 _atom_site_fract_z
 _atom_site_occupancy
  Ba  Ba0  1  0.14596700  0.47356600  0.74097600  1
  Ba  Ba1  1  0.85403300  0.52643400  0.25902400  1
  Ga  Ga2  1  0.00000000  0.00000000  0.00000000  1
  P  P3  1  0.45422900  0.81701100  0.13868700  1
  P  P4  1  0.62549100  0.82815400  0.62577200  1
  P  P5  1  0.37450900  0.17184600  0.37422800  1
  P  P6  1  0.54577100  0.18298900  0.86131300  1
  H  H7  1  0.00000000  0.00000000  0.50000000  1
  O  O8  1  0.26090500  0.83777900  0.99493500  1
  O  O9  1  0.33412800  0.66937100  0.53308600  1
  O  O10  1  0.42055300  0.96034800  0.31148800  1
  O  O11  1  0.21990400  0.13239500  0.86761800  1
  O  O12  1  0.15656600  0.14804600  0.48835900  1
  O  O13  1  0.34397900  0.61239000  0.14195500  1
  O  O14  1  0.25185200  0.20693600  0.21727400  1
  O  O15  1  0.74814800  0.79306400  0.78272600  1
  O  O16  1  0.65602100  0.38761000  0.85804500  1
  O  O17  1  0.84343400  0.85195400  0.51164100  1
  O  O18  1  0.78009600  0.86760500  0.13238200  1
  O  O19  1  0.57944700  0.03965200  0.68851200  1
  O  O20  1  0.66587200  0.33062900  0.46691400  1
  O  O21  1  0.73909500  0.16222100  0.00506500  1
