# generated using pymatgen
data_Na2Sb4O11
_symmetry_space_group_name_H-M   'P 1'
_cell_length_a   19.74979200
_cell_length_b   7.64499200
_cell_length_c   7.26848624
_cell_angle_alpha   90.00000000
_cell_angle_beta   95.31663822
_cell_angle_gamma   90.00000000
_symmetry_Int_Tables_number   1
_chemical_formula_structural   Na2Sb4O11
_chemical_formula_sum   'Na8 Sb16 O44'
_cell_volume   1092.72554552
_cell_formula_units_Z   4
loop_
 _symmetry_equiv_pos_site_id
 _symmetry_equiv_pos_as_xyz
  1  'x, y, z'
loop_
 _atom_site_type_symbol
 _atom_site_label
 _atom_site_symmetry_multiplicity
 _atom_site_fract_x
 _atom_site_fract_y
 _atom_site_fract_z
 _atom_site_occupancy
  Na  Na0  1  0.97437950  0.98367950  0.21935900  1
  Na  Na1  1  0.76417050  0.49777050  0.43660800  1
  Na  Na2  1  0.73582950  0.99777050  0.56339200  1
  Na  Na3  1  0.52562050  0.48367950  0.78064100  1
  Na  Na4  1  0.47437950  0.48367950  0.21935900  1
  Na  Na5  1  0.26417050  0.99777050  0.43660800  1
  Na  Na6  1  0.23582950  0.49777050  0.56339200  1
  Na  Na7  1  0.02562050  0.98367950  0.78064100  1
  Sb  Sb8  1  0.92575800  0.49843600  0.88625700  1
  Sb  Sb9  1  0.93049050  0.49903850  0.40705800  1
  Sb  Sb10  1  0.82770250  0.23993750  0.06854600  1
  Sb  Sb11  1  0.82747550  0.75708250  0.06791400  1
  Sb  Sb12  1  0.67252450  0.25708250  0.93208600  1
  Sb  Sb13  1  0.67229750  0.73993750  0.93145400  1
  Sb  Sb14  1  0.56950950  0.99903850  0.59294200  1
  Sb  Sb15  1  0.57424200  0.99843600  0.11374300  1
  Sb  Sb16  1  0.42575800  0.99843600  0.88625700  1
  Sb  Sb17  1  0.43049050  0.99903850  0.40705800  1
  Sb  Sb18  1  0.32770250  0.73993750  0.06854600  1
  Sb  Sb19  1  0.32747550  0.25708250  0.06791400  1
  Sb  Sb20  1  0.17252450  0.75708250  0.93208600  1
  Sb  Sb21  1  0.17229750  0.23993750  0.93145400  1
  Sb  Sb22  1  0.06950950  0.49903850  0.59294200  1
  Sb  Sb23  1  0.07424200  0.49843600  0.11374300  1
  O  O24  1  0.97839100  0.49865500  0.15966300  1
  O  O25  1  0.91470100  0.24194400  0.93788200  1
  O  O26  1  0.91506850  0.75549950  0.93836600  1
  O  O27  1  0.88196750  0.50009150  0.63515800  1
  O  O28  1  0.86922300  0.30640800  0.31937300  1
  O  O29  1  0.87074000  0.69393900  0.31791000  1
  O  O30  1  0.83426700  0.49878600  0.99073300  1
  O  O31  1  0.84718200  0.99861000  0.15164600  1
  O  O32  1  0.76540000  0.79308200  0.83594700  1
  O  O33  1  0.76553400  0.20509500  0.83594500  1
  O  O34  1  0.73446600  0.70509500  0.16405500  1
  O  O35  1  0.73460000  0.29308200  0.16405300  1
  O  O36  1  0.65281800  0.49861000  0.84835400  1
  O  O37  1  0.66573300  0.99878600  0.00926700  1
  O  O38  1  0.62926000  0.19393900  0.68209000  1
  O  O39  1  0.63077700  0.80640800  0.68062700  1
  O  O40  1  0.61803250  0.00009150  0.36484200  1
  O  O41  1  0.58529900  0.74194400  0.06211800  1
  O  O42  1  0.58493150  0.25549950  0.06163400  1
  O  O43  1  0.52160900  0.99865500  0.84033700  1
  O  O44  1  0.00000000  0.32482200  0.50000000  1
  O  O45  1  0.00000000  0.67390700  0.50000000  1
  O  O46  1  0.47839100  0.99865500  0.15966300  1
  O  O47  1  0.41470100  0.74194400  0.93788200  1
  O  O48  1  0.41506850  0.25549950  0.93836600  1
  O  O49  1  0.38196750  0.00009150  0.63515800  1
  O  O50  1  0.36922300  0.80640800  0.31937300  1
  O  O51  1  0.37074000  0.19393900  0.31791000  1
  O  O52  1  0.33426700  0.99878600  0.99073300  1
  O  O53  1  0.34718200  0.49861000  0.15164600  1
  O  O54  1  0.26540000  0.29308200  0.83594700  1
  O  O55  1  0.26553400  0.70509500  0.83594500  1
  O  O56  1  0.23446600  0.20509500  0.16405500  1
  O  O57  1  0.23460000  0.79308200  0.16405300  1
  O  O58  1  0.15281800  0.99861000  0.84835400  1
  O  O59  1  0.16573300  0.49878600  0.00926700  1
  O  O60  1  0.12926000  0.69393900  0.68209000  1
  O  O61  1  0.13077700  0.30640800  0.68062700  1
  O  O62  1  0.11803250  0.50009150  0.36484200  1
  O  O63  1  0.08529900  0.24194400  0.06211800  1
  O  O64  1  0.08493150  0.75549950  0.06163400  1
  O  O65  1  0.02160900  0.49865500  0.84033700  1
  O  O66  1  0.50000000  0.82482200  0.50000000  1
  O  O67  1  0.50000000  0.17390700  0.50000000  1
