# generated using pymatgen
data_MnH6SO6
_symmetry_space_group_name_H-M   'P 1'
_cell_length_a   5.84438900
_cell_length_b   9.82196600
_cell_length_c   9.95610800
_cell_angle_alpha   90.00000000
_cell_angle_beta   90.00000000
_cell_angle_gamma   90.00000000
_symmetry_Int_Tables_number   1
_chemical_formula_structural   MnH6SO6
_chemical_formula_sum   'Mn4 H24 S4 O24'
_cell_volume   571.51435089
_cell_formula_units_Z   4
loop_
 _symmetry_equiv_pos_site_id
 _symmetry_equiv_pos_as_xyz
  1  'x, y, z'
loop_
 _atom_site_type_symbol
 _atom_site_label
 _atom_site_symmetry_multiplicity
 _atom_site_fract_x
 _atom_site_fract_y
 _atom_site_fract_z
 _atom_site_occupancy
  Mn  Mn0  1  0.76797500  0.17594500  0.79399500  1
  Mn  Mn1  1  0.23202500  0.67594500  0.70600500  1
  Mn  Mn2  1  0.73202500  0.82405500  0.29399500  1
  Mn  Mn3  1  0.26797500  0.32405500  0.20600500  1
  H  H4  1  0.47947600  0.39419800  0.63564600  1
  H  H5  1  0.52052400  0.89419800  0.86435400  1
  H  H6  1  0.02052400  0.60580200  0.13564600  1
  H  H7  1  0.97947600  0.10580200  0.36435400  1
  H  H8  1  0.69231000  0.30848800  0.60772000  1
  H  H9  1  0.30769000  0.80848800  0.89228000  1
  H  H10  1  0.80769000  0.69151200  0.10772000  1
  H  H11  1  0.19231000  0.19151200  0.39228000  1
  H  H12  1  0.98428800  0.39630600  0.63045600  1
  H  H13  1  0.01571200  0.89630600  0.86954400  1
  H  H14  1  0.51571200  0.60369400  0.13045600  1
  H  H15  1  0.48428800  0.10369400  0.36954400  1
  H  H16  1  0.99977600  0.26028000  0.53904900  1
  H  H17  1  0.00022400  0.76028000  0.96095100  1
  H  H18  1  0.50022400  0.73972000  0.03904900  1
  H  H19  1  0.49977600  0.23972000  0.46095100  1
  H  H20  1  0.88878100  0.97124900  0.59962100  1
  H  H21  1  0.11121900  0.47124900  0.90037900  1
  H  H22  1  0.61121900  0.02875100  0.09962100  1
  H  H23  1  0.38878100  0.52875100  0.40037900  1
  H  H24  1  0.61899900  0.97355700  0.60118700  1
  H  H25  1  0.38100100  0.47355700  0.89881300  1
  H  H26  1  0.88100100  0.02644300  0.10118700  1
  H  H27  1  0.11899900  0.52644300  0.39881300  1
  S  S28  1  0.26350000  0.16016800  0.93425700  1
  S  S29  1  0.73650000  0.66016800  0.56574300  1
  S  S30  1  0.23650000  0.83983200  0.43425700  1
  S  S31  1  0.76350000  0.33983200  0.06574300  1
  O  O32  1  0.76430600  0.35870700  0.91122700  1
  O  O33  1  0.23569400  0.85870700  0.58877300  1
  O  O34  1  0.73569400  0.64129300  0.41122700  1
  O  O35  1  0.26430600  0.14129300  0.08877300  1
  O  O36  1  0.05409600  0.07329800  0.88698100  1
  O  O37  1  0.94590400  0.57329800  0.61301900  1
  O  O38  1  0.44590400  0.92670200  0.38698100  1
  O  O39  1  0.55409600  0.42670200  0.11301900  1
  O  O40  1  0.48019700  0.08109300  0.88841600  1
  O  O41  1  0.51980300  0.58109300  0.61158400  1
  O  O42  1  0.01980300  0.91890700  0.38841600  1
  O  O43  1  0.98019700  0.41890700  0.11158400  1
  O  O44  1  0.52407800  0.29777900  0.62291000  1
  O  O45  1  0.47592200  0.79777900  0.87709000  1
  O  O46  1  0.97592200  0.70222100  0.12291000  1
  O  O47  1  0.02407800  0.20222100  0.37709000  1
  O  O48  1  0.97133400  0.29507200  0.63239300  1
  O  O49  1  0.02866600  0.79507200  0.86760700  1
  O  O50  1  0.52866600  0.70492800  0.13239300  1
  O  O51  1  0.47133400  0.20492800  0.36760700  1
  O  O52  1  0.75589000  0.01822700  0.63766400  1
  O  O53  1  0.24411000  0.51822700  0.86233600  1
  O  O54  1  0.74411000  0.98177300  0.13766400  1
  O  O55  1  0.25589000  0.48177300  0.36233600  1
