# generated using pymatgen
data_NaTiPO5
_symmetry_space_group_name_H-M   'P 1'
_cell_length_a   6.54778400
_cell_length_b   7.49628300
_cell_length_c   7.81701100
_cell_angle_alpha   90.00000000
_cell_angle_beta   90.00000000
_cell_angle_gamma   90.00000000
_symmetry_Int_Tables_number   1
_chemical_formula_structural   NaTiPO5
_chemical_formula_sum   'Na4 Ti4 P4 O20'
_cell_volume   383.69049535
_cell_formula_units_Z   4
loop_
 _symmetry_equiv_pos_site_id
 _symmetry_equiv_pos_as_xyz
  1  'x, y, z'
loop_
 _atom_site_type_symbol
 _atom_site_label
 _atom_site_symmetry_multiplicity
 _atom_site_fract_x
 _atom_site_fract_y
 _atom_site_fract_z
 _atom_site_occupancy
  Na  Na0  1  0.00000000  0.00000000  0.00000000  1
  Na  Na1  1  0.50000000  0.00000000  0.00000000  1
  Na  Na2  1  0.00000000  0.50000000  0.50000000  1
  Na  Na3  1  0.50000000  0.50000000  0.50000000  1
  Ti  Ti4  1  0.25000000  0.16491300  0.28504000  1
  Ti  Ti5  1  0.75000000  0.33508700  0.78504000  1
  Ti  Ti6  1  0.25000000  0.66491300  0.21496000  1
  Ti  Ti7  1  0.75000000  0.83508700  0.71496000  1
  P  P8  1  0.75000000  0.12527400  0.39226300  1
  P  P9  1  0.25000000  0.37472600  0.89226300  1
  P  P10  1  0.75000000  0.62527400  0.10773700  1
  P  P11  1  0.25000000  0.87472600  0.60773700  1
  O  O12  1  0.25000000  0.05356900  0.50736000  1
  O  O13  1  0.75000000  0.10766800  0.82860200  1
  O  O14  1  0.55893300  0.13532100  0.27593200  1
  O  O15  1  0.94106700  0.13532100  0.27593200  1
  O  O16  1  0.25000000  0.21433800  0.02074100  1
  O  O17  1  0.75000000  0.28566200  0.52074100  1
  O  O18  1  0.05893300  0.36467900  0.77593200  1
  O  O19  1  0.44106700  0.36467900  0.77593200  1
  O  O20  1  0.25000000  0.39233200  0.32860200  1
  O  O21  1  0.75000000  0.44643100  0.00736000  1
  O  O22  1  0.25000000  0.55356900  0.99264000  1
  O  O23  1  0.75000000  0.60766800  0.67139800  1
  O  O24  1  0.55893300  0.63532100  0.22406800  1
  O  O25  1  0.94106700  0.63532100  0.22406800  1
  O  O26  1  0.25000000  0.71433800  0.47925900  1
  O  O27  1  0.75000000  0.78566200  0.97925900  1
  O  O28  1  0.05893300  0.86467900  0.72406800  1
  O  O29  1  0.44106700  0.86467900  0.72406800  1
  O  O30  1  0.25000000  0.89233200  0.17139800  1
  O  O31  1  0.75000000  0.94643100  0.49264000  1
