# generated using pymatgen
data_Bi4(B2O5)3
_symmetry_space_group_name_H-M   'P 1'
_cell_length_a   12.01541000
_cell_length_b   4.55157600
_cell_length_c   19.55404618
_cell_angle_alpha   90.00000000
_cell_angle_beta   97.73493864
_cell_angle_gamma   90.00000000
_symmetry_Int_Tables_number   1
_chemical_formula_structural   Bi4(B2O5)3
_chemical_formula_sum   'Bi16 B24 O60'
_cell_volume   1059.66217699
_cell_formula_units_Z   4
loop_
 _symmetry_equiv_pos_site_id
 _symmetry_equiv_pos_as_xyz
  1  'x, y, z'
loop_
 _atom_site_type_symbol
 _atom_site_label
 _atom_site_symmetry_multiplicity
 _atom_site_fract_x
 _atom_site_fract_y
 _atom_site_fract_z
 _atom_site_occupancy
  Bi  Bi0  1  0.85583750  0.20169950  0.69998700  1
  Bi  Bi1  1  0.86949950  0.18749550  0.90513300  1
  Bi  Bi2  1  0.85583750  0.79830050  0.19998700  1
  Bi  Bi3  1  0.86949950  0.81250450  0.40513300  1
  Bi  Bi4  1  0.63050050  0.68749550  0.59486700  1
  Bi  Bi5  1  0.64416250  0.70169950  0.80001300  1
  Bi  Bi6  1  0.63050050  0.31250450  0.09486700  1
  Bi  Bi7  1  0.64416250  0.29830050  0.30001300  1
  Bi  Bi8  1  0.35583750  0.70169950  0.69998700  1
  Bi  Bi9  1  0.36949950  0.68749550  0.90513300  1
  Bi  Bi10  1  0.35583750  0.29830050  0.19998700  1
  Bi  Bi11  1  0.36949950  0.31250450  0.40513300  1
  Bi  Bi12  1  0.13050050  0.18749550  0.59486700  1
  Bi  Bi13  1  0.14416250  0.20169950  0.80001300  1
  Bi  Bi14  1  0.13050050  0.81250450  0.09486700  1
  Bi  Bi15  1  0.14416250  0.79830050  0.30001300  1
  B  B16  1  0.89980400  0.70672300  0.58803000  1
  B  B17  1  0.93559350  0.72658150  0.80478400  1
  B  B18  1  0.82982850  0.20442450  0.52782900  1
  B  B19  1  0.89980400  0.29327700  0.08803000  1
  B  B20  1  0.93559350  0.27341850  0.30478400  1
  B  B21  1  0.82982850  0.79557550  0.02782900  1
  B  B22  1  0.67017150  0.70442450  0.97217100  1
  B  B23  1  0.56440650  0.22658150  0.69521600  1
  B  B24  1  0.60019600  0.20672300  0.91197000  1
  B  B25  1  0.67017150  0.29557550  0.47217100  1
  B  B26  1  0.56440650  0.77341850  0.19521600  1
  B  B27  1  0.60019600  0.79327700  0.41197000  1
  B  B28  1  0.39980400  0.20672300  0.58803000  1
  B  B29  1  0.43559350  0.22658150  0.80478400  1
  B  B30  1  0.32982850  0.70442450  0.52782900  1
  B  B31  1  0.39980400  0.79327700  0.08803000  1
  B  B32  1  0.43559350  0.77341850  0.30478400  1
  B  B33  1  0.32982850  0.29557550  0.02782900  1
  B  B34  1  0.17017150  0.20442450  0.97217100  1
  B  B35  1  0.06440650  0.72658150  0.69521600  1
  B  B36  1  0.10019600  0.70672300  0.91197000  1
  B  B37  1  0.17017150  0.79557550  0.47217100  1
  B  B38  1  0.06440650  0.27341850  0.19521600  1
  B  B39  1  0.10019600  0.29327700  0.41197000  1
  O  O40  1  0.98950350  0.81337950  0.87470200  1
  O  O41  1  0.91199700  0.39785900  0.56541300  1
  O  O42  1  0.92753550  0.41110550  0.80121900  1
  O  O43  1  0.87066350  0.90170750  0.52819000  1
  O  O44  1  0.98950350  0.18662050  0.37470200  1
  O  O45  1  0.91199700  0.60214100  0.06541300  1
  O  O46  1  0.81758050  0.72220350  0.63799500  1
  O  O47  1  0.92753550  0.58889450  0.30121900  1
  O  O48  1  0.87066350  0.09829250  0.02819000  1
  O  O49  1  0.82556150  0.88317750  0.79392400  1
  O  O50  1  0.78997800  0.72301900  0.95186800  1
  O  O51  1  0.71002200  0.22301900  0.54813200  1
  O  O52  1  0.81758050  0.27779650  0.13799500  1
  O  O53  1  0.82556150  0.11682250  0.29392400  1
  O  O54  1  0.67443850  0.38317750  0.70607600  1
  O  O55  1  0.68241950  0.22220350  0.86200500  1
  O  O56  1  0.78997800  0.27698100  0.45186800  1
  O  O57  1  0.71002200  0.77698100  0.04813200  1
  O  O58  1  0.67443850  0.61682250  0.20607600  1
  O  O59  1  0.62933650  0.40170750  0.97181000  1
  O  O60  1  0.57246450  0.91110550  0.69878100  1
  O  O61  1  0.68241950  0.77779650  0.36200500  1
  O  O62  1  0.58800300  0.89785900  0.93458700  1
  O  O63  1  0.51049650  0.31337950  0.62529800  1
  O  O64  1  0.00000000  0.85465400  0.75000000  1
  O  O65  1  0.62933650  0.59829250  0.47181000  1
  O  O66  1  0.57246450  0.08889450  0.19878100  1
  O  O67  1  0.58800300  0.10214100  0.43458700  1
  O  O68  1  0.51049650  0.68662050  0.12529800  1
  O  O69  1  0.00000000  0.14534600  0.25000000  1
  O  O70  1  0.48950350  0.31337950  0.87470200  1
  O  O71  1  0.41199700  0.89785900  0.56541300  1
  O  O72  1  0.42753550  0.91110550  0.80121900  1
  O  O73  1  0.37066350  0.40170750  0.52819000  1
  O  O74  1  0.48950350  0.68662050  0.37470200  1
  O  O75  1  0.41199700  0.10214100  0.06541300  1
  O  O76  1  0.31758050  0.22220350  0.63799500  1
  O  O77  1  0.42753550  0.08889450  0.30121900  1
  O  O78  1  0.37066350  0.59829250  0.02819000  1
  O  O79  1  0.32556150  0.38317750  0.79392400  1
  O  O80  1  0.28997800  0.22301900  0.95186800  1
  O  O81  1  0.21002200  0.72301900  0.54813200  1
  O  O82  1  0.31758050  0.77779650  0.13799500  1
  O  O83  1  0.32556150  0.61682250  0.29392400  1
  O  O84  1  0.17443850  0.88317750  0.70607600  1
  O  O85  1  0.18241950  0.72220350  0.86200500  1
  O  O86  1  0.28997800  0.77698100  0.45186800  1
  O  O87  1  0.21002200  0.27698100  0.04813200  1
  O  O88  1  0.17443850  0.11682250  0.20607600  1
  O  O89  1  0.12933650  0.90170750  0.97181000  1
  O  O90  1  0.07246450  0.41110550  0.69878100  1
  O  O91  1  0.18241950  0.27779650  0.36200500  1
  O  O92  1  0.08800300  0.39785900  0.93458700  1
  O  O93  1  0.01049650  0.81337950  0.62529800  1
  O  O94  1  0.50000000  0.35465400  0.75000000  1
  O  O95  1  0.12933650  0.09829250  0.47181000  1
  O  O96  1  0.07246450  0.58889450  0.19878100  1
  O  O97  1  0.08800300  0.60214100  0.43458700  1
  O  O98  1  0.01049650  0.18662050  0.12529800  1
  O  O99  1  0.50000000  0.64534600  0.25000000  1
