# generated using pymatgen
data_BaYI5
_symmetry_space_group_name_H-M   'P 1'
_cell_length_a   13.92138000
_cell_length_b   11.74224300
_cell_length_c   20.30758156
_cell_angle_alpha   90.00000000
_cell_angle_beta   128.76512379
_cell_angle_gamma   90.00000000
_symmetry_Int_Tables_number   1
_chemical_formula_structural   BaYI5
_chemical_formula_sum   'Ba8 Y8 I40'
_cell_volume   2588.39055929
_cell_formula_units_Z   8
loop_
 _symmetry_equiv_pos_site_id
 _symmetry_equiv_pos_as_xyz
  1  'x, y, z'
loop_
 _atom_site_type_symbol
 _atom_site_label
 _atom_site_symmetry_multiplicity
 _atom_site_fract_x
 _atom_site_fract_y
 _atom_site_fract_z
 _atom_site_occupancy
  Ba  Ba0  1  0.33175700  0.28260600  0.13942800  1
  Ba  Ba1  1  0.79860400  0.26602500  0.53868000  1
  Ba  Ba2  1  0.66824300  0.78260600  0.36057200  1
  Ba  Ba3  1  0.20139600  0.76602500  0.96132000  1
  Ba  Ba4  1  0.79860400  0.23397500  0.03868000  1
  Ba  Ba5  1  0.33175700  0.21739400  0.63942800  1
  Ba  Ba6  1  0.20139600  0.73397500  0.46132000  1
  Ba  Ba7  1  0.66824300  0.71739400  0.86057200  1
  Y  Y8  1  0.21239900  0.80823800  0.19284100  1
  Y  Y9  1  0.79099100  0.77821100  0.66401900  1
  Y  Y10  1  0.20900900  0.27821100  0.83598100  1
  Y  Y11  1  0.78760100  0.30823800  0.30715900  1
  Y  Y12  1  0.21239900  0.69176200  0.69284100  1
  Y  Y13  1  0.79099100  0.72178900  0.16401900  1
  Y  Y14  1  0.20900900  0.22178900  0.33598100  1
  Y  Y15  1  0.78760100  0.19176200  0.80715900  1
  I  I16  1  0.41965900  0.76937400  0.37393800  1
  I  I17  1  0.00940300  0.18150000  0.99244300  1
  I  I18  1  0.44458200  0.21982100  0.36057800  1
  I  I19  1  0.28267900  0.60067500  0.14296700  1
  I  I20  1  0.90219800  0.63202800  0.81780600  1
  I  I21  1  0.88901400  0.97491100  0.79241800  1
  I  I22  1  0.37129400  0.95028900  0.16970800  1
  I  I23  1  0.73610100  0.58963800  0.54642800  1
  I  I24  1  0.72887300  0.95727700  0.53431200  1
  I  I25  1  0.93312500  0.31382100  0.76150300  1
  I  I26  1  0.62870600  0.45028900  0.33029200  1
  I  I27  1  0.06687500  0.81382100  0.73849700  1
  I  I28  1  0.27112700  0.45727700  0.96568800  1
  I  I29  1  0.26389900  0.08963800  0.95357200  1
  I  I30  1  0.71732100  0.10067500  0.35703300  1
  I  I31  1  0.55541800  0.71982100  0.13942200  1
  I  I32  1  0.11098600  0.47491100  0.70758200  1
  I  I33  1  0.09780200  0.13202800  0.68219400  1
  I  I34  1  0.58034100  0.26937400  0.12606200  1
  I  I35  1  0.99059700  0.68150000  0.50755700  1
  I  I36  1  0.00940300  0.31850000  0.49244300  1
  I  I37  1  0.41965900  0.73062600  0.87393800  1
  I  I38  1  0.90219800  0.86797200  0.31780600  1
  I  I39  1  0.88901400  0.52508900  0.29241800  1
  I  I40  1  0.44458200  0.28017900  0.86057800  1
  I  I41  1  0.28267900  0.89932500  0.64296700  1
  I  I42  1  0.73610100  0.91036200  0.04642800  1
  I  I43  1  0.72887300  0.54272300  0.03431200  1
  I  I44  1  0.93312500  0.18617900  0.26150300  1
  I  I45  1  0.37129400  0.54971100  0.66970800  1
  I  I46  1  0.06687500  0.68617900  0.23849700  1
  I  I47  1  0.27112700  0.04272300  0.46568800  1
  I  I48  1  0.26389900  0.41036200  0.45357200  1
  I  I49  1  0.62870600  0.04971100  0.83029200  1
  I  I50  1  0.11098600  0.02508900  0.20758200  1
  I  I51  1  0.09780200  0.36797200  0.18219400  1
  I  I52  1  0.71732100  0.39932500  0.85703300  1
  I  I53  1  0.55541800  0.78017900  0.63942200  1
  I  I54  1  0.99059700  0.81850000  0.00755700  1
  I  I55  1  0.58034100  0.23062600  0.62606200  1
