# generated using pymatgen
data_Mn2VFe3(PO4)6
_symmetry_space_group_name_H-M   'P 1'
_cell_length_a   8.64221409
_cell_length_b   8.64221409
_cell_length_c   21.10830216
_cell_angle_alpha   90.00000000
_cell_angle_beta   90.00000000
_cell_angle_gamma   120.00000000
_symmetry_Int_Tables_number   1
_chemical_formula_structural   Mn2VFe3(PO4)6
_chemical_formula_sum   'Mn6 V3 Fe9 P18 O72'
_cell_volume   1365.31850074
_cell_formula_units_Z   3
loop_
 _symmetry_equiv_pos_site_id
 _symmetry_equiv_pos_as_xyz
  1  'x, y, z'
loop_
 _atom_site_type_symbol
 _atom_site_label
 _atom_site_symmetry_multiplicity
 _atom_site_fract_x
 _atom_site_fract_y
 _atom_site_fract_z
 _atom_site_occupancy
  Mn  Mn0  1  0.33333333  0.66666667  0.66453367  1
  Mn  Mn1  1  0.33333333  0.66666667  0.16549267  1
  Mn  Mn2  1  0.00000000  0.00000000  0.99786700  1
  Mn  Mn3  1  0.00000000  0.00000000  0.49882600  1
  Mn  Mn4  1  0.66666667  0.33333333  0.33120033  1
  Mn  Mn5  1  0.66666667  0.33333333  0.83215933  1
  V  V6  1  0.33333333  0.66666667  0.81195067  1
  V  V7  1  0.00000000  0.00000000  0.14528400  1
  V  V8  1  0.66666667  0.33333333  0.47861733  1
  Fe  Fe9  1  0.33333333  0.66666667  0.31197267  1
  Fe  Fe10  1  0.33333333  0.66666667  0.52054067  1
  Fe  Fe11  1  0.33333333  0.66666667  0.02280967  1
  Fe  Fe12  1  0.00000000  0.00000000  0.64530600  1
  Fe  Fe13  1  0.00000000  0.00000000  0.85387400  1
  Fe  Fe14  1  0.00000000  0.00000000  0.35614300  1
  Fe  Fe15  1  0.66666667  0.33333333  0.97863933  1
  Fe  Fe16  1  0.66666667  0.33333333  0.18720733  1
  Fe  Fe17  1  0.66666667  0.33333333  0.68947633  1
  P  P18  1  0.70628467  0.70735833  0.25089133  1
  P  P19  1  0.29264167  0.99892633  0.25089133  1
  P  P20  1  0.00107367  0.29371533  0.25089133  1
  P  P21  1  0.66823667  0.04024233  0.08390433  1
  P  P22  1  0.37200567  0.33176333  0.08390433  1
  P  P23  1  0.95975767  0.62799433  0.08390433  1
  P  P24  1  0.37295133  0.04069167  0.58422467  1
  P  P25  1  0.95930833  0.33225967  0.58422467  1
  P  P26  1  0.66774033  0.62704867  0.58422467  1
  P  P27  1  0.33490333  0.37357567  0.41723767  1
  P  P28  1  0.03867233  0.66509667  0.41723767  1
  P  P29  1  0.62642433  0.96132767  0.41723767  1
  P  P30  1  0.03961800  0.37402500  0.91755800  1
  P  P31  1  0.62597500  0.66559300  0.91755800  1
  P  P32  1  0.33440700  0.96038200  0.91755800  1
  P  P33  1  0.00157000  0.70690900  0.75057100  1
  P  P34  1  0.70533900  0.99843000  0.75057100  1
  P  P35  1  0.29309100  0.29466100  0.75057100  1
  O  O36  1  0.52423500  0.66016100  0.97665600  1
  O  O37  1  0.33983900  0.86407400  0.97665600  1
  O  O38  1  0.13592600  0.47576500  0.97665600  1
  O  O39  1  0.68802367  0.52048733  0.25421433  1
  O  O40  1  0.15462633  0.48216067  0.85719667  1
  O  O41  1  0.52321467  0.69378933  0.24133333  1
  O  O42  1  0.47951267  0.16753633  0.25421433  1
  O  O43  1  0.30621067  0.82942533  0.24133333  1
  O  O44  1  0.67273533  0.13976267  0.14394467  1
  O  O45  1  0.17057467  0.47678533  0.24133333  1
  O  O46  1  0.83884700  0.01547900  0.08144700  1
  O  O47  1  0.46702733  0.32726467  0.14394467  1
  O  O48  1  0.51783933  0.67246567  0.85719667  1
  O  O49  1  0.83246367  0.31197633  0.25421433  1
  O  O50  1  0.50364033  0.84992367  0.08840767  1
  O  O51  1  0.32753433  0.84537367  0.85719667  1
  O  O52  1  0.34628333  0.49635967  0.08840767  1
  O  O53  1  0.17663200  0.16115300  0.08144700  1
  O  O54  1  0.15007633  0.65371667  0.08840767  1
  O  O55  1  0.86023733  0.53297267  0.14394467  1
  O  O56  1  0.98452100  0.82336800  0.08144700  1
  O  O57  1  0.52699967  0.87102733  0.35623533  1
  O  O58  1  0.34402767  0.47300033  0.35623533  1
  O  O59  1  0.12897267  0.65597233  0.35623533  1
  O  O60  1  0.19090167  0.99349433  0.30998933  1
  O  O61  1  0.00650567  0.19740733  0.30998933  1
  O  O62  1  0.80259267  0.80909833  0.30998933  1
  O  O63  1  0.35469033  0.85382067  0.58754767  1
  O  O64  1  0.82129300  0.81549400  0.19053000  1
  O  O65  1  0.18988133  0.02712267  0.57466667  1
  O  O66  1  0.14617933  0.50086967  0.58754767  1
  O  O67  1  0.97287733  0.16275867  0.57466667  1
  O  O68  1  0.33940200  0.47309600  0.47727800  1
  O  O69  1  0.83724133  0.81011867  0.57466667  1
  O  O70  1  0.50551367  0.34881233  0.41478033  1
  O  O71  1  0.13369400  0.66059800  0.47727800  1
  O  O72  1  0.18450600  0.00579900  0.19053000  1
  O  O73  1  0.49913033  0.64530967  0.58754767  1
  O  O74  1  0.17030700  0.18325700  0.42174100  1
  O  O75  1  0.99420100  0.17870700  0.19053000  1
  O  O76  1  0.01295000  0.82969300  0.42174100  1
  O  O77  1  0.84329867  0.49448633  0.41478033  1
  O  O78  1  0.81674300  0.98705000  0.42174100  1
  O  O79  1  0.52690400  0.86630600  0.47727800  1
  O  O80  1  0.65118767  0.15670133  0.41478033  1
  O  O81  1  0.19366633  0.20436067  0.68956867  1
  O  O82  1  0.01069433  0.80633367  0.68956867  1
  O  O83  1  0.79563933  0.98930567  0.68956867  1
  O  O84  1  0.85756833  0.32682767  0.64332267  1
  O  O85  1  0.67317233  0.53074067  0.64332267  1
  O  O86  1  0.46925933  0.14243167  0.64332267  1
  O  O87  1  0.02135700  0.18715400  0.92088100  1
  O  O88  1  0.48795967  0.14882733  0.52386333  1
  O  O89  1  0.85654800  0.36045600  0.90800000  1
  O  O90  1  0.81284600  0.83420300  0.92088100  1
  O  O91  1  0.63954400  0.49609200  0.90800000  1
  O  O92  1  0.00606867  0.80642933  0.81061133  1
  O  O93  1  0.50390800  0.14345200  0.90800000  1
  O  O94  1  0.17218033  0.68214567  0.74811367  1
  O  O95  1  0.80036067  0.99393133  0.81061133  1
  O  O96  1  0.85117267  0.33913233  0.52386333  1
  O  O97  1  0.16579700  0.97864300  0.92088100  1
  O  O98  1  0.83697367  0.51659033  0.75507433  1
  O  O99  1  0.66086767  0.51204033  0.52386333  1
  O  O100  1  0.67961667  0.16302633  0.75507433  1
  O  O101  1  0.50996533  0.82781967  0.74811367  1
  O  O102  1  0.48340967  0.32038333  0.75507433  1
  O  O103  1  0.19357067  0.19963933  0.81061133  1
  O  O104  1  0.31785433  0.49003467  0.74811367  1
  O  O105  1  0.86033300  0.53769400  0.02290200  1
  O  O106  1  0.67736100  0.13966700  0.02290200  1
  O  O107  1  0.46230600  0.32263900  0.02290200  1
