# generated using pymatgen
data_KNbO3
_symmetry_space_group_name_H-M   'P 1'
_cell_length_a   5.77391825
_cell_length_b   5.77391825
_cell_length_c   7.10922180
_cell_angle_alpha   90.00000000
_cell_angle_beta   90.00000000
_cell_angle_gamma   120.00000000
_symmetry_Int_Tables_number   1
_chemical_formula_structural   KNbO3
_chemical_formula_sum   'K3 Nb3 O9'
_cell_volume   205.25510016
_cell_formula_units_Z   3
loop_
 _symmetry_equiv_pos_site_id
 _symmetry_equiv_pos_as_xyz
  1  'x, y, z'
loop_
 _atom_site_type_symbol
 _atom_site_label
 _atom_site_symmetry_multiplicity
 _atom_site_fract_x
 _atom_site_fract_y
 _atom_site_fract_z
 _atom_site_occupancy
  K  K0  1  0.00000000  0.00000000  0.98701600  1
  K  K1  1  0.66666667  0.33333333  0.32034933  1
  K  K2  1  0.33333333  0.66666667  0.65368267  1
  Nb  Nb3  1  0.00000000  0.00000000  0.49994900  1
  Nb  Nb4  1  0.66666667  0.33333333  0.83328233  1
  Nb  Nb5  1  0.33333333  0.66666667  0.16661567  1
  O  O6  1  0.83471167  0.16528833  0.63551133  1
  O  O7  1  0.33057667  0.16528833  0.63551133  1
  O  O8  1  0.83471167  0.66942333  0.63551133  1
  O  O9  1  0.50137833  0.49862167  0.96884467  1
  O  O10  1  0.99724333  0.49862167  0.96884467  1
  O  O11  1  0.50137833  0.00275667  0.96884467  1
  O  O12  1  0.16804500  0.83195500  0.30217800  1
  O  O13  1  0.66391000  0.83195500  0.30217800  1
  O  O14  1  0.16804500  0.33609000  0.30217800  1
