# generated using pymatgen
data_Mn3(PO4)2
_symmetry_space_group_name_H-M   'P 1'
_cell_length_a   5.25589453
_cell_length_b   8.77435201
_cell_length_c   9.26854253
_cell_angle_alpha   90.00000000
_cell_angle_beta   121.62804198
_cell_angle_gamma   90.00000000
_symmetry_Int_Tables_number   1
_chemical_formula_structural   Mn3(PO4)2
_chemical_formula_sum   'Mn6 P4 O16'
_cell_volume   363.95080722
_cell_formula_units_Z   2
loop_
 _symmetry_equiv_pos_site_id
 _symmetry_equiv_pos_as_xyz
  1  'x, y, z'
loop_
 _atom_site_type_symbol
 _atom_site_label
 _atom_site_symmetry_multiplicity
 _atom_site_fract_x
 _atom_site_fract_y
 _atom_site_fract_z
 _atom_site_occupancy
  Mn  Mn0  1  0.50000000  0.00000000  0.50000000  1
  Mn  Mn1  1  0.47358150  0.35673100  0.38345950  1
  Mn  Mn2  1  0.52641850  0.64326900  0.61654050  1
  Mn  Mn3  1  0.50000000  0.50000000  0.00000000  1
  Mn  Mn4  1  0.52641850  0.85673100  0.11654050  1
  Mn  Mn5  1  0.47358150  0.14326900  0.88345950  1
  P  P6  1  0.16925150  0.80725800  0.70240250  1
  P  P7  1  0.83074850  0.30725800  0.79759750  1
  P  P8  1  0.16925150  0.69274200  0.20240250  1
  P  P9  1  0.83074850  0.19274200  0.29759750  1
  O  O10  1  0.31622050  0.91987000  0.85529450  1
  O  O11  1  0.68377950  0.41987000  0.64470550  1
  O  O12  1  0.31622050  0.58013000  0.35529450  1
  O  O13  1  0.68377950  0.08013000  0.14470550  1
  O  O14  1  0.69092450  0.35509000  0.23842350  1
  O  O15  1  0.30907550  0.85509000  0.26157650  1
  O  O16  1  0.69092450  0.14491000  0.73842350  1
  O  O17  1  0.30907550  0.64491000  0.76157650  1
  O  O18  1  0.17239750  0.30656700  0.87265050  1
  O  O19  1  0.82760250  0.80656700  0.62734950  1
  O  O20  1  0.17239750  0.19343300  0.37265050  1
  O  O21  1  0.82760250  0.69343300  0.12734950  1
  O  O22  1  0.75728150  0.14458700  0.43294850  1
  O  O23  1  0.24271850  0.64458700  0.06705150  1
  O  O24  1  0.75728150  0.35541300  0.93294850  1
  O  O25  1  0.24271850  0.85541300  0.56705150  1
