# generated using pymatgen
data_Mo2P4O15
_symmetry_space_group_name_H-M   'P 1'
_cell_length_a   8.51703300
_cell_length_b   8.97918700
_cell_length_c   9.52320142
_cell_angle_alpha   90.00000000
_cell_angle_beta   108.86368078
_cell_angle_gamma   90.00000000
_symmetry_Int_Tables_number   1
_chemical_formula_structural   Mo2P4O15
_chemical_formula_sum   'Mo4 P8 O30'
_cell_volume   689.18020464
_cell_formula_units_Z   2
loop_
 _symmetry_equiv_pos_site_id
 _symmetry_equiv_pos_as_xyz
  1  'x, y, z'
loop_
 _atom_site_type_symbol
 _atom_site_label
 _atom_site_symmetry_multiplicity
 _atom_site_fract_x
 _atom_site_fract_y
 _atom_site_fract_z
 _atom_site_occupancy
  Mo  Mo0  1  0.18911500  0.48699900  0.99730000  1
  Mo  Mo1  1  0.45446500  0.04631400  0.40275000  1
  Mo  Mo2  1  0.81088500  0.98699900  0.00270000  1
  Mo  Mo3  1  0.54553500  0.54631400  0.59725000  1
  P  P4  1  0.83192100  0.32644300  0.81021800  1
  P  P5  1  0.65673900  0.86554800  0.73647900  1
  P  P6  1  0.79552400  0.70826300  0.41546500  1
  P  P7  1  0.94452700  0.10595600  0.60390900  1
  P  P8  1  0.16807900  0.82644300  0.18978200  1
  P  P9  1  0.34326100  0.36554800  0.26352100  1
  P  P10  1  0.20447600  0.20826300  0.58453500  1
  P  P11  1  0.05547300  0.60595600  0.39609100  1
  O  O12  1  0.30243500  0.09457700  0.51404900  1
  O  O13  1  0.28537900  0.63364900  0.86247500  1
  O  O14  1  0.14522200  0.09659200  0.70175300  1
  O  O15  1  0.35173000  0.87801500  0.26269000  1
  O  O16  1  0.99716800  0.68988500  0.52770700  1
  O  O17  1  0.31895900  0.76978400  0.87413900  1
  O  O18  1  0.75870300  0.84751200  0.10076700  1
  O  O19  1  0.65677100  0.69472000  0.75985800  1
  O  O20  1  0.57615300  0.89453000  0.57083200  1
  O  O21  1  0.15680900  0.70621500  0.07427200  1
  O  O22  1  0.35454400  0.61525200  0.58569600  1
  O  O23  1  0.15241100  0.40933600  0.18465200  1
  O  O24  1  0.42048300  0.46343800  0.16691200  1
  O  O25  1  0.11270100  0.76225200  0.32271100  1
  O  O26  1  0.93968700  0.46472000  0.87335300  1
  O  O27  1  0.69756500  0.59457700  0.48595100  1
  O  O28  1  0.71462100  0.13364900  0.13752500  1
  O  O29  1  0.85477800  0.59659200  0.29824700  1
  O  O30  1  0.64827000  0.37801500  0.73731000  1
  O  O31  1  0.00283200  0.18988500  0.47229300  1
  O  O32  1  0.68104100  0.26978400  0.12586100  1
  O  O33  1  0.24129700  0.34751200  0.89923300  1
  O  O34  1  0.34322900  0.19472000  0.24014200  1
  O  O35  1  0.42384700  0.39453000  0.42916800  1
  O  O36  1  0.84319100  0.20621500  0.92572800  1
  O  O37  1  0.64545600  0.11525200  0.41430400  1
  O  O38  1  0.84758900  0.90933600  0.81534800  1
  O  O39  1  0.57951700  0.96343800  0.83308800  1
  O  O40  1  0.88729900  0.26225200  0.67728900  1
  O  O41  1  0.06031300  0.96472000  0.12664700  1
