# generated using pymatgen
data_NaCaAlH2OF6
_symmetry_space_group_name_H-M   'P 1'
_cell_length_a   12.22494800
_cell_length_b   10.54782800
_cell_length_c   10.04886500
_cell_angle_alpha   90.00000000
_cell_angle_beta   127.17578137
_cell_angle_gamma   90.00000000
_symmetry_Int_Tables_number   1
_chemical_formula_structural   NaCaAlH2OF6
_chemical_formula_sum   'Na8 Ca8 Al8 H16 O8 F48'
_cell_volume   1032.44860930
_cell_formula_units_Z   8
loop_
 _symmetry_equiv_pos_site_id
 _symmetry_equiv_pos_as_xyz
  1  'x, y, z'
loop_
 _atom_site_type_symbol
 _atom_site_label
 _atom_site_symmetry_multiplicity
 _atom_site_fract_x
 _atom_site_fract_y
 _atom_site_fract_z
 _atom_site_occupancy
  Na  Na0  1  0.61654200  0.87709900  0.99198500  1
  Na  Na1  1  0.11654200  0.62290100  0.49198500  1
  Na  Na2  1  0.38345800  0.87709900  0.50801500  1
  Na  Na3  1  0.88345800  0.62290100  0.00801500  1
  Na  Na4  1  0.11654200  0.37709900  0.99198500  1
  Na  Na5  1  0.61654200  0.12290100  0.49198500  1
  Na  Na6  1  0.88345800  0.37709900  0.50801500  1
  Na  Na7  1  0.38345800  0.12290100  0.00801500  1
  Ca  Ca8  1  0.00000000  0.92218100  0.25000000  1
  Ca  Ca9  1  0.50000000  0.57781900  0.75000000  1
  Ca  Ca10  1  0.00000000  0.32066000  0.25000000  1
  Ca  Ca11  1  0.50000000  0.17934000  0.75000000  1
  Ca  Ca12  1  0.50000000  0.42218100  0.25000000  1
  Ca  Ca13  1  0.00000000  0.07781900  0.75000000  1
  Ca  Ca14  1  0.50000000  0.82066000  0.25000000  1
  Ca  Ca15  1  0.00000000  0.67934000  0.75000000  1
  Al  Al16  1  0.27568900  0.87648100  0.74383500  1
  Al  Al17  1  0.77568900  0.62351900  0.24383500  1
  Al  Al18  1  0.72431100  0.87648100  0.75616500  1
  Al  Al19  1  0.22431100  0.62351900  0.25616500  1
  Al  Al20  1  0.77568900  0.37648100  0.74383500  1
  Al  Al21  1  0.27568900  0.12351900  0.24383500  1
  Al  Al22  1  0.22431100  0.37648100  0.75616500  1
  Al  Al23  1  0.72431100  0.12351900  0.25616500  1
  H  H24  1  0.38925150  0.61658050  0.97566300  1
  H  H25  1  0.88925150  0.88341950  0.47566300  1
  H  H26  1  0.30205600  0.61414900  0.04272500  1
  H  H27  1  0.30205600  0.38585100  0.54272500  1
  H  H28  1  0.61074850  0.61658050  0.52433700  1
  H  H29  1  0.11074850  0.88341950  0.02433700  1
  H  H30  1  0.19794400  0.11414900  0.45727500  1
  H  H31  1  0.19794400  0.88585100  0.95727500  1
  H  H32  1  0.88925150  0.11658050  0.97566300  1
  H  H33  1  0.38925150  0.38341950  0.47566300  1
  H  H34  1  0.80205600  0.11414900  0.04272500  1
  H  H35  1  0.80205600  0.88585100  0.54272500  1
  H  H36  1  0.11074850  0.11658050  0.52433700  1
  H  H37  1  0.61074850  0.38341950  0.02433700  1
  H  H38  1  0.69794400  0.61414900  0.45727500  1
  H  H39  1  0.69794400  0.38585100  0.95727500  1
  O  O40  1  0.39618600  0.62362200  0.07760900  1
  O  O41  1  0.89618600  0.87637800  0.57760900  1
  O  O42  1  0.60381400  0.62362200  0.42239100  1
  O  O43  1  0.10381400  0.87637800  0.92239100  1
  O  O44  1  0.89618600  0.12362200  0.07760900  1
  O  O45  1  0.39618600  0.37637800  0.57760900  1
  O  O46  1  0.10381400  0.12362200  0.42239100  1
  O  O47  1  0.60381400  0.37637800  0.92239100  1
  F  F48  1  0.33692500  0.74993200  0.28267600  1
  F  F49  1  0.33692500  0.25006800  0.78267600  1
  F  F50  1  0.09014450  0.73994750  0.20038600  1
  F  F51  1  0.59014450  0.76005250  0.70038600  1
  F  F52  1  0.19648050  0.86448150  0.52047900  1
  F  F53  1  0.69648050  0.63551850  0.02047900  1
  F  F54  1  0.35099050  0.89316750  0.96910100  1
  F  F55  1  0.35099050  0.10683250  0.46910100  1
  F  F56  1  0.15471900  0.99927000  0.20481300  1
  F  F57  1  0.15471900  0.00073000  0.70481300  1
  F  F58  1  0.89507000  0.50327700  0.27029300  1
  F  F59  1  0.39507000  0.99672300  0.77029300  1
  F  F60  1  0.16307500  0.24993200  0.21732400  1
  F  F61  1  0.16307500  0.75006800  0.71732400  1
  F  F62  1  0.90985550  0.73994750  0.29961400  1
  F  F63  1  0.40985550  0.76005250  0.79961400  1
  F  F64  1  0.80351950  0.86448150  0.97952100  1
  F  F65  1  0.30351950  0.63551850  0.47952100  1
  F  F66  1  0.14900950  0.39316750  0.53089900  1
  F  F67  1  0.14900950  0.60683250  0.03089900  1
  F  F68  1  0.34528100  0.49927000  0.29518700  1
  F  F69  1  0.34528100  0.50073000  0.79518700  1
  F  F70  1  0.10493000  0.50327700  0.22970700  1
  F  F71  1  0.60493000  0.99672300  0.72970700  1
  F  F72  1  0.83692500  0.24993200  0.28267600  1
  F  F73  1  0.83692500  0.75006800  0.78267600  1
  F  F74  1  0.59014450  0.23994750  0.20038600  1
  F  F75  1  0.09014450  0.26005250  0.70038600  1
  F  F76  1  0.69648050  0.36448150  0.52047900  1
  F  F77  1  0.19648050  0.13551850  0.02047900  1
  F  F78  1  0.85099050  0.39316750  0.96910100  1
  F  F79  1  0.85099050  0.60683250  0.46910100  1
  F  F80  1  0.65471900  0.49927000  0.20481300  1
  F  F81  1  0.65471900  0.50073000  0.70481300  1
  F  F82  1  0.39507000  0.00327700  0.27029300  1
  F  F83  1  0.89507000  0.49672300  0.77029300  1
  F  F84  1  0.66307500  0.74993200  0.21732400  1
  F  F85  1  0.66307500  0.25006800  0.71732400  1
  F  F86  1  0.40985550  0.23994750  0.29961400  1
  F  F87  1  0.90985550  0.26005250  0.79961400  1
  F  F88  1  0.30351950  0.36448150  0.97952100  1
  F  F89  1  0.80351950  0.13551850  0.47952100  1
  F  F90  1  0.64900950  0.89316750  0.53089900  1
  F  F91  1  0.64900950  0.10683250  0.03089900  1
  F  F92  1  0.84528100  0.99927000  0.29518700  1
  F  F93  1  0.84528100  0.00073000  0.79518700  1
  F  F94  1  0.60493000  0.00327700  0.22970700  1
  F  F95  1  0.10493000  0.49672300  0.72970700  1
