# generated using pymatgen
data_Ca4Ta2O9
_symmetry_space_group_name_H-M   'P 1'
_cell_length_a   9.90674800
_cell_length_b   5.57809500
_cell_length_c   17.22663488
_cell_angle_alpha   90.00000000
_cell_angle_beta   124.13423950
_cell_angle_gamma   90.00000000
_symmetry_Int_Tables_number   1
_chemical_formula_structural   Ca4Ta2O9
_chemical_formula_sum   'Ca16 Ta8 O36'
_cell_volume   787.95900707
_cell_formula_units_Z   4
loop_
 _symmetry_equiv_pos_site_id
 _symmetry_equiv_pos_as_xyz
  1  'x, y, z'
loop_
 _atom_site_type_symbol
 _atom_site_label
 _atom_site_symmetry_multiplicity
 _atom_site_fract_x
 _atom_site_fract_y
 _atom_site_fract_z
 _atom_site_occupancy
  Ca  Ca0  1  0.50000000  0.00000000  0.50000000  1
  Ca  Ca1  1  0.00000000  0.00000000  0.00000000  1
  Ca  Ca2  1  0.78501900  0.00210900  0.77003300  1
  Ca  Ca3  1  0.54773100  0.51802900  0.39474500  1
  Ca  Ca4  1  0.12057200  0.48328600  0.92698200  1
  Ca  Ca5  1  0.87942800  0.98328600  0.57301800  1
  Ca  Ca6  1  0.45226900  0.01802900  0.10525500  1
  Ca  Ca7  1  0.21498100  0.50210900  0.72996700  1
  Ca  Ca8  1  0.00000000  0.50000000  0.50000000  1
  Ca  Ca9  1  0.78501900  0.49789100  0.27003300  1
  Ca  Ca10  1  0.50000000  0.50000000  0.00000000  1
  Ca  Ca11  1  0.54773100  0.98197100  0.89474500  1
  Ca  Ca12  1  0.12057200  0.01671400  0.42698200  1
  Ca  Ca13  1  0.87942800  0.51671400  0.07301800  1
  Ca  Ca14  1  0.45226900  0.48197100  0.60525500  1
  Ca  Ca15  1  0.21498100  0.99789100  0.22996700  1
  Ta  Ta16  1  0.32591800  0.50881800  0.16409200  1
  Ta  Ta17  1  0.83145300  0.49018700  0.66367400  1
  Ta  Ta18  1  0.67408200  0.00881800  0.33590800  1
  Ta  Ta19  1  0.16854700  0.99018700  0.83632600  1
  Ta  Ta20  1  0.83145300  0.00981300  0.16367400  1
  Ta  Ta21  1  0.32591800  0.99118200  0.66409200  1
  Ta  Ta22  1  0.16854700  0.50981300  0.33632600  1
  Ta  Ta23  1  0.67408200  0.49118200  0.83590800  1
  O  O24  1  0.27621600  0.40951400  0.26504200  1
  O  O25  1  0.12185600  0.67897100  0.10104800  1
  O  O26  1  0.69868900  0.20272500  0.62898400  1
  O  O27  1  0.67135900  0.66980600  0.55300800  1
  O  O28  1  0.23606600  0.21100300  0.09653200  1
  O  O29  1  0.05681400  0.88297800  0.89349000  1
  O  O30  1  0.62237700  0.11503300  0.42370100  1
  O  O31  1  0.45377300  0.80295300  0.24975500  1
  O  O32  1  0.02032800  0.28976200  0.78209800  1
  O  O33  1  0.97967200  0.78976200  0.71790200  1
  O  O34  1  0.54622700  0.30295300  0.25024500  1
  O  O35  1  0.37762300  0.61503300  0.07629900  1
  O  O36  1  0.94318600  0.38297800  0.60651000  1
  O  O37  1  0.76393400  0.71100300  0.40346800  1
  O  O38  1  0.32864100  0.16980600  0.94699200  1
  O  O39  1  0.30131100  0.70272500  0.87101600  1
  O  O40  1  0.87814400  0.17897100  0.39895200  1
  O  O41  1  0.72378400  0.90951400  0.23495800  1
  O  O42  1  0.27621600  0.09048600  0.76504200  1
  O  O43  1  0.12185600  0.82102900  0.60104800  1
  O  O44  1  0.69868900  0.29727500  0.12898400  1
  O  O45  1  0.67135900  0.83019400  0.05300800  1
  O  O46  1  0.23606600  0.28899700  0.59653200  1
  O  O47  1  0.05681400  0.61702200  0.39349000  1
  O  O48  1  0.62237700  0.38496700  0.92370100  1
  O  O49  1  0.45377300  0.69704700  0.74975500  1
  O  O50  1  0.02032800  0.21023800  0.28209800  1
  O  O51  1  0.97967200  0.71023800  0.21790200  1
  O  O52  1  0.54622700  0.19704700  0.75024500  1
  O  O53  1  0.37762300  0.88496700  0.57629900  1
  O  O54  1  0.94318600  0.11702200  0.10651000  1
  O  O55  1  0.76393400  0.78899700  0.90346800  1
  O  O56  1  0.32864100  0.33019400  0.44699200  1
  O  O57  1  0.30131100  0.79727500  0.37101600  1
  O  O58  1  0.87814400  0.32102900  0.89895200  1
  O  O59  1  0.72378400  0.59048600  0.73495800  1
