# generated using pymatgen
data_KTa2PO8
_symmetry_space_group_name_H-M   'P 1'
_cell_length_a   13.34487671
_cell_length_b   13.34487671
_cell_length_c   10.51278525
_cell_angle_alpha   90.00000000
_cell_angle_beta   90.00000000
_cell_angle_gamma   120.00000000
_symmetry_Int_Tables_number   1
_chemical_formula_structural   KTa2PO8
_chemical_formula_sum   'K9 Ta18 P9 O72'
_cell_volume   1621.35291389
_cell_formula_units_Z   9
loop_
 _symmetry_equiv_pos_site_id
 _symmetry_equiv_pos_as_xyz
  1  'x, y, z'
loop_
 _atom_site_type_symbol
 _atom_site_label
 _atom_site_symmetry_multiplicity
 _atom_site_fract_x
 _atom_site_fract_y
 _atom_site_fract_z
 _atom_site_occupancy
  K  K0  1  0.69631433  0.00321367  0.60463867  1
  K  K1  1  0.99678633  0.69310067  0.60463867  1
  K  K2  1  0.30689933  0.30368567  0.60463867  1
  K  K3  1  0.36298100  0.33654700  0.93797200  1
  K  K4  1  0.66345300  0.02643400  0.93797200  1
  K  K5  1  0.97356600  0.63701900  0.93797200  1
  K  K6  1  0.02964767  0.66988033  0.27130533  1
  K  K7  1  0.33011967  0.35976733  0.27130533  1
  K  K8  1  0.64023267  0.97035233  0.27130533  1
  Ta  Ta9  1  0.85201967  0.83086533  0.18233833  1
  Ta  Ta10  1  0.97884567  0.14798033  0.18233833  1
  Ta  Ta11  1  0.83089133  0.85177167  0.81888167  1
  Ta  Ta12  1  0.16913467  0.02115433  0.18233833  1
  Ta  Ta13  1  0.02088033  0.16910867  0.81888167  1
  Ta  Ta14  1  0.14822833  0.97911967  0.81888167  1
  Ta  Ta15  1  0.51868633  0.16419867  0.51567167  1
  Ta  Ta16  1  0.64551233  0.48131367  0.51567167  1
  Ta  Ta17  1  0.49755800  0.18510500  0.15221500  1
  Ta  Ta18  1  0.83580133  0.35448767  0.51567167  1
  Ta  Ta19  1  0.68754700  0.50244200  0.15221500  1
  Ta  Ta20  1  0.81489500  0.31245300  0.15221500  1
  Ta  Ta21  1  0.18535300  0.49753200  0.84900500  1
  Ta  Ta22  1  0.31217900  0.81464700  0.84900500  1
  Ta  Ta23  1  0.16422467  0.51843833  0.48554833  1
  Ta  Ta24  1  0.50246800  0.68782100  0.84900500  1
  Ta  Ta25  1  0.35421367  0.83577533  0.48554833  1
  Ta  Ta26  1  0.48156167  0.64578633  0.48554833  1
  P  P27  1  0.77622500  0.77652100  0.49978000  1
  P  P28  1  0.00029600  0.22377500  0.49978000  1
  P  P29  1  0.22347900  0.99970400  0.49978000  1
  P  P30  1  0.44289167  0.10985433  0.83311333  1
  P  P31  1  0.66696267  0.55710833  0.83311333  1
  P  P32  1  0.89014567  0.33303733  0.83311333  1
  P  P33  1  0.10955833  0.44318767  0.16644667  1
  P  P34  1  0.33362933  0.89044167  0.16644667  1
  P  P35  1  0.55681233  0.66637067  0.16644667  1
  O  O36  1  0.52529733  0.52534067  0.49939067  1
  O  O37  1  0.33316267  0.81998833  0.66667533  1
  O  O38  1  0.65723967  0.76682933  0.47375133  1
  O  O39  1  0.86798033  0.98802867  0.19560667  1
  O  O40  1  0.48682567  0.66683733  0.66667533  1
  O  O41  1  0.76638867  0.65756333  0.52660033  1
  O  O42  1  0.85302700  0.82847600  0.38111600  1
  O  O43  1  0.82832433  0.85364267  0.61820467  1
  O  O44  1  0.01197133  0.87995167  0.19560667  1
  O  O45  1  0.89117467  0.23361133  0.52660033  1
  O  O46  1  0.97544900  0.14697300  0.38111600  1
  O  O47  1  0.12004833  0.13201967  0.19560667  1
  O  O48  1  0.00004333  0.47470267  0.49939067  1
  O  O49  1  0.87919400  0.01183800  0.80381100  1
  O  O50  1  0.02531833  0.17167567  0.61820467  1
  O  O51  1  0.10958967  0.34276033  0.47375133  1
  O  O52  1  0.98816200  0.86735600  0.80381100  1
  O  O53  1  0.17152400  0.02455100  0.38111600  1
  O  O54  1  0.14635733  0.97468167  0.61820467  1
  O  O55  1  0.23317067  0.89041033  0.47375133  1
  O  O56  1  0.13264400  0.12080600  0.80381100  1
  O  O57  1  0.34243667  0.10882533  0.52660033  1
  O  O58  1  0.18001167  0.51317433  0.66667533  1
  O  O59  1  0.47465933  0.99995667  0.49939067  1
  O  O60  1  0.19196400  0.85867400  0.83272400  1
  O  O61  1  0.99982933  0.15332167  0.00000867  1
  O  O62  1  0.32390633  0.10016267  0.80708467  1
  O  O63  1  0.53464700  0.32136200  0.52894000  1
  O  O64  1  0.15349233  0.00017067  0.00000867  1
  O  O65  1  0.43305533  0.99089667  0.85993367  1
  O  O66  1  0.51969367  0.16180933  0.71444933  1
  O  O67  1  0.49499100  0.18697600  0.95153800  1
  O  O68  1  0.67863800  0.21328500  0.52894000  1
  O  O69  1  0.55784133  0.56694467  0.85993367  1
  O  O70  1  0.64211567  0.48030633  0.71444933  1
  O  O71  1  0.78671500  0.46535300  0.52894000  1
  O  O72  1  0.66671000  0.80803600  0.83272400  1
  O  O73  1  0.54586067  0.34517133  0.13714433  1
  O  O74  1  0.69198500  0.50500900  0.95153800  1
  O  O75  1  0.77625633  0.67609367  0.80708467  1
  O  O76  1  0.65482867  0.20068933  0.13714433  1
  O  O77  1  0.83819067  0.35788433  0.71444933  1
  O  O78  1  0.81302400  0.30801500  0.95153800  1
  O  O79  1  0.89983733  0.22374367  0.80708467  1
  O  O80  1  0.79931067  0.45413933  0.13714433  1
  O  O81  1  0.00910333  0.44215867  0.85993367  1
  O  O82  1  0.84667833  0.84650767  0.00000867  1
  O  O83  1  0.14132600  0.33329000  0.83272400  1
  O  O84  1  0.85863067  0.19200733  0.16605733  1
  O  O85  1  0.66649600  0.48665500  0.33334200  1
  O  O86  1  0.99057300  0.43349600  0.14041800  1
  O  O87  1  0.20131367  0.65469533  0.86227333  1
  O  O88  1  0.82015900  0.33350400  0.33334200  1
  O  O89  1  0.09972200  0.32423000  0.19326700  1
  O  O90  1  0.18636033  0.49514267  0.04778267  1
  O  O91  1  0.16165767  0.52030933  0.28487133  1
  O  O92  1  0.34530467  0.54661833  0.86227333  1
  O  O93  1  0.22450800  0.90027800  0.19326700  1
  O  O94  1  0.30878233  0.81363967  0.04778267  1
  O  O95  1  0.45338167  0.79868633  0.86227333  1
  O  O96  1  0.33337667  0.14136933  0.16605733  1
  O  O97  1  0.21252733  0.67850467  0.47047767  1
  O  O98  1  0.35865167  0.83834233  0.28487133  1
  O  O99  1  0.44292300  0.00942700  0.14041800  1
  O  O100  1  0.32149533  0.53402267  0.47047767  1
  O  O101  1  0.50485733  0.69121767  0.04778267  1
  O  O102  1  0.47969067  0.64134833  0.28487133  1
  O  O103  1  0.56650400  0.55707700  0.14041800  1
  O  O104  1  0.46597733  0.78747267  0.47047767  1
  O  O105  1  0.67577000  0.77549200  0.19326700  1
  O  O106  1  0.51334500  0.17984100  0.33334200  1
  O  O107  1  0.80799267  0.66662333  0.16605733  1
