# generated using pymatgen
data_WN2
_symmetry_space_group_name_H-M   'P 1'
_cell_length_a   6.05683700
_cell_length_b   10.68110400
_cell_length_c   11.66953169
_cell_angle_alpha   90.00000000
_cell_angle_beta   113.02699594
_cell_angle_gamma   90.00000000
_symmetry_Int_Tables_number   1
_chemical_formula_structural   WN2
_chemical_formula_sum   'W12 N24'
_cell_volume   694.79170497
_cell_formula_units_Z   12
loop_
 _symmetry_equiv_pos_site_id
 _symmetry_equiv_pos_as_xyz
  1  'x, y, z'
loop_
 _atom_site_type_symbol
 _atom_site_label
 _atom_site_symmetry_multiplicity
 _atom_site_fract_x
 _atom_site_fract_y
 _atom_site_fract_z
 _atom_site_occupancy
  W  W0  1  0.24902900  0.68222900  0.58825400  1
  W  W1  1  0.41544100  0.99530500  0.69642800  1
  W  W2  1  0.88379100  0.34672000  0.17465000  1
  W  W3  1  0.11620900  0.84672000  0.32535000  1
  W  W4  1  0.58455900  0.49530500  0.80357200  1
  W  W5  1  0.75097100  0.18222900  0.91174600  1
  W  W6  1  0.24902900  0.81777100  0.08825400  1
  W  W7  1  0.41544100  0.50469500  0.19642800  1
  W  W8  1  0.88379100  0.15328000  0.67465000  1
  W  W9  1  0.11620900  0.65328000  0.82535000  1
  W  W10  1  0.58455900  0.00469500  0.30357200  1
  W  W11  1  0.75097100  0.31777100  0.41174600  1
  N  N12  1  0.57394600  0.32325700  0.83731300  1
  N  N13  1  0.42413100  0.58309400  0.88610500  1
  N  N14  1  0.12336600  0.69951400  0.41385100  1
  N  N15  1  0.55810600  0.03722600  0.86446900  1
  N  N16  1  0.90195300  0.95379600  0.35429900  1
  N  N17  1  0.98935700  0.32021300  0.34707200  1
  N  N18  1  0.44189400  0.53722600  0.63553100  1
  N  N19  1  0.09804700  0.45379600  0.14570100  1
  N  N20  1  0.01064300  0.82021300  0.15292800  1
  N  N21  1  0.57586900  0.08309400  0.61389500  1
  N  N22  1  0.87663400  0.19951400  0.08614900  1
  N  N23  1  0.42605400  0.82325700  0.66268700  1
  N  N24  1  0.57394600  0.17674300  0.33731300  1
  N  N25  1  0.90195300  0.54620400  0.85429900  1
  N  N26  1  0.12336600  0.80048600  0.91385100  1
  N  N27  1  0.55810600  0.46277400  0.36446900  1
  N  N28  1  0.42413100  0.91690600  0.38610500  1
  N  N29  1  0.98935700  0.17978700  0.84707200  1
  N  N30  1  0.01064300  0.67978700  0.65292800  1
  N  N31  1  0.44189400  0.96277400  0.13553100  1
  N  N32  1  0.09804700  0.04620400  0.64570100  1
  N  N33  1  0.57586900  0.41690600  0.11389500  1
  N  N34  1  0.87663400  0.30048600  0.58614900  1
  N  N35  1  0.42605400  0.67674300  0.16268700  1
