# generated using pymatgen
data_Li4Fe3SbO8
_symmetry_space_group_name_H-M   'P 1'
_cell_length_a   10.46817400
_cell_length_b   6.11252800
_cell_length_c   6.10102882
_cell_angle_alpha   90.00000000
_cell_angle_beta   124.13398875
_cell_angle_gamma   90.00000000
_symmetry_Int_Tables_number   1
_chemical_formula_structural   Li4Fe3SbO8
_chemical_formula_sum   'Li8 Fe6 Sb2 O16'
_cell_volume   323.13374388
_cell_formula_units_Z   2
loop_
 _symmetry_equiv_pos_site_id
 _symmetry_equiv_pos_as_xyz
  1  'x, y, z'
loop_
 _atom_site_type_symbol
 _atom_site_label
 _atom_site_symmetry_multiplicity
 _atom_site_fract_x
 _atom_site_fract_y
 _atom_site_fract_z
 _atom_site_occupancy
  Li  Li0  1  0.50000000  0.00000000  0.00000000  1
  Li  Li1  1  0.25000000  0.25000000  0.50000000  1
  Li  Li2  1  0.00000000  0.00000000  0.00000000  1
  Li  Li3  1  0.25000000  0.75000000  0.50000000  1
  Li  Li4  1  0.00000000  0.50000000  0.00000000  1
  Li  Li5  1  0.75000000  0.75000000  0.50000000  1
  Li  Li6  1  0.50000000  0.50000000  0.00000000  1
  Li  Li7  1  0.75000000  0.25000000  0.50000000  1
  Fe  Fe8  1  0.25000000  0.75000000  0.00000000  1
  Fe  Fe9  1  0.50000000  0.00000000  0.50000000  1
  Fe  Fe10  1  0.25000000  0.25000000  0.00000000  1
  Fe  Fe11  1  0.75000000  0.25000000  0.00000000  1
  Fe  Fe12  1  0.00000000  0.50000000  0.50000000  1
  Fe  Fe13  1  0.75000000  0.75000000  0.00000000  1
  Sb  Sb14  1  0.00000000  0.00000000  0.50000000  1
  Sb  Sb15  1  0.50000000  0.50000000  0.50000000  1
  O  O16  1  0.26727200  0.00000000  0.25041300  1
  O  O17  1  0.49621350  0.74210950  0.72727300  1
  O  O18  1  0.76906800  0.00000000  0.27169400  1
  O  O19  1  0.73272800  0.00000000  0.74958700  1
  O  O20  1  0.49621350  0.25789050  0.72727300  1
  O  O21  1  0.50378650  0.25789050  0.27272700  1
  O  O22  1  0.23093200  0.00000000  0.72830600  1
  O  O23  1  0.50378650  0.74210950  0.27272700  1
  O  O24  1  0.76727200  0.50000000  0.25041300  1
  O  O25  1  0.99621350  0.24210950  0.72727300  1
  O  O26  1  0.26906800  0.50000000  0.27169400  1
  O  O27  1  0.23272800  0.50000000  0.74958700  1
  O  O28  1  0.99621350  0.75789050  0.72727300  1
  O  O29  1  0.00378650  0.75789050  0.27272700  1
  O  O30  1  0.73093200  0.50000000  0.72830600  1
  O  O31  1  0.00378650  0.24210950  0.27272700  1
