# generated using pymatgen
data_Ba6YCl15
_symmetry_space_group_name_H-M   'P 1'
_cell_length_a   15.07435000
_cell_length_b   15.59274000
_cell_length_c   31.05594640
_cell_angle_alpha   90.00000000
_cell_angle_beta   90.08528152
_cell_angle_gamma   90.00000000
_symmetry_Int_Tables_number   1
_chemical_formula_structural   Ba6YCl15
_chemical_formula_sum   'Ba48 Y8 Cl120'
_cell_volume   7299.70516588
_cell_formula_units_Z   8
loop_
 _symmetry_equiv_pos_site_id
 _symmetry_equiv_pos_as_xyz
  1  'x, y, z'
loop_
 _atom_site_type_symbol
 _atom_site_label
 _atom_site_symmetry_multiplicity
 _atom_site_fract_x
 _atom_site_fract_y
 _atom_site_fract_z
 _atom_site_occupancy
  Ba  Ba0  1  0.98611200  0.01042000  0.88656300  1
  Ba  Ba1  1  0.98611200  0.98958000  0.38656300  1
  Ba  Ba2  1  0.30370550  0.75660950  0.86227800  1
  Ba  Ba3  1  0.78853700  0.02732500  0.75687400  1
  Ba  Ba4  1  0.30370550  0.24339050  0.36227800  1
  Ba  Ba5  1  0.78853700  0.97267500  0.25687400  1
  Ba  Ba6  1  0.73746900  0.81988400  0.87204200  1
  Ba  Ba7  1  0.72442950  0.05316950  0.97726600  1
  Ba  Ba8  1  0.73746900  0.18011600  0.37204200  1
  Ba  Ba9  1  0.72442950  0.94683050  0.47726600  1
  Ba  Ba10  1  0.53382850  0.07464450  0.85349800  1
  Ba  Ba11  1  0.53382850  0.92535550  0.35349800  1
  Ba  Ba12  1  0.46617150  0.07464450  0.64650200  1
  Ba  Ba13  1  0.46617150  0.92535550  0.14650200  1
  Ba  Ba14  1  0.27557050  0.05316950  0.52273400  1
  Ba  Ba15  1  0.26253100  0.81988400  0.62795800  1
  Ba  Ba16  1  0.27557050  0.94683050  0.02273400  1
  Ba  Ba17  1  0.26253100  0.18011600  0.12795800  1
  Ba  Ba18  1  0.21146300  0.02732500  0.74312600  1
  Ba  Ba19  1  0.69629450  0.75660950  0.63772200  1
  Ba  Ba20  1  0.21146300  0.97267500  0.24312600  1
  Ba  Ba21  1  0.69629450  0.24339050  0.13772200  1
  Ba  Ba22  1  0.01388800  0.01042000  0.61343700  1
  Ba  Ba23  1  0.01388800  0.98958000  0.11343700  1
  Ba  Ba24  1  0.48611200  0.51042000  0.88656300  1
  Ba  Ba25  1  0.48611200  0.48958000  0.38656300  1
  Ba  Ba26  1  0.80370550  0.25660950  0.86227800  1
  Ba  Ba27  1  0.28853700  0.52732500  0.75687400  1
  Ba  Ba28  1  0.80370550  0.74339050  0.36227800  1
  Ba  Ba29  1  0.28853700  0.47267500  0.25687400  1
  Ba  Ba30  1  0.23746900  0.31988400  0.87204200  1
  Ba  Ba31  1  0.22442950  0.55316950  0.97726600  1
  Ba  Ba32  1  0.23746900  0.68011600  0.37204200  1
  Ba  Ba33  1  0.22442950  0.44683050  0.47726600  1
  Ba  Ba34  1  0.03382850  0.57464450  0.85349800  1
  Ba  Ba35  1  0.03382850  0.42535550  0.35349800  1
  Ba  Ba36  1  0.96617150  0.57464450  0.64650200  1
  Ba  Ba37  1  0.96617150  0.42535550  0.14650200  1
  Ba  Ba38  1  0.77557050  0.55316950  0.52273400  1
  Ba  Ba39  1  0.76253100  0.31988400  0.62795800  1
  Ba  Ba40  1  0.77557050  0.44683050  0.02273400  1
  Ba  Ba41  1  0.76253100  0.68011600  0.12795800  1
  Ba  Ba42  1  0.71146300  0.52732500  0.74312600  1
  Ba  Ba43  1  0.19629450  0.25660950  0.63772200  1
  Ba  Ba44  1  0.71146300  0.47267500  0.24312600  1
  Ba  Ba45  1  0.19629450  0.74339050  0.13772200  1
  Ba  Ba46  1  0.51388800  0.51042000  0.61343700  1
  Ba  Ba47  1  0.51388800  0.48958000  0.11343700  1
  Y  Y48  1  0.72783000  0.02427000  0.61342300  1
  Y  Y49  1  0.72783000  0.97573000  0.11342300  1
  Y  Y50  1  0.27217000  0.02427000  0.88657700  1
  Y  Y51  1  0.27217000  0.97573000  0.38657700  1
  Y  Y52  1  0.22783000  0.52427000  0.61342300  1
  Y  Y53  1  0.22783000  0.47573000  0.11342300  1
  Y  Y54  1  0.77217000  0.52427000  0.88657700  1
  Y  Y55  1  0.77217000  0.47573000  0.38657700  1
  Cl  Cl56  1  0.85322500  0.97656900  0.55438200  1
  Cl  Cl57  1  0.85322500  0.02343100  0.05438200  1
  Cl  Cl58  1  0.84341850  0.94063650  0.66862500  1
  Cl  Cl59  1  0.84796750  0.90916350  0.94041300  1
  Cl  Cl60  1  0.84341850  0.05936350  0.16862500  1
  Cl  Cl61  1  0.84796750  0.09083650  0.44041300  1
  Cl  Cl62  1  0.65518400  0.88969900  0.56672500  1
  Cl  Cl63  1  0.67565000  0.16969000  0.79722400  1
  Cl  Cl64  1  0.65518400  0.11030100  0.06672500  1
  Cl  Cl65  1  0.64187150  0.64870350  0.88235800  1
  Cl  Cl66  1  0.67565000  0.83031000  0.29722400  1
  Cl  Cl67  1  0.61630250  0.93577450  0.66913700  1
  Cl  Cl68  1  0.64187150  0.35129650  0.38235800  1
  Cl  Cl69  1  0.64256050  0.18900050  0.91511600  1
  Cl  Cl70  1  0.64232400  0.93120100  0.80298900  1
  Cl  Cl71  1  0.62199850  0.11136150  0.56450900  1
  Cl  Cl72  1  0.61758550  0.64787450  0.56489900  1
  Cl  Cl73  1  0.11335950  0.89971950  0.68180600  1
  Cl  Cl74  1  0.61630250  0.06422550  0.16913700  1
  Cl  Cl75  1  0.64256050  0.81099950  0.41511600  1
  Cl  Cl76  1  0.64232400  0.06879900  0.30298900  1
  Cl  Cl77  1  0.62199850  0.88863850  0.06450900  1
  Cl  Cl78  1  0.61758550  0.35212550  0.06489900  1
  Cl  Cl79  1  0.11335950  0.10028050  0.18180600  1
  Cl  Cl80  1  0.66705350  0.14223150  0.67426200  1
  Cl  Cl81  1  0.60616500  0.94407300  0.91898400  1
  Cl  Cl82  1  0.57598150  0.63227150  0.68897900  1
  Cl  Cl83  1  0.66705350  0.85776850  0.17426200  1
  Cl  Cl84  1  0.60616500  0.05592700  0.41898400  1
  Cl  Cl85  1  0.57598150  0.36772850  0.18897900  1
  Cl  Cl86  1  0.42401850  0.63227150  0.81102100  1
  Cl  Cl87  1  0.39383500  0.94407300  0.58101600  1
  Cl  Cl88  1  0.33294650  0.14223150  0.82573800  1
  Cl  Cl89  1  0.42401850  0.36772850  0.31102100  1
  Cl  Cl90  1  0.39383500  0.05592700  0.08101600  1
  Cl  Cl91  1  0.33294650  0.85776850  0.32573800  1
  Cl  Cl92  1  0.88664050  0.89971950  0.81819400  1
  Cl  Cl93  1  0.38241450  0.64787450  0.93510100  1
  Cl  Cl94  1  0.37800150  0.11136150  0.93549100  1
  Cl  Cl95  1  0.35767600  0.93120100  0.69701100  1
  Cl  Cl96  1  0.35743950  0.18900050  0.58488400  1
  Cl  Cl97  1  0.38369750  0.93577450  0.83086300  1
  Cl  Cl98  1  0.88664050  0.10028050  0.31819400  1
  Cl  Cl99  1  0.38241450  0.35212550  0.43510100  1
  Cl  Cl100  1  0.37800150  0.88863850  0.43549100  1
  Cl  Cl101  1  0.35767600  0.06879900  0.19701100  1
  Cl  Cl102  1  0.35743950  0.81099950  0.08488400  1
  Cl  Cl103  1  0.35812850  0.64870350  0.61764200  1
  Cl  Cl104  1  0.38369750  0.06422550  0.33086300  1
  Cl  Cl105  1  0.32435000  0.16969000  0.70277600  1
  Cl  Cl106  1  0.35812850  0.35129650  0.11764200  1
  Cl  Cl107  1  0.34481600  0.88969900  0.93327500  1
  Cl  Cl108  1  0.32435000  0.83031000  0.20277600  1
  Cl  Cl109  1  0.34481600  0.11030100  0.43327500  1
  Cl  Cl110  1  0.15203250  0.90916350  0.55958700  1
  Cl  Cl111  1  0.15658150  0.94063650  0.83137500  1
  Cl  Cl112  1  0.15203250  0.09083650  0.05958700  1
  Cl  Cl113  1  0.15658150  0.05936350  0.33137500  1
  Cl  Cl114  1  0.14677500  0.97656900  0.94561800  1
  Cl  Cl115  1  0.14677500  0.02343100  0.44561800  1
  Cl  Cl116  1  0.35322500  0.47656900  0.55438200  1
  Cl  Cl117  1  0.35322500  0.52343100  0.05438200  1
  Cl  Cl118  1  0.34341850  0.44063650  0.66862500  1
  Cl  Cl119  1  0.34796750  0.40916350  0.94041300  1
  Cl  Cl120  1  0.34341850  0.55936350  0.16862500  1
  Cl  Cl121  1  0.34796750  0.59083650  0.44041300  1
  Cl  Cl122  1  0.15518400  0.38969900  0.56672500  1
  Cl  Cl123  1  0.17565000  0.66969000  0.79722400  1
  Cl  Cl124  1  0.15518400  0.61030100  0.06672500  1
  Cl  Cl125  1  0.14187150  0.14870350  0.88235800  1
  Cl  Cl126  1  0.17565000  0.33031000  0.29722400  1
  Cl  Cl127  1  0.11630250  0.43577450  0.66913700  1
  Cl  Cl128  1  0.14187150  0.85129650  0.38235800  1
  Cl  Cl129  1  0.14256050  0.68900050  0.91511600  1
  Cl  Cl130  1  0.14232400  0.43120100  0.80298900  1
  Cl  Cl131  1  0.12199850  0.61136150  0.56450900  1
  Cl  Cl132  1  0.11758550  0.14787450  0.56489900  1
  Cl  Cl133  1  0.61335950  0.39971950  0.68180600  1
  Cl  Cl134  1  0.11630250  0.56422550  0.16913700  1
  Cl  Cl135  1  0.14256050  0.31099950  0.41511600  1
  Cl  Cl136  1  0.14232400  0.56879900  0.30298900  1
  Cl  Cl137  1  0.12199850  0.38863850  0.06450900  1
  Cl  Cl138  1  0.11758550  0.85212550  0.06489900  1
  Cl  Cl139  1  0.61335950  0.60028050  0.18180600  1
  Cl  Cl140  1  0.16705350  0.64223150  0.67426200  1
  Cl  Cl141  1  0.10616500  0.44407300  0.91898400  1
  Cl  Cl142  1  0.07598150  0.13227150  0.68897900  1
  Cl  Cl143  1  0.16705350  0.35776850  0.17426200  1
  Cl  Cl144  1  0.10616500  0.55592700  0.41898400  1
  Cl  Cl145  1  0.07598150  0.86772850  0.18897900  1
  Cl  Cl146  1  0.92401850  0.13227150  0.81102100  1
  Cl  Cl147  1  0.89383500  0.44407300  0.58101600  1
  Cl  Cl148  1  0.83294650  0.64223150  0.82573800  1
  Cl  Cl149  1  0.92401850  0.86772850  0.31102100  1
  Cl  Cl150  1  0.89383500  0.55592700  0.08101600  1
  Cl  Cl151  1  0.83294650  0.35776850  0.32573800  1
  Cl  Cl152  1  0.38664050  0.39971950  0.81819400  1
  Cl  Cl153  1  0.88241450  0.14787450  0.93510100  1
  Cl  Cl154  1  0.87800150  0.61136150  0.93549100  1
  Cl  Cl155  1  0.85767600  0.43120100  0.69701100  1
  Cl  Cl156  1  0.85743950  0.68900050  0.58488400  1
  Cl  Cl157  1  0.88369750  0.43577450  0.83086300  1
  Cl  Cl158  1  0.38664050  0.60028050  0.31819400  1
  Cl  Cl159  1  0.88241450  0.85212550  0.43510100  1
  Cl  Cl160  1  0.87800150  0.38863850  0.43549100  1
  Cl  Cl161  1  0.85767600  0.56879900  0.19701100  1
  Cl  Cl162  1  0.85743950  0.31099950  0.08488400  1
  Cl  Cl163  1  0.85812850  0.14870350  0.61764200  1
  Cl  Cl164  1  0.88369750  0.56422550  0.33086300  1
  Cl  Cl165  1  0.82435000  0.66969000  0.70277600  1
  Cl  Cl166  1  0.85812850  0.85129650  0.11764200  1
  Cl  Cl167  1  0.84481600  0.38969900  0.93327500  1
  Cl  Cl168  1  0.82435000  0.33031000  0.20277600  1
  Cl  Cl169  1  0.84481600  0.61030100  0.43327500  1
  Cl  Cl170  1  0.65203250  0.40916350  0.55958700  1
  Cl  Cl171  1  0.65658150  0.44063650  0.83137500  1
  Cl  Cl172  1  0.65203250  0.59083650  0.05958700  1
  Cl  Cl173  1  0.65658150  0.55936350  0.33137500  1
  Cl  Cl174  1  0.64677500  0.47656900  0.94561800  1
  Cl  Cl175  1  0.64677500  0.52343100  0.44561800  1
