# generated using pymatgen
data_Cd2Si(P2O7)2
_symmetry_space_group_name_H-M   'P 1'
_cell_length_a   17.93050400
_cell_length_b   5.37205400
_cell_length_c   12.77963550
_cell_angle_alpha   90.00000000
_cell_angle_beta   103.12219240
_cell_angle_gamma   90.00000000
_symmetry_Int_Tables_number   1
_chemical_formula_structural   Cd2Si(P2O7)2
_chemical_formula_sum   'Cd8 Si4 P16 O56'
_cell_volume   1198.83770932
_cell_formula_units_Z   4
loop_
 _symmetry_equiv_pos_site_id
 _symmetry_equiv_pos_as_xyz
  1  'x, y, z'
loop_
 _atom_site_type_symbol
 _atom_site_label
 _atom_site_symmetry_multiplicity
 _atom_site_fract_x
 _atom_site_fract_y
 _atom_site_fract_z
 _atom_site_occupancy
  Cd  Cd0  1  0.74525350  0.64120650  0.62945500  1
  Cd  Cd1  1  0.75474650  0.14120650  0.87054500  1
  Cd  Cd2  1  0.74525350  0.35879350  0.12945500  1
  Cd  Cd3  1  0.75474650  0.85879350  0.37054500  1
  Cd  Cd4  1  0.24525350  0.14120650  0.62945500  1
  Cd  Cd5  1  0.25474650  0.64120650  0.87054500  1
  Cd  Cd6  1  0.24525350  0.85879350  0.12945500  1
  Cd  Cd7  1  0.25474650  0.35879350  0.37054500  1
  Si  Si8  1  0.00000000  0.37651400  0.75000000  1
  Si  Si9  1  0.00000000  0.62348600  0.25000000  1
  Si  Si10  1  0.50000000  0.87651400  0.75000000  1
  Si  Si11  1  0.50000000  0.12348600  0.25000000  1
  P  P12  1  0.87390600  0.22681300  0.57219000  1
  P  P13  1  0.88111900  0.59579200  0.86149500  1
  P  P14  1  0.87390600  0.77318700  0.07219000  1
  P  P15  1  0.88111900  0.40420800  0.36149500  1
  P  P16  1  0.61888100  0.09579200  0.63850500  1
  P  P17  1  0.62609400  0.72681300  0.92781000  1
  P  P18  1  0.61888100  0.90420800  0.13850500  1
  P  P19  1  0.62609400  0.27318700  0.42781000  1
  P  P20  1  0.37390600  0.72681300  0.57219000  1
  P  P21  1  0.38111900  0.09579200  0.86149500  1
  P  P22  1  0.37390600  0.27318700  0.07219000  1
  P  P23  1  0.38111900  0.90420800  0.36149500  1
  P  P24  1  0.11888100  0.59579200  0.63850500  1
  P  P25  1  0.12609400  0.22681300  0.92781000  1
  P  P26  1  0.11888100  0.40420800  0.13850500  1
  P  P27  1  0.12609400  0.77318700  0.42781000  1
  O  O28  1  0.94656900  0.17521200  0.66812000  1
  O  O29  1  0.95469300  0.57409900  0.81239000  1
  O  O30  1  0.84426800  0.47741700  0.59609400  1
  O  O31  1  0.91693700  0.73619500  0.97320800  1
  O  O32  1  0.94656900  0.82478800  0.16812000  1
  O  O33  1  0.95469300  0.42590100  0.31239000  1
  O  O34  1  0.85833700  0.33335800  0.87961000  1
  O  O35  1  0.81992850  0.01043950  0.55019800  1
  O  O36  1  0.81899800  0.76553000  0.79773500  1
  O  O37  1  0.84426800  0.52258300  0.09609400  1
  O  O38  1  0.91693700  0.26380500  0.47320800  1
  O  O39  1  0.85833700  0.66664200  0.37961000  1
  O  O40  1  0.81992850  0.98956050  0.05019800  1
  O  O41  1  0.81899800  0.23447000  0.29773500  1
  O  O42  1  0.68100200  0.26553000  0.70226500  1
  O  O43  1  0.68007150  0.51043950  0.94980200  1
  O  O44  1  0.64166300  0.83335800  0.62039000  1
  O  O45  1  0.58306300  0.23619500  0.52679200  1
  O  O46  1  0.65573200  0.97741700  0.90390600  1
  O  O47  1  0.68100200  0.73447000  0.20226500  1
  O  O48  1  0.68007150  0.48956050  0.44980200  1
  O  O49  1  0.64166300  0.16664200  0.12039000  1
  O  O50  1  0.54530700  0.07409900  0.68761000  1
  O  O51  1  0.55343100  0.67521200  0.83188000  1
  O  O52  1  0.58306300  0.76380500  0.02679200  1
  O  O53  1  0.65573200  0.02258300  0.40390600  1
  O  O54  1  0.54530700  0.92590100  0.18761000  1
  O  O55  1  0.55343100  0.32478800  0.33188000  1
  O  O56  1  0.44656900  0.67521200  0.66812000  1
  O  O57  1  0.45469300  0.07409900  0.81239000  1
  O  O58  1  0.34426800  0.97741700  0.59609400  1
  O  O59  1  0.41693700  0.23619500  0.97320800  1
  O  O60  1  0.44656900  0.32478800  0.16812000  1
  O  O61  1  0.45469300  0.92590100  0.31239000  1
  O  O62  1  0.35833700  0.83335800  0.87961000  1
  O  O63  1  0.31992850  0.51043950  0.55019800  1
  O  O64  1  0.31899800  0.26553000  0.79773500  1
  O  O65  1  0.34426800  0.02258300  0.09609400  1
  O  O66  1  0.41693700  0.76380500  0.47320800  1
  O  O67  1  0.35833700  0.16664200  0.37961000  1
  O  O68  1  0.31992850  0.48956050  0.05019800  1
  O  O69  1  0.31899800  0.73447000  0.29773500  1
  O  O70  1  0.18100200  0.76553000  0.70226500  1
  O  O71  1  0.18007150  0.01043950  0.94980200  1
  O  O72  1  0.14166300  0.33335800  0.62039000  1
  O  O73  1  0.08306300  0.73619500  0.52679200  1
  O  O74  1  0.15573200  0.47741700  0.90390600  1
  O  O75  1  0.18100200  0.23447000  0.20226500  1
  O  O76  1  0.18007150  0.98956050  0.44980200  1
  O  O77  1  0.14166300  0.66664200  0.12039000  1
  O  O78  1  0.04530700  0.57409900  0.68761000  1
  O  O79  1  0.05343100  0.17521200  0.83188000  1
  O  O80  1  0.08306300  0.26380500  0.02679200  1
  O  O81  1  0.15573200  0.52258300  0.40390600  1
  O  O82  1  0.04530700  0.42590100  0.18761000  1
  O  O83  1  0.05343100  0.82478800  0.33188000  1
