# generated using pymatgen
data_Tm2TiO5
_symmetry_space_group_name_H-M   'P 1'
_cell_length_a   3.59102200
_cell_length_b   7.40388500
_cell_length_c   15.35163300
_cell_angle_alpha   90.00000000
_cell_angle_beta   90.00000000
_cell_angle_gamma   90.00000000
_symmetry_Int_Tables_number   1
_chemical_formula_structural   Tm2TiO5
_chemical_formula_sum   'Tm8 Ti4 O20'
_cell_volume   408.16175609
_cell_formula_units_Z   4
loop_
 _symmetry_equiv_pos_site_id
 _symmetry_equiv_pos_as_xyz
  1  'x, y, z'
loop_
 _atom_site_type_symbol
 _atom_site_label
 _atom_site_symmetry_multiplicity
 _atom_site_fract_x
 _atom_site_fract_y
 _atom_site_fract_z
 _atom_site_occupancy
  Tm  Tm0  1  0.25000000  0.60103200  0.58440600  1
  Tm  Tm1  1  0.25000000  0.66006100  0.23757200  1
  Tm  Tm2  1  0.75000000  0.83993900  0.73757200  1
  Tm  Tm3  1  0.75000000  0.89896800  0.08440600  1
  Tm  Tm4  1  0.25000000  0.10103200  0.91559400  1
  Tm  Tm5  1  0.25000000  0.16006100  0.26242800  1
  Tm  Tm6  1  0.75000000  0.33993900  0.76242800  1
  Tm  Tm7  1  0.75000000  0.39896800  0.41559400  1
  Ti  Ti8  1  0.25000000  0.61554700  0.92322900  1
  Ti  Ti9  1  0.75000000  0.88445300  0.42322900  1
  Ti  Ti10  1  0.25000000  0.11554700  0.57677100  1
  Ti  Ti11  1  0.75000000  0.38445300  0.07677100  1
  O  O12  1  0.75000000  0.57193200  0.67459600  1
  O  O13  1  0.75000000  0.57485500  0.95347700  1
  O  O14  1  0.75000000  0.62019300  0.14886600  1
  O  O15  1  0.75000000  0.65510000  0.49565300  1
  O  O16  1  0.25000000  0.75138700  0.82211200  1
  O  O17  1  0.75000000  0.74861300  0.32211200  1
  O  O18  1  0.25000000  0.84490000  0.99565300  1
  O  O19  1  0.25000000  0.87980700  0.64886600  1
  O  O20  1  0.25000000  0.92514500  0.45347700  1
  O  O21  1  0.25000000  0.92806800  0.17459600  1
  O  O22  1  0.75000000  0.07193200  0.82540400  1
  O  O23  1  0.75000000  0.07485500  0.54652300  1
  O  O24  1  0.75000000  0.12019300  0.35113400  1
  O  O25  1  0.75000000  0.15510000  0.00434700  1
  O  O26  1  0.25000000  0.25138700  0.67788800  1
  O  O27  1  0.75000000  0.24861300  0.17788800  1
  O  O28  1  0.25000000  0.34490000  0.50434700  1
  O  O29  1  0.25000000  0.37980700  0.85113400  1
  O  O30  1  0.25000000  0.42514500  0.04652300  1
  O  O31  1  0.25000000  0.42806800  0.32540400  1
