# generated using pymatgen
data_Li2Ti3FeO8
_symmetry_space_group_name_H-M   'P 1'
_cell_length_a   12.02168604
_cell_length_b   12.02168604
_cell_length_c   14.78879804
_cell_angle_alpha   90.00000000
_cell_angle_beta   90.00000000
_cell_angle_gamma   120.00000000
_symmetry_Int_Tables_number   1
_chemical_formula_structural   Li2Ti3FeO8
_chemical_formula_sum   'Li24 Ti36 Fe12 O96'
_cell_volume   1850.94823547
_cell_formula_units_Z   12
loop_
 _symmetry_equiv_pos_site_id
 _symmetry_equiv_pos_as_xyz
  1  'x, y, z'
loop_
 _atom_site_type_symbol
 _atom_site_label
 _atom_site_symmetry_multiplicity
 _atom_site_fract_x
 _atom_site_fract_y
 _atom_site_fract_z
 _atom_site_occupancy
  Li  Li0  1  0.66653900  0.83272900  0.20848000  1
  Li  Li1  1  0.16606233  0.33320567  0.45818667  1
  Li  Li2  1  0.00012767  0.49952333  0.12485333  1
  Li  Li3  1  0.83393767  0.16714333  0.54181333  1
  Li  Li4  1  0.33333333  0.66666667  0.54009567  1
  Li  Li5  1  0.66666667  0.33333333  0.45990433  1
  Li  Li6  1  0.16714333  0.83393767  0.45818667  1
  Li  Li7  1  0.16619000  0.33346100  0.20848000  1
  Li  Li8  1  0.33320567  0.16606233  0.54181333  1
  Li  Li9  1  0.83272900  0.66653900  0.79152000  1
  Li  Li10  1  0.66679433  0.83285667  0.45818667  1
  Li  Li11  1  0.50060433  0.50047667  0.87514667  1
  Li  Li12  1  0.00000000  0.00000000  0.87342900  1
  Li  Li13  1  0.33333333  0.66666667  0.79323767  1
  Li  Li14  1  0.83381000  0.16727100  0.79152000  1
  Li  Li15  1  0.83285667  0.66679433  0.54181333  1
  Li  Li16  1  0.99987233  0.49939567  0.87514667  1
  Li  Li17  1  0.49939567  0.99987233  0.12485333  1
  Li  Li18  1  0.33346100  0.16619000  0.79152000  1
  Li  Li19  1  0.16727100  0.83381000  0.20848000  1
  Li  Li20  1  0.66666667  0.33333333  0.20676233  1
  Li  Li21  1  0.00000000  0.00000000  0.12657100  1
  Li  Li22  1  0.50047667  0.50060433  0.12485333  1
  Li  Li23  1  0.49952333  0.00012767  0.87514667  1
  Ti  Ti24  1  0.91110733  0.07885467  0.33590167  1
  Ti  Ti25  1  0.83483733  0.16817067  0.16666667  1
  Ti  Ti26  1  0.41218800  0.57777400  0.33076500  1
  Ti  Ti27  1  0.91392117  0.33333333  0.33333333  1
  Ti  Ti28  1  0.16558600  0.58781200  0.33076500  1
  Ti  Ti29  1  0.42222600  0.83441400  0.33076500  1
  Ti  Ti30  1  1.00000000  0.49849600  0.50000000  1
  Ti  Ti31  1  0.08607883  0.41941217  0.66666667  1
  Ti  Ti32  1  0.83182933  0.66666667  0.16666667  1
  Ti  Ti33  1  0.83441400  0.42222600  0.66923500  1
  Ti  Ti34  1  0.92114533  0.83225267  0.33590167  1
  Ti  Ti35  1  0.66666667  0.58058783  0.33333333  1
  Ti  Ti36  1  0.57777400  0.41218800  0.66923500  1
  Ti  Ti37  1  0.50150400  0.50150400  0.50000000  1
  Ti  Ti38  1  0.07885467  0.91110733  0.66409833  1
  Ti  Ti39  1  0.58058783  0.66666667  0.66666667  1
  Ti  Ti40  1  0.83225267  0.92114533  0.66409833  1
  Ti  Ti41  1  0.08889267  0.16774733  0.66409833  1
  Ti  Ti42  1  0.66666667  0.83182933  0.83333333  1
  Ti  Ti43  1  0.75274550  0.75274550  0.00000000  1
  Ti  Ti44  1  0.49849600  0.00000000  0.50000000  1
  Ti  Ti45  1  0.50108067  0.75555933  0.00256833  1
  Ti  Ti46  1  0.58781200  0.16558600  0.66923500  1
  Ti  Ti47  1  0.33333333  0.91392117  0.66666667  1
  Ti  Ti48  1  0.24444067  0.74552133  0.00256833  1
  Ti  Ti49  1  0.16817067  0.83483733  0.83333333  1
  Ti  Ti50  1  0.74552133  0.24444067  0.99743167  1
  Ti  Ti51  1  0.24725450  0.00000000  0.00000000  1
  Ti  Ti52  1  0.49891933  0.25447867  0.99743167  1
  Ti  Ti53  1  0.75555933  0.50108067  0.99743167  1
  Ti  Ti54  1  0.33333333  0.16516267  0.16666667  1
  Ti  Ti55  1  0.41941217  0.08607883  0.33333333  1
  Ti  Ti56  1  0.16516267  0.33333333  0.83333333  1
  Ti  Ti57  1  0.16774733  0.08889267  0.33590167  1
  Ti  Ti58  1  0.25447867  0.49891933  0.00256833  1
  Ti  Ti59  1  0.00000000  0.24725450  0.00000000  1
  Fe  Fe60  1  0.33333333  0.66666667  0.16666667  1
  Fe  Fe61  1  0.66666667  0.08241283  0.33333333  1
  Fe  Fe62  1  0.91758717  0.58425383  0.33333333  1
  Fe  Fe63  1  0.08241283  0.66666667  0.66666667  1
  Fe  Fe64  1  0.00000000  0.00000000  0.50000000  1
  Fe  Fe65  1  0.33333333  0.41574617  0.66666667  1
  Fe  Fe66  1  0.58425383  0.91758717  0.66666667  1
  Fe  Fe67  1  0.74907950  0.00000000  0.00000000  1
  Fe  Fe68  1  0.66666667  0.33333333  0.83333333  1
  Fe  Fe69  1  0.00000000  0.74907950  0.00000000  1
  Fe  Fe70  1  0.25092050  0.25092050  0.00000000  1
  Fe  Fe71  1  0.41574617  0.33333333  0.33333333  1
  O  O72  1  0.08016533  0.15482967  0.40226767  1
  O  O73  1  0.17850367  0.59200233  0.06893433  1
  O  O74  1  0.90797367  0.31475233  0.07948733  1
  O  O75  1  0.76803600  0.02006500  0.24781000  1
  O  O76  1  0.35339833  0.43470267  0.41885667  1
  O  O77  1  0.98141900  0.24130700  0.25384600  1
  O  O78  1  0.25866900  0.51183700  0.26439900  1
  O  O79  1  0.48816300  0.74683200  0.26439900  1
  O  O80  1  0.84917233  0.17211067  0.40429467  1
  O  O81  1  0.76871833  0.25106967  0.25117567  1
  O  O82  1  0.33333333  0.66666667  0.40348267  1
  O  O83  1  0.01039500  0.49455600  0.26237200  1
  O  O84  1  0.25316800  0.74133100  0.26439900  1
  O  O85  1  0.07344533  0.42535967  0.41282067  1
  O  O86  1  0.15082767  0.32293833  0.59570533  1
  O  O87  1  0.89863067  0.58536233  0.08552333  1
  O  O88  1  0.85098200  0.41559700  0.41549100  1
  O  O89  1  0.08130433  0.64660167  0.41885667  1
  O  O90  1  0.35191433  0.92655467  0.41282067  1
  O  O91  1  0.14901800  0.56461500  0.58450900  1
  O  O92  1  0.56461500  0.14901800  0.41549100  1
  O  O93  1  0.92655467  0.35191433  0.58717933  1
  O  O94  1  0.97993500  0.74797100  0.24781000  1
  O  O95  1  0.74893033  0.51764867  0.25117567  1
  O  O96  1  0.91869567  0.56529733  0.58114333  1
  O  O97  1  0.98960500  0.48416100  0.73762800  1
  O  O98  1  0.75869300  0.74011200  0.25384600  1
  O  O99  1  0.07466433  0.91983467  0.40226767  1
  O  O100  1  0.82788933  0.67706167  0.40429467  1
  O  O101  1  0.66666667  0.33333333  0.59651733  1
  O  O102  1  0.58440300  0.43538500  0.41549100  1
  O  O103  1  0.17211067  0.84917233  0.59570533  1
  O  O104  1  0.74683200  0.48816300  0.73560100  1
  O  O105  1  0.84517033  0.92533567  0.40226767  1
  O  O106  1  0.57464033  0.64808567  0.41282067  1
  O  O107  1  0.43470267  0.35339833  0.58114333  1
  O  O108  1  0.02006500  0.76803600  0.75219000  1
  O  O109  1  0.64808567  0.57464033  0.58717933  1
  O  O110  1  0.92533567  0.84517033  0.59773233  1
  O  O111  1  0.15482967  0.08016533  0.59773233  1
  O  O112  1  0.51583900  0.50544400  0.73762800  1
  O  O113  1  0.43538500  0.58440300  0.58450900  1
  O  O114  1  0.00000000  0.00000000  0.73681600  1
  O  O115  1  0.67706167  0.82788933  0.59570533  1
  O  O116  1  0.91983467  0.07466433  0.59773233  1
  O  O117  1  0.74011200  0.75869300  0.74615400  1
  O  O118  1  0.81749433  0.65627167  0.92903867  1
  O  O119  1  0.56529733  0.91869567  0.41885667  1
  O  O120  1  0.51764867  0.74893033  0.74882433  1
  O  O121  1  0.74797100  0.97993500  0.75219000  1
  O  O122  1  0.01858100  0.25988800  0.74615400  1
  O  O123  1  0.81568467  0.89794833  0.91784233  1
  O  O124  1  0.23128167  0.48235133  0.74882433  1
  O  O125  1  0.59322133  0.68524767  0.92051267  1
  O  O126  1  0.64660167  0.08130433  0.58114333  1
  O  O127  1  0.41559700  0.85098200  0.58450900  1
  O  O128  1  0.58536233  0.89863067  0.91447667  1
  O  O129  1  0.65627167  0.81749433  0.07096133  1
  O  O130  1  0.42535967  0.07344533  0.58717933  1
  O  O131  1  0.74133100  0.25316800  0.73560100  1
  O  O132  1  0.49455600  0.01039500  0.73762800  1
  O  O133  1  0.33333333  0.66666667  0.92985067  1
  O  O134  1  0.25106967  0.76871833  0.74882433  1
  O  O135  1  0.83877733  0.18250567  0.92903867  1
  O  O136  1  0.41349867  0.82149633  0.06893433  1
  O  O137  1  0.51183700  0.25866900  0.73560100  1
  O  O138  1  0.24130700  0.98141900  0.74615400  1
  O  O139  1  0.10136933  0.68673167  0.91447667  1
  O  O140  1  0.68673167  0.10136933  0.08552333  1
  O  O141  1  0.31475233  0.90797367  0.92051267  1
  O  O142  1  0.59200233  0.17850367  0.93106567  1
  O  O143  1  0.82149633  0.41349867  0.93106567  1
  O  O144  1  0.18250567  0.83877733  0.07096133  1
  O  O145  1  0.10205167  0.91773633  0.91784233  1
  O  O146  1  0.66666667  0.33333333  0.07014933  1
  O  O147  1  0.34372833  0.16122267  0.92903867  1
  O  O148  1  0.58650133  0.40799767  0.93106567  1
  O  O149  1  0.40677867  0.09202633  0.07948733  1
  O  O150  1  0.48416100  0.98960500  0.26237200  1
  O  O151  1  0.23196400  0.25202900  0.75219000  1
  O  O152  1  0.18431533  0.08226367  0.08215767  1
  O  O153  1  0.41463767  0.31326833  0.08552333  1
  O  O154  1  0.68524767  0.59322133  0.07948733  1
  O  O155  1  0.48235133  0.23128167  0.25117567  1
  O  O156  1  0.89794833  0.81568467  0.08215767  1
  O  O157  1  0.25988800  0.01858100  0.25384600  1
  O  O158  1  0.31326833  0.41463767  0.91447667  1
  O  O159  1  0.08226367  0.18431533  0.91784233  1
  O  O160  1  0.25202900  0.23196400  0.24781000  1
  O  O161  1  0.32293833  0.15082767  0.40429467  1
  O  O162  1  0.09202633  0.40677867  0.92051267  1
  O  O163  1  0.40799767  0.58650133  0.06893433  1
  O  O164  1  0.16122267  0.34372833  0.07096133  1
  O  O165  1  0.00000000  0.00000000  0.26318400  1
  O  O166  1  0.91773633  0.10205167  0.08215767  1
  O  O167  1  0.50544400  0.51583900  0.26237200  1
