# generated using pymatgen
data_Sn2N2O
_symmetry_space_group_name_H-M   'P 1'
_cell_length_a   8.84809382
_cell_length_b   8.85538937
_cell_length_c   8.85839222
_cell_angle_alpha   109.52458622
_cell_angle_beta   109.29541497
_cell_angle_gamma   109.48181403
_symmetry_Int_Tables_number   1
_chemical_formula_structural   Sn2N2O
_chemical_formula_sum   'Sn16 N16 O8'
_cell_volume   535.04086148
_cell_formula_units_Z   8
loop_
 _symmetry_equiv_pos_site_id
 _symmetry_equiv_pos_as_xyz
  1  'x, y, z'
loop_
 _atom_site_type_symbol
 _atom_site_label
 _atom_site_symmetry_multiplicity
 _atom_site_fract_x
 _atom_site_fract_y
 _atom_site_fract_z
 _atom_site_occupancy
  Sn  Sn0  1  0.50555012  0.00612833  0.00236905  1
  Sn  Sn1  1  0.46706438  0.70908097  0.74825138  1
  Sn  Sn2  1  0.26182085  0.04550697  0.70412251  1
  Sn  Sn3  1  0.25300843  0.53640480  0.21399216  1
  Sn  Sn4  1  0.03346831  0.78331174  0.25861412  1
  Sn  Sn5  1  0.21744306  0.75052222  0.52583529  1
  Sn  Sn6  1  0.48817299  0.49536058  0.50770540  1
  Sn  Sn7  1  0.71367540  0.74429557  0.03705218  1
  Sn  Sn8  1  0.00731066  0.99621788  0.49164466  1
  Sn  Sn9  1  0.99513293  0.49131596  0.00004697  1
  Sn  Sn10  1  0.28279275  0.25689511  0.96838565  1
  Sn  Sn11  1  0.77359822  0.24757039  0.47198059  1
  Sn  Sn12  1  0.95995468  0.21500955  0.76219678  1
  Sn  Sn13  1  0.75168568  0.97188666  0.27713561  1
  Sn  Sn14  1  0.74961947  0.46734075  0.78425700  1
  Sn  Sn15  1  0.53436391  0.28628607  0.25037375  1
  N  N16  1  0.73500009  0.99250513  0.04014963  1
  N  N17  1  0.27312199  0.76619338  0.25958659  1
  N  N18  1  0.22774946  0.46856616  0.00905164  1
  N  N19  1  0.46860306  0.74590031  0.49293679  1
  N  N20  1  0.27075037  0.03505469  0.46096616  1
  N  N21  1  0.73374748  0.22819183  0.72629712  1
  N  N22  1  0.54004841  0.27431779  0.50362308  1
  N  N23  1  0.45385687  0.50239265  0.27055737  1
  N  N24  1  0.77796324  0.54900369  0.99704104  1
  N  N25  1  0.01261053  0.46802894  0.76335427  1
  N  N26  1  0.21551657  0.25698086  0.74401886  1
  N  N27  1  0.76893211  0.22534677  0.23648309  1
  N  N28  1  0.03423514  0.03967882  0.22362351  1
  N  N29  1  0.95315734  0.72545836  0.53819107  1
  N  N30  1  0.54106658  0.50472345  0.72841594  1
  N  N31  1  0.49176558  0.22736729  0.04498705  1
  O  O32  1  0.26645850  0.98620358  0.95674226  1
  O  O33  1  0.73174859  0.95950900  0.55384738  1
  O  O34  1  0.51670616  0.78276769  0.93779993  1
  O  O35  1  0.95178465  0.95450309  0.76275978  1
  O  O36  1  0.98447286  0.53545215  0.24627560  1
  O  O37  1  0.04349688  0.26913616  0.45215253  1
  O  O38  1  0.23603932  0.78026616  0.77958417  1
  O  O39  1  0.77650934  0.71931845  0.26759109  1
