# generated using pymatgen
data_Li3CrP2HO8
_symmetry_space_group_name_H-M   'P 1'
_cell_length_a   5.03377438
_cell_length_b   5.14918320
_cell_length_c   6.28081577
_cell_angle_alpha   91.71062817
_cell_angle_beta   90.59192877
_cell_angle_gamma   112.31919544
_symmetry_Int_Tables_number   1
_chemical_formula_structural   Li3CrP2HO8
_chemical_formula_sum   'Li3 Cr1 P2 H1 O8'
_cell_volume   150.49281666
_cell_formula_units_Z   1
loop_
 _symmetry_equiv_pos_site_id
 _symmetry_equiv_pos_as_xyz
  1  'x, y, z'
loop_
 _atom_site_type_symbol
 _atom_site_label
 _atom_site_symmetry_multiplicity
 _atom_site_fract_x
 _atom_site_fract_y
 _atom_site_fract_z
 _atom_site_occupancy
  Li  Li0  1  0.00000000  0.00000000  0.50000000  1
  Li  Li1  1  0.26848250  0.62315825  0.23508125  1
  Li  Li2  1  0.73151750  0.37684175  0.76491875  1
  Cr  Cr3  1  0.00000000  0.00000000  0.00000000  1
  P  P4  1  0.36505975  0.65208325  0.74733800  1
  P  P5  1  0.63494025  0.34791675  0.25266200  1
  H  H6  1  0.50000000  0.00000000  0.50000000  1
  O  O7  1  0.24121450  0.75423750  0.94187600  1
  O  O8  1  0.75878550  0.24576250  0.05812400  1
  O  O9  1  0.29802575  0.78899900  0.54039725  1
  O  O10  1  0.70197425  0.21100100  0.45960275  1
  O  O11  1  0.23287375  0.33058325  0.72180900  1
  O  O12  1  0.76712625  0.66941675  0.27819100  1
  O  O13  1  0.30064225  0.24621375  0.23135200  1
  O  O14  1  0.69935775  0.75378625  0.76864800  1
