# generated using pymatgen
data_Li2TiMn2O5
_symmetry_space_group_name_H-M   'P 1'
_cell_length_a   5.41583800
_cell_length_b   15.00672600
_cell_length_c   5.44055283
_cell_angle_alpha   90.00000000
_cell_angle_beta   113.11705113
_cell_angle_gamma   90.00000000
_symmetry_Int_Tables_number   1
_chemical_formula_structural   Li2TiMn2O5
_chemical_formula_sum   'Li8 Ti4 Mn8 O20'
_cell_volume   406.67086097
_cell_formula_units_Z   4
loop_
 _symmetry_equiv_pos_site_id
 _symmetry_equiv_pos_as_xyz
  1  'x, y, z'
loop_
 _atom_site_type_symbol
 _atom_site_label
 _atom_site_symmetry_multiplicity
 _atom_site_fract_x
 _atom_site_fract_y
 _atom_site_fract_z
 _atom_site_occupancy
  Li  Li0  1  0.50000000  0.39807700  0.00000000  1
  Li  Li1  1  0.00000000  0.49794700  0.00000000  1
  Li  Li2  1  0.00000000  0.20267500  0.50000000  1
  Li  Li3  1  0.50000000  0.30142600  0.50000000  1
  Li  Li4  1  0.00000000  0.89807700  0.00000000  1
  Li  Li5  1  0.50000000  0.99794700  0.00000000  1
  Li  Li6  1  0.50000000  0.70267500  0.50000000  1
  Li  Li7  1  0.00000000  0.80142600  0.50000000  1
  Ti  Ti8  1  0.00000000  0.30370600  0.00000000  1
  Ti  Ti9  1  0.50000000  0.49905300  0.50000000  1
  Ti  Ti10  1  0.50000000  0.80370600  0.00000000  1
  Ti  Ti11  1  0.00000000  0.99905300  0.50000000  1
  Mn  Mn12  1  0.00000000  0.09775400  0.00000000  1
  Mn  Mn13  1  0.50000000  0.20108100  0.00000000  1
  Mn  Mn14  1  0.00000000  0.39649800  0.50000000  1
  Mn  Mn15  1  0.50000000  0.10587900  0.50000000  1
  Mn  Mn16  1  0.50000000  0.59775400  0.00000000  1
  Mn  Mn17  1  0.00000000  0.70108100  0.00000000  1
  Mn  Mn18  1  0.50000000  0.89649800  0.50000000  1
  Mn  Mn19  1  0.00000000  0.60587900  0.50000000  1
  O  O20  1  0.74925650  0.39987550  0.74995900  1
  O  O21  1  0.24054750  0.09087850  0.73746000  1
  O  O22  1  0.21628150  0.29984950  0.78481400  1
  O  O23  1  0.78371850  0.29984950  0.21518600  1
  O  O24  1  0.75537650  0.20836450  0.76317300  1
  O  O25  1  0.28095550  0.49899950  0.71757100  1
  O  O26  1  0.25074350  0.39987550  0.25004100  1
  O  O27  1  0.71904450  0.49899950  0.28242900  1
  O  O28  1  0.24462350  0.20836450  0.23682700  1
  O  O29  1  0.75945250  0.09087850  0.26254000  1
  O  O30  1  0.24925650  0.89987550  0.74995900  1
  O  O31  1  0.74054750  0.59087850  0.73746000  1
  O  O32  1  0.71628150  0.79984950  0.78481400  1
  O  O33  1  0.28371850  0.79984950  0.21518600  1
  O  O34  1  0.25537650  0.70836450  0.76317300  1
  O  O35  1  0.78095550  0.99899950  0.71757100  1
  O  O36  1  0.75074350  0.89987550  0.25004100  1
  O  O37  1  0.21904450  0.99899950  0.28242900  1
  O  O38  1  0.74462350  0.70836450  0.23682700  1
  O  O39  1  0.25945250  0.59087850  0.26254000  1
