# generated using pymatgen
data_Li2TiSn3(PO4)6
_symmetry_space_group_name_H-M   'P 1'
_cell_length_a   8.72081214
_cell_length_b   8.72081214
_cell_length_c   21.89714841
_cell_angle_alpha   90.00000000
_cell_angle_beta   90.00000000
_cell_angle_gamma   120.00000000
_symmetry_Int_Tables_number   1
_chemical_formula_structural   Li2TiSn3(PO4)6
_chemical_formula_sum   'Li6 Ti3 Sn9 P18 O72'
_cell_volume   1442.22179896
_cell_formula_units_Z   3
loop_
 _symmetry_equiv_pos_site_id
 _symmetry_equiv_pos_as_xyz
  1  'x, y, z'
loop_
 _atom_site_type_symbol
 _atom_site_label
 _atom_site_symmetry_multiplicity
 _atom_site_fract_x
 _atom_site_fract_y
 _atom_site_fract_z
 _atom_site_occupancy
  Li  Li0  1  0.66666667  0.33333333  0.33016033  1
  Li  Li1  1  0.33333333  0.66666667  0.16692967  1
  Li  Li2  1  0.33333333  0.66666667  0.66349367  1
  Li  Li3  1  0.00000000  0.00000000  0.50026300  1
  Li  Li4  1  0.00000000  0.00000000  0.99682700  1
  Li  Li5  1  0.66666667  0.33333333  0.83359633  1
  Ti  Ti6  1  0.66666667  0.33333333  0.18885133  1
  Ti  Ti7  1  0.33333333  0.66666667  0.52218467  1
  Ti  Ti8  1  0.00000000  0.00000000  0.85551800  1
  Sn  Sn9  1  0.00000000  0.00000000  0.14513700  1
  Sn  Sn10  1  0.33333333  0.66666667  0.02318367  1
  Sn  Sn11  1  0.33333333  0.66666667  0.31188167  1
  Sn  Sn12  1  0.66666667  0.33333333  0.47847033  1
  Sn  Sn13  1  0.00000000  0.00000000  0.35651700  1
  Sn  Sn14  1  0.00000000  0.00000000  0.64521500  1
  Sn  Sn15  1  0.33333333  0.66666667  0.81180367  1
  Sn  Sn16  1  0.66666667  0.33333333  0.68985033  1
  Sn  Sn17  1  0.66666667  0.33333333  0.97854833  1
  P  P18  1  0.95886233  0.33366167  0.08424867  1
  P  P19  1  0.37479933  0.04113767  0.08424867  1
  P  P20  1  0.66633833  0.62520067  0.08424867  1
  P  P21  1  0.99799200  0.70271900  0.24988900  1
  P  P22  1  0.29728100  0.29527300  0.24988900  1
  P  P23  1  0.70472700  0.00200800  0.24988900  1
  P  P24  1  0.62552900  0.66699500  0.41758200  1
  P  P25  1  0.04146600  0.37447100  0.41758200  1
  P  P26  1  0.33300500  0.95853400  0.41758200  1
  P  P27  1  0.66465867  0.03605233  0.58322233  1
  P  P28  1  0.96394767  0.62860633  0.58322233  1
  P  P29  1  0.37139367  0.33534133  0.58322233  1
  P  P30  1  0.29219567  0.00032833  0.75091533  1
  P  P31  1  0.70813267  0.70780433  0.75091533  1
  P  P32  1  0.99967167  0.29186733  0.75091533  1
  P  P33  1  0.33132533  0.36938567  0.91655567  1
  P  P34  1  0.63061433  0.96193967  0.91655567  1
  P  P35  1  0.03806033  0.66867467  0.91655567  1
  O  O36  1  0.81116200  0.02343400  0.30857500  1
  O  O37  1  0.97656600  0.78772800  0.30857500  1
  O  O38  1  0.98106033  0.16835967  0.08364467  1
  O  O39  1  0.21227200  0.18883800  0.30857500  1
  O  O40  1  0.14263067  0.50543533  0.08697933  1
  O  O41  1  0.85476467  0.33871933  0.14044433  1
  O  O42  1  0.18729933  0.01893967  0.08364467  1
  O  O43  1  0.36280467  0.85736933  0.08697933  1
  O  O44  1  0.49456467  0.63719533  0.08697933  1
  O  O45  1  0.02014100  0.81214100  0.19242100  1
  O  O46  1  0.83175033  0.51571367  0.24653567  1
  O  O47  1  0.18785900  0.20800000  0.19242100  1
  O  O48  1  0.48395467  0.14523533  0.14044433  1
  O  O49  1  0.83164033  0.81270067  0.08364467  1
  O  O50  1  0.66128067  0.51604533  0.14044433  1
  O  O51  1  0.16420633  0.68172167  0.24987067  1
  O  O52  1  0.31827833  0.48248467  0.24987067  1
  O  O53  1  0.48428633  0.31603667  0.24653567  1
  O  O54  1  0.79200000  0.97985900  0.19242100  1
  O  O55  1  0.51751533  0.83579367  0.24987067  1
  O  O56  1  0.45866733  0.13781367  0.02423167  1
  O  O57  1  0.68396333  0.16824967  0.24653567  1
  O  O58  1  0.67914633  0.54133267  0.02423167  1
  O  O59  1  0.86218633  0.32085367  0.02423167  1
  O  O60  1  0.47782867  0.35676733  0.64190833  1
  O  O61  1  0.64323267  0.12106133  0.64190833  1
  O  O62  1  0.64772700  0.50169300  0.41697800  1
  O  O63  1  0.87893867  0.52217133  0.64190833  1
  O  O64  1  0.80929733  0.83876867  0.42031267  1
  O  O65  1  0.52143133  0.67205267  0.47377767  1
  O  O66  1  0.85396600  0.35227300  0.41697800  1
  O  O67  1  0.02947133  0.19070267  0.42031267  1
  O  O68  1  0.16123133  0.97052867  0.42031267  1
  O  O69  1  0.68680767  0.14547433  0.52575433  1
  O  O70  1  0.49841700  0.84904700  0.57986900  1
  O  O71  1  0.85452567  0.54133333  0.52575433  1
  O  O72  1  0.15062133  0.47856867  0.47377767  1
  O  O73  1  0.49830700  0.14603400  0.41697800  1
  O  O74  1  0.32794733  0.84937867  0.47377767  1
  O  O75  1  0.83087300  0.01505500  0.58320400  1
  O  O76  1  0.98494500  0.81581800  0.58320400  1
  O  O77  1  0.15095300  0.64937000  0.57986900  1
  O  O78  1  0.45866667  0.31319233  0.52575433  1
  O  O79  1  0.18418200  0.16912700  0.58320400  1
  O  O80  1  0.12533400  0.47114700  0.35756500  1
  O  O81  1  0.35063000  0.50158300  0.57986900  1
  O  O82  1  0.34581300  0.87466600  0.35756500  1
  O  O83  1  0.52885300  0.65418700  0.35756500  1
  O  O84  1  0.14449533  0.69010067  0.97524167  1
  O  O85  1  0.30989933  0.45439467  0.97524167  1
  O  O86  1  0.31439367  0.83502633  0.75031133  1
  O  O87  1  0.54560533  0.85550467  0.97524167  1
  O  O88  1  0.47596400  0.17210200  0.75364600  1
  O  O89  1  0.18809800  0.00538600  0.80711100  1
  O  O90  1  0.52063267  0.68560633  0.75031133  1
  O  O91  1  0.69613800  0.52403600  0.75364600  1
  O  O92  1  0.82789800  0.30386200  0.75364600  1
  O  O93  1  0.35347433  0.47880767  0.85908767  1
  O  O94  1  0.16508367  0.18238033  0.91320233  1
  O  O95  1  0.52119233  0.87466667  0.85908767  1
  O  O96  1  0.81728800  0.81190200  0.80711100  1
  O  O97  1  0.16497367  0.47936733  0.75031133  1
  O  O98  1  0.99461400  0.18271200  0.80711100  1
  O  O99  1  0.49753967  0.34838833  0.91653733  1
  O  O100  1  0.65161167  0.14915133  0.91653733  1
  O  O101  1  0.81761967  0.98270333  0.91320233  1
  O  O102  1  0.12533333  0.64652567  0.85908767  1
  O  O103  1  0.85084867  0.50246033  0.91653733  1
  O  O104  1  0.79200067  0.80448033  0.69089833  1
  O  O105  1  0.01729667  0.83491633  0.91320233  1
  O  O106  1  0.01247967  0.20799933  0.69089833  1
  O  O107  1  0.19551967  0.98752033  0.69089833  1
