# generated using pymatgen
data_Ba2SrI6
_symmetry_space_group_name_H-M   'P 1'
_cell_length_a   14.59062756
_cell_length_b   14.59062756
_cell_length_c   7.87813800
_cell_angle_alpha   90.00000000
_cell_angle_beta   90.00000000
_cell_angle_gamma   120.00000000
_symmetry_Int_Tables_number   1
_chemical_formula_structural   Ba2SrI6
_chemical_formula_sum   'Ba6 Sr3 I18'
_cell_volume   1452.45323924
_cell_formula_units_Z   3
loop_
 _symmetry_equiv_pos_site_id
 _symmetry_equiv_pos_as_xyz
  1  'x, y, z'
loop_
 _atom_site_type_symbol
 _atom_site_label
 _atom_site_symmetry_multiplicity
 _atom_site_fract_x
 _atom_site_fract_y
 _atom_site_fract_z
 _atom_site_occupancy
  Ba  Ba0  1  0.00000000  0.63887650  0.00000000  1
  Ba  Ba1  1  0.00000000  0.30513950  0.50000000  1
  Ba  Ba2  1  0.36112350  0.36112350  0.00000000  1
  Ba  Ba3  1  0.30513950  0.00000000  0.50000000  1
  Ba  Ba4  1  0.69486050  0.69486050  0.50000000  1
  Ba  Ba5  1  0.63887650  0.00000000  0.00000000  1
  Sr  Sr6  1  0.33333333  0.66666667  0.49478900  1
  Sr  Sr7  1  0.00000000  0.00000000  0.00000000  1
  Sr  Sr8  1  0.66666667  0.33333333  0.50521100  1
  I  I9  1  0.08474333  0.87049867  0.76174900  1
  I  I10  1  0.22826933  0.77524567  0.25171800  1
  I  I11  1  0.12230633  0.53747267  0.74084500  1
  I  I12  1  0.41516633  0.87769367  0.74084500  1
  I  I13  1  0.22475433  0.45302367  0.25171800  1
  I  I14  1  0.12950133  0.21424467  0.76174900  1
  I  I15  1  0.54697633  0.77173067  0.25171800  1
  I  I16  1  0.21424467  0.12950133  0.23825100  1
  I  I17  1  0.46252733  0.58483367  0.74084500  1
  I  I18  1  0.78575533  0.91525667  0.76174900  1
  I  I19  1  0.45302367  0.22475433  0.74828200  1
  I  I20  1  0.58483367  0.46252733  0.25915500  1
  I  I21  1  0.53747267  0.12230633  0.25915500  1
  I  I22  1  0.77173067  0.54697633  0.74828200  1
  I  I23  1  0.91525667  0.78575533  0.23825100  1
  I  I24  1  0.77524567  0.22826933  0.74828200  1
  I  I25  1  0.87769367  0.41516633  0.25915500  1
  I  I26  1  0.87049867  0.08474333  0.23825100  1
