# generated using pymatgen
data_Cr3P6WO24
_symmetry_space_group_name_H-M   'P 1'
_cell_length_a   8.60694995
_cell_length_b   8.60694995
_cell_length_c   21.87369946
_cell_angle_alpha   90.00000000
_cell_angle_beta   90.00000000
_cell_angle_gamma   120.00000000
_symmetry_Int_Tables_number   1
_chemical_formula_structural   Cr3P6WO24
_chemical_formula_sum   'Cr9 P18 W3 O72'
_cell_volume   1403.30291693
_cell_formula_units_Z   3
loop_
 _symmetry_equiv_pos_site_id
 _symmetry_equiv_pos_as_xyz
  1  'x, y, z'
loop_
 _atom_site_type_symbol
 _atom_site_label
 _atom_site_symmetry_multiplicity
 _atom_site_fract_x
 _atom_site_fract_y
 _atom_site_fract_z
 _atom_site_occupancy
  Cr  Cr0  1  0.00000000  0.00000000  0.14338600  1
  Cr  Cr1  1  0.33333333  0.66666667  0.02444267  1
  Cr  Cr2  1  0.33333333  0.66666667  0.30936267  1
  Cr  Cr3  1  0.66666667  0.33333333  0.47671933  1
  Cr  Cr4  1  0.00000000  0.00000000  0.35777600  1
  Cr  Cr5  1  0.00000000  0.00000000  0.64269600  1
  Cr  Cr6  1  0.33333333  0.66666667  0.81005267  1
  Cr  Cr7  1  0.66666667  0.33333333  0.69110933  1
  Cr  Cr8  1  0.66666667  0.33333333  0.97602933  1
  P  P9  1  0.37816667  0.04557133  0.08175333  1
  P  P10  1  0.66740467  0.62183333  0.08175333  1
  P  P11  1  0.95442867  0.33259533  0.08175333  1
  P  P12  1  0.71631867  0.99181533  0.25103333  1
  P  P13  1  0.00818467  0.72450333  0.25103333  1
  P  P14  1  0.27549667  0.28368133  0.25103333  1
  P  P15  1  0.04483333  0.37890467  0.41508667  1
  P  P16  1  0.33407133  0.95516667  0.41508667  1
  P  P17  1  0.62109533  0.66592867  0.41508667  1
  P  P18  1  0.38298533  0.32514867  0.58436667  1
  P  P19  1  0.67485133  0.05783667  0.58436667  1
  P  P20  1  0.94216333  0.61701467  0.58436667  1
  P  P21  1  0.71150000  0.71223800  0.74842000  1
  P  P22  1  0.00073800  0.28850000  0.74842000  1
  P  P23  1  0.28776200  0.99926200  0.74842000  1
  P  P24  1  0.04965200  0.65848200  0.91770000  1
  P  P25  1  0.34151800  0.39117000  0.91770000  1
  P  P26  1  0.60883000  0.95034800  0.91770000  1
  W  W27  1  0.66666667  0.33333333  0.19264933  1
  W  W28  1  0.33333333  0.66666667  0.52598267  1
  W  W29  1  0.00000000  0.00000000  0.85931600  1
  O  O30  1  0.20226800  0.16868800  0.30828300  1
  O  O31  1  0.83131200  0.03358000  0.30828300  1
  O  O32  1  0.19283067  0.02603533  0.08945433  1
  O  O33  1  0.96642000  0.79773200  0.30828300  1
  O  O34  1  0.36431767  0.86170333  0.07810133  1
  O  O35  1  0.49727767  0.13895433  0.14016033  1
  O  O36  1  0.83320467  0.80716933  0.08945433  1
  O  O37  1  0.49738567  0.63568233  0.07810133  1
  O  O38  1  0.13829667  0.50261433  0.07810133  1
  O  O39  1  0.80006333  0.97154367  0.19239967  1
  O  O40  1  0.69436933  0.16476267  0.24210167  1
  O  O41  1  0.02845633  0.82851967  0.19239967  1
  O  O42  1  0.64167667  0.50272233  0.14016033  1
  O  O43  1  0.97396467  0.16679533  0.08945433  1
  O  O44  1  0.86104567  0.35832333  0.14016033  1
  O  O45  1  0.52730833  0.83288367  0.25674067  1
  O  O46  1  0.16711633  0.69442467  0.25674067  1
  O  O47  1  0.83523733  0.52960667  0.24210167  1
  O  O48  1  0.17148033  0.19993667  0.19239967  1
  O  O49  1  0.30557533  0.47269167  0.25674067  1
  O  O50  1  0.69475000  0.53354800  0.02558100  1
  O  O51  1  0.47039333  0.30563067  0.24210167  1
  O  O52  1  0.83879800  0.30525000  0.02558100  1
  O  O53  1  0.46645200  0.16120200  0.02558100  1
  O  O54  1  0.86893467  0.50202133  0.64161633  1
  O  O55  1  0.49797867  0.36691333  0.64161633  1
  O  O56  1  0.85949733  0.35936867  0.42278767  1
  O  O57  1  0.63308667  0.13106533  0.64161633  1
  O  O58  1  0.03098433  0.19503667  0.41143467  1
  O  O59  1  0.16394433  0.47228767  0.47349367  1
  O  O60  1  0.49987133  0.14050267  0.42278767  1
  O  O61  1  0.16405233  0.96901567  0.41143467  1
  O  O62  1  0.80496333  0.83594767  0.41143467  1
  O  O63  1  0.46673000  0.30487700  0.52573300  1
  O  O64  1  0.36103600  0.49809600  0.57543500  1
  O  O65  1  0.69512300  0.16185300  0.52573300  1
  O  O66  1  0.30834333  0.83605567  0.47349367  1
  O  O67  1  0.64063133  0.50012867  0.42278767  1
  O  O68  1  0.52771233  0.69165667  0.47349367  1
  O  O69  1  0.19397500  0.16621700  0.59007400  1
  O  O70  1  0.83378300  0.02775800  0.59007400  1
  O  O71  1  0.50190400  0.86294000  0.57543500  1
  O  O72  1  0.83814700  0.53327000  0.52573300  1
  O  O73  1  0.97224200  0.80602500  0.59007400  1
  O  O74  1  0.36141667  0.86688133  0.35891433  1
  O  O75  1  0.13706000  0.63896400  0.57543500  1
  O  O76  1  0.50546467  0.63858333  0.35891433  1
  O  O77  1  0.13311867  0.49453533  0.35891433  1
  O  O78  1  0.53560133  0.83535467  0.97494967  1
  O  O79  1  0.16464533  0.70024667  0.97494967  1
  O  O80  1  0.52616400  0.69270200  0.75612100  1
  O  O81  1  0.29975333  0.46439867  0.97494967  1
  O  O82  1  0.69765100  0.52837000  0.74476800  1
  O  O83  1  0.83061100  0.80562100  0.80682700  1
  O  O84  1  0.16653800  0.47383600  0.75612100  1
  O  O85  1  0.83071900  0.30234900  0.74476800  1
  O  O86  1  0.47163000  0.16928100  0.74476800  1
  O  O87  1  0.13339667  0.63821033  0.85906633  1
  O  O88  1  0.02770267  0.83142933  0.90876833  1
  O  O89  1  0.36178967  0.49518633  0.85906633  1
  O  O90  1  0.97501000  0.16938900  0.80682700  1
  O  O91  1  0.30729800  0.83346200  0.75612100  1
  O  O92  1  0.19437900  0.02499000  0.80682700  1
  O  O93  1  0.86064167  0.49955033  0.92340733  1
  O  O94  1  0.50044967  0.36109133  0.92340733  1
  O  O95  1  0.16857067  0.19627333  0.90876833  1
  O  O96  1  0.50481367  0.86660333  0.85906633  1
  O  O97  1  0.63890867  0.13935833  0.92340733  1
  O  O98  1  0.02808333  0.20021467  0.69224767  1
  O  O99  1  0.80372667  0.97229733  0.90876833  1
  O  O100  1  0.17213133  0.97191667  0.69224767  1
  O  O101  1  0.79978533  0.82786867  0.69224767  1
