# generated using pymatgen
data_NaCu(PO3)3
_symmetry_space_group_name_H-M   'P 1'
_cell_length_a   9.71176300
_cell_length_b   9.72647764
_cell_length_c   9.78764975
_cell_angle_alpha   106.83429997
_cell_angle_beta   105.57775646
_cell_angle_gamma   111.87050417
_symmetry_Int_Tables_number   1
_chemical_formula_structural   NaCu(PO3)3
_chemical_formula_sum   'Na4 Cu4 P12 O36'
_cell_volume   743.85294086
_cell_formula_units_Z   4
loop_
 _symmetry_equiv_pos_site_id
 _symmetry_equiv_pos_as_xyz
  1  'x, y, z'
loop_
 _atom_site_type_symbol
 _atom_site_label
 _atom_site_symmetry_multiplicity
 _atom_site_fract_x
 _atom_site_fract_y
 _atom_site_fract_z
 _atom_site_occupancy
  Na  Na0  1  0.93362300  0.34425000  0.50631400  1
  Na  Na1  1  0.17170800  0.37998400  0.31459500  1
  Na  Na2  1  0.82829200  0.62001600  0.68540500  1
  Na  Na3  1  0.06637700  0.65575000  0.49368600  1
  Cu  Cu4  1  0.23204800  0.74597900  0.27591600  1
  Cu  Cu5  1  0.29409500  0.10246300  0.21278300  1
  Cu  Cu6  1  0.70590500  0.89753700  0.78721700  1
  Cu  Cu7  1  0.76795200  0.25402100  0.72408400  1
  P  P8  1  0.91645200  0.81644400  0.08120900  1
  P  P9  1  0.85108000  0.48968100  0.09830200  1
  P  P10  1  0.60100500  0.98394500  0.35188900  1
  P  P11  1  0.78200500  0.04001900  0.15355000  1
  P  P12  1  0.65673600  0.42472500  0.29000800  1
  P  P13  1  0.56815300  0.68917700  0.40924700  1
  P  P14  1  0.43184700  0.31082300  0.59075300  1
  P  P15  1  0.34326400  0.57527500  0.70999200  1
  P  P16  1  0.21799500  0.95998100  0.84645000  1
  P  P17  1  0.39899500  0.01605500  0.64811100  1
  P  P18  1  0.14892000  0.51031900  0.90169800  1
  P  P19  1  0.08354800  0.18355600  0.91879100  1
  O  O20  1  0.27736600  0.97332800  0.01053900  1
  O  O21  1  0.82576500  0.63815300  0.08070800  1
  O  O22  1  0.82120000  0.89394100  0.16099300  1
  O  O23  1  0.62570100  0.98880500  0.19814700  1
  O  O24  1  0.70191300  0.40102900  0.13940100  1
  O  O25  1  0.17910700  0.63393100  0.05404700  1
  O  O26  1  0.09613000  0.90430800  0.19388000  1
  O  O27  1  0.42532600  0.94157100  0.31755600  1
  O  O28  1  0.63665900  0.83896600  0.36222500  1
  O  O29  1  0.60908500  0.56829700  0.29544700  1
  O  O30  1  0.91858600  0.20194000  0.28059900  1
  O  O31  1  0.13075100  0.20117800  0.08409000  1
  O  O32  1  0.51132200  0.26710100  0.24768600  1
  O  O33  1  0.80712200  0.48855700  0.43527100  1
  O  O34  1  0.38715900  0.61741300  0.35693300  1
  O  O35  1  0.01533800  0.56056100  0.23677600  1
  O  O36  1  0.67884400  0.74569900  0.57952200  1
  O  O37  1  0.27129000  0.85804900  0.50294400  1
  O  O38  1  0.72871000  0.14195100  0.49705600  1
  O  O39  1  0.32115600  0.25430100  0.42047800  1
  O  O40  1  0.98466200  0.43943900  0.76322400  1
  O  O41  1  0.61284100  0.38258700  0.64306700  1
  O  O42  1  0.19287800  0.51144300  0.56472900  1
  O  O43  1  0.48867800  0.73289900  0.75231400  1
  O  O44  1  0.86924900  0.79882200  0.91591000  1
  O  O45  1  0.08141400  0.79806000  0.71940100  1
  O  O46  1  0.39091500  0.43170300  0.70455300  1
  O  O47  1  0.36334100  0.16103400  0.63777500  1
  O  O48  1  0.57467400  0.05842900  0.68244400  1
  O  O49  1  0.90387000  0.09569200  0.80612000  1
  O  O50  1  0.82089300  0.36606900  0.94595300  1
  O  O51  1  0.29808700  0.59897100  0.86059900  1
  O  O52  1  0.37429900  0.01119500  0.80185300  1
  O  O53  1  0.17880000  0.10605900  0.83900700  1
  O  O54  1  0.17423500  0.36184700  0.91929200  1
  O  O55  1  0.72263400  0.02667200  0.98946100  1
