# generated using pymatgen
data_Li5Ti(SiO4)2
_symmetry_space_group_name_H-M   'P 1'
_cell_length_a   7.43605000
_cell_length_b   7.64569200
_cell_length_c   6.24773340
_cell_angle_alpha   90.00000000
_cell_angle_beta   92.06399865
_cell_angle_gamma   90.00000000
_symmetry_Int_Tables_number   1
_chemical_formula_structural   Li5Ti(SiO4)2
_chemical_formula_sum   'Li10 Ti2 Si4 O16'
_cell_volume   354.97660929
_cell_formula_units_Z   2
loop_
 _symmetry_equiv_pos_site_id
 _symmetry_equiv_pos_as_xyz
  1  'x, y, z'
loop_
 _atom_site_type_symbol
 _atom_site_label
 _atom_site_symmetry_multiplicity
 _atom_site_fract_x
 _atom_site_fract_y
 _atom_site_fract_z
 _atom_site_occupancy
  Li  Li0  1  0.17991900  0.01154500  0.26742800  1
  Li  Li1  1  0.50000000  0.80116300  0.00000000  1
  Li  Li2  1  0.50000000  0.17302600  0.50000000  1
  Li  Li3  1  0.50000000  0.82032900  0.50000000  1
  Li  Li4  1  0.82008100  0.01154500  0.73257200  1
  Li  Li5  1  0.67991900  0.51154500  0.26742800  1
  Li  Li6  1  0.00000000  0.30116300  0.00000000  1
  Li  Li7  1  0.00000000  0.67302600  0.50000000  1
  Li  Li8  1  0.00000000  0.32032900  0.50000000  1
  Li  Li9  1  0.32008100  0.51154500  0.73257200  1
  Ti  Ti10  1  0.50000000  0.17578700  0.00000000  1
  Ti  Ti11  1  0.00000000  0.67578700  0.00000000  1
  Si  Si12  1  0.17817900  0.00743000  0.74853700  1
  Si  Si13  1  0.82182100  0.00743000  0.25146300  1
  Si  Si14  1  0.67817900  0.50743000  0.74853700  1
  Si  Si15  1  0.32182100  0.50743000  0.25146300  1
  O  O16  1  0.30559000  0.00425600  0.98044000  1
  O  O17  1  0.30654800  0.00082600  0.54466300  1
  O  O18  1  0.45003300  0.32436700  0.23915200  1
  O  O19  1  0.46496600  0.66642400  0.25032900  1
  O  O20  1  0.54996700  0.32436700  0.76084800  1
  O  O21  1  0.53503400  0.66642400  0.74967100  1
  O  O22  1  0.69441000  0.00425600  0.01956000  1
  O  O23  1  0.69345200  0.00082600  0.45533700  1
  O  O24  1  0.80559000  0.50425600  0.98044000  1
  O  O25  1  0.80654800  0.50082600  0.54466300  1
  O  O26  1  0.95003300  0.82436700  0.23915200  1
  O  O27  1  0.96496600  0.16642400  0.25032900  1
  O  O28  1  0.04996700  0.82436700  0.76084800  1
  O  O29  1  0.03503400  0.16642400  0.74967100  1
  O  O30  1  0.19441000  0.50425600  0.01956000  1
  O  O31  1  0.19345200  0.50082600  0.45533700  1
