# generated using pymatgen
data_Li3Mn3SiO8
_symmetry_space_group_name_H-M   'P 1'
_cell_length_a   5.27395685
_cell_length_b   5.64477309
_cell_length_c   5.32458592
_cell_angle_alpha   90.00000000
_cell_angle_beta   111.96388117
_cell_angle_gamma   90.00000000
_symmetry_Int_Tables_number   1
_chemical_formula_structural   Li3Mn3SiO8
_chemical_formula_sum   'Li3 Mn3 Si1 O8'
_cell_volume   147.00945695
_cell_formula_units_Z   1
loop_
 _symmetry_equiv_pos_site_id
 _symmetry_equiv_pos_as_xyz
  1  'x, y, z'
loop_
 _atom_site_type_symbol
 _atom_site_label
 _atom_site_symmetry_multiplicity
 _atom_site_fract_x
 _atom_site_fract_y
 _atom_site_fract_z
 _atom_site_occupancy
  Li  Li0  1  0.00000000  0.50000000  0.00000000  1
  Li  Li1  1  0.00000000  0.24147800  0.50000000  1
  Li  Li2  1  0.00000000  0.75852200  0.50000000  1
  Mn  Mn3  1  0.50000000  0.50000000  0.50000000  1
  Mn  Mn4  1  0.50000000  0.24804150  0.00000000  1
  Mn  Mn5  1  0.50000000  0.75195850  0.00000000  1
  Si  Si6  1  0.50000000  0.00000000  0.50000000  1
  O  O7  1  0.68970100  0.00000000  0.26567950  1
  O  O8  1  0.31029900  0.00000000  0.73432050  1
  O  O9  1  0.73589650  0.50000000  0.21170150  1
  O  O10  1  0.26410350  0.50000000  0.78829850  1
  O  O11  1  0.28157300  0.23418200  0.29979950  1
  O  O12  1  0.71842700  0.23418200  0.70020050  1
  O  O13  1  0.28157300  0.76581800  0.29979950  1
  O  O14  1  0.71842700  0.76581800  0.70020050  1
