# generated using pymatgen
data_Li2MnFe(BO3)2
_symmetry_space_group_name_H-M   'P 1'
_cell_length_a   8.26073100
_cell_length_b   6.31255700
_cell_length_c   8.26888446
_cell_angle_alpha   90.00000000
_cell_angle_beta   119.96021707
_cell_angle_gamma   90.00000000
_symmetry_Int_Tables_number   1
_chemical_formula_structural   Li2MnFe(BO3)2
_chemical_formula_sum   'Li6 Mn3 Fe3 B6 O18'
_cell_volume   373.57285228
_cell_formula_units_Z   3
loop_
 _symmetry_equiv_pos_site_id
 _symmetry_equiv_pos_as_xyz
  1  'x, y, z'
loop_
 _atom_site_type_symbol
 _atom_site_label
 _atom_site_symmetry_multiplicity
 _atom_site_fract_x
 _atom_site_fract_y
 _atom_site_fract_z
 _atom_site_occupancy
  Li  Li0  1  0.01723100  0.74980200  0.30193300  1
  Li  Li1  1  0.01723100  0.25019800  0.30193300  1
  Li  Li2  1  0.69821100  0.74913200  0.71525000  1
  Li  Li3  1  0.69821100  0.25086800  0.71525000  1
  Li  Li4  1  0.28484100  0.24993500  0.98316900  1
  Li  Li5  1  0.28484100  0.75006500  0.98316900  1
  Mn  Mn6  1  0.63944500  0.50000000  0.01270400  1
  Mn  Mn7  1  0.98734900  0.00000000  0.62820900  1
  Mn  Mn8  1  0.37186700  0.00000000  0.35945200  1
  Fe  Fe9  1  0.64071600  0.00000000  0.00724000  1
  Fe  Fe10  1  0.99269000  0.50000000  0.63274600  1
  Fe  Fe11  1  0.36751800  0.50000000  0.36000200  1
  B  B12  1  0.99991700  0.00000000  0.00265900  1
  B  B13  1  0.00024300  0.50000000  0.99745200  1
  B  B14  1  0.33333800  0.74807500  0.66660600  1
  B  B15  1  0.33333800  0.25192500  0.66660600  1
  B  B16  1  0.66660500  0.74854200  0.33328300  1
  B  B17  1  0.66660500  0.25145800  0.33328300  1
  O  O18  1  0.08513300  0.50000000  0.19198200  1
  O  O19  1  0.07893900  0.00000000  0.19552300  1
  O  O20  1  0.41936000  0.74550300  0.55896000  1
  O  O21  1  0.41936000  0.25449700  0.55896000  1
  O  O22  1  0.80492700  0.00000000  0.88893400  1
  O  O23  1  0.80720500  0.50000000  0.88737800  1
  O  O24  1  0.13961000  0.74623200  0.58079500  1
  O  O25  1  0.13961000  0.25376800  0.58079500  1
  O  O26  1  0.44097600  0.75398500  0.86012600  1
  O  O27  1  0.44097600  0.24601500  0.86012600  1
  O  O28  1  0.74753900  0.75198900  0.22046700  1
  O  O29  1  0.74753900  0.24801100  0.22046700  1
  O  O30  1  0.11243300  0.00000000  0.92164900  1
  O  O31  1  0.11176500  0.50000000  0.91437900  1
  O  O32  1  0.47287200  0.74771600  0.25242500  1
  O  O33  1  0.47287200  0.25228400  0.25242500  1
  O  O34  1  0.77934100  0.25319600  0.52682700  1
  O  O35  1  0.77934100  0.74680400  0.52682700  1
