# generated using pymatgen
data_Mg2BO3F
_symmetry_space_group_name_H-M   'P 1'
_cell_length_a   3.13881100
_cell_length_b   9.44119300
_cell_length_c   9.50429500
_cell_angle_alpha   90.00000000
_cell_angle_beta   90.00000000
_cell_angle_gamma   90.00000000
_symmetry_Int_Tables_number   1
_chemical_formula_structural   Mg2BO3F
_chemical_formula_sum   'Mg8 B4 O12 F4'
_cell_volume   281.65142274
_cell_formula_units_Z   4
loop_
 _symmetry_equiv_pos_site_id
 _symmetry_equiv_pos_as_xyz
  1  'x, y, z'
loop_
 _atom_site_type_symbol
 _atom_site_label
 _atom_site_symmetry_multiplicity
 _atom_site_fract_x
 _atom_site_fract_y
 _atom_site_fract_z
 _atom_site_occupancy
  Mg  Mg0  1  0.25000000  0.60052300  0.18085300  1
  Mg  Mg1  1  0.75000000  0.89947700  0.68085300  1
  Mg  Mg2  1  0.25000000  0.10052300  0.31914700  1
  Mg  Mg3  1  0.75000000  0.39947700  0.81914700  1
  Mg  Mg4  1  0.75000000  0.36437700  0.43038500  1
  Mg  Mg5  1  0.25000000  0.63562300  0.56961500  1
  Mg  Mg6  1  0.75000000  0.86437700  0.06961500  1
  Mg  Mg7  1  0.25000000  0.13562300  0.93038500  1
  B  B8  1  0.75000000  0.82661900  0.36933400  1
  B  B9  1  0.75000000  0.32661900  0.13066600  1
  B  B10  1  0.25000000  0.67338100  0.86933400  1
  B  B11  1  0.25000000  0.17338100  0.63066600  1
  O  O12  1  0.25000000  0.25744700  0.75183400  1
  O  O13  1  0.25000000  0.75744700  0.74816600  1
  O  O14  1  0.75000000  0.74255300  0.24816600  1
  O  O15  1  0.75000000  0.47049200  0.14380800  1
  O  O16  1  0.25000000  0.02950800  0.64380800  1
  O  O17  1  0.75000000  0.24255300  0.25183400  1
  O  O18  1  0.75000000  0.97049200  0.35619200  1
  O  O19  1  0.25000000  0.52950800  0.85619200  1
  O  O20  1  0.25000000  0.23794900  0.49789200  1
  O  O21  1  0.75000000  0.76205100  0.50210800  1
  O  O22  1  0.25000000  0.73794900  0.00210800  1
  O  O23  1  0.75000000  0.26205100  0.99789200  1
  F  F24  1  0.25000000  0.50718300  0.39035000  1
  F  F25  1  0.25000000  0.00718300  0.10965000  1
  F  F26  1  0.75000000  0.99281700  0.89035000  1
  F  F27  1  0.75000000  0.49281700  0.60965000  1
