# generated using pymatgen
data_MnH8(NO5)2
_symmetry_space_group_name_H-M   'P 1'
_cell_length_a   5.45637300
_cell_length_b   27.69944400
_cell_length_c   6.22066706
_cell_angle_alpha   90.00000000
_cell_angle_beta   120.00356795
_cell_angle_gamma   90.00000000
_symmetry_Int_Tables_number   1
_chemical_formula_structural   MnH8(NO5)2
_chemical_formula_sum   'Mn4 H32 N8 O40'
_cell_volume   814.19246123
_cell_formula_units_Z   4
loop_
 _symmetry_equiv_pos_site_id
 _symmetry_equiv_pos_as_xyz
  1  'x, y, z'
loop_
 _atom_site_type_symbol
 _atom_site_label
 _atom_site_symmetry_multiplicity
 _atom_site_fract_x
 _atom_site_fract_y
 _atom_site_fract_z
 _atom_site_occupancy
  Mn  Mn0  1  0.30021100  0.37410900  0.77981000  1
  Mn  Mn1  1  0.30021100  0.12589100  0.27981000  1
  Mn  Mn2  1  0.69978900  0.62589100  0.22019000  1
  Mn  Mn3  1  0.69978900  0.87410900  0.72019000  1
  H  H4  1  0.24494800  0.36933700  0.20742900  1
  H  H5  1  0.24494800  0.13066300  0.70742900  1
  H  H6  1  0.75505200  0.63066300  0.79257100  1
  H  H7  1  0.75505200  0.86933700  0.29257100  1
  H  H8  1  0.32544300  0.31798800  0.15318500  1
  H  H9  1  0.32544300  0.18201200  0.65318500  1
  H  H10  1  0.67455700  0.68201200  0.84681500  1
  H  H11  1  0.67455700  0.81798800  0.34681500  1
  H  H12  1  0.68535300  0.44765700  0.11217700  1
  H  H13  1  0.68535300  0.05234300  0.61217700  1
  H  H14  1  0.31464700  0.55234300  0.88782300  1
  H  H15  1  0.31464700  0.94765700  0.38782300  1
  H  H16  1  0.75195000  0.39486700  0.23795600  1
  H  H17  1  0.75195000  0.10513300  0.73795600  1
  H  H18  1  0.24805000  0.60513300  0.76204400  1
  H  H19  1  0.24805000  0.89486700  0.26204400  1
  H  H20  1  0.58306400  0.41425300  0.56657700  1
  H  H21  1  0.58306400  0.08574700  0.06657700  1
  H  H22  1  0.41693600  0.58574700  0.43342300  1
  H  H23  1  0.41693600  0.91425300  0.93342300  1
  H  H24  1  0.29463400  0.44235300  0.43180100  1
  H  H25  1  0.29463400  0.05764700  0.93180100  1
  H  H26  1  0.70536600  0.55764700  0.56819900  1
  H  H27  1  0.70536600  0.94235300  0.06819900  1
  H  H28  1  0.60533400  0.28731000  0.82886800  1
  H  H29  1  0.60533400  0.21269000  0.32886800  1
  H  H30  1  0.39466600  0.71269000  0.17113200  1
  H  H31  1  0.39466600  0.78731000  0.67113200  1
  H  H32  1  0.81940400  0.33164300  0.92092400  1
  H  H33  1  0.81940400  0.16835700  0.42092400  1
  H  H34  1  0.18059600  0.66835700  0.07907600  1
  H  H35  1  0.18059600  0.83164300  0.57907600  1
  N  N36  1  0.99305300  0.47300500  0.73572300  1
  N  N37  1  0.99305300  0.02699500  0.23572300  1
  N  N38  1  0.00694700  0.52699500  0.26427700  1
  N  N39  1  0.00694700  0.97300500  0.76427700  1
  N  N40  1  0.87779500  0.29487300  0.48129300  1
  N  N41  1  0.87779500  0.20512700  0.98129300  1
  N  N42  1  0.12220500  0.70512700  0.51870700  1
  N  N43  1  0.12220500  0.79487300  0.01870700  1
  O  O44  1  0.95020100  0.42672800  0.69866400  1
  O  O45  1  0.95020100  0.07327200  0.19866400  1
  O  O46  1  0.04979900  0.57327200  0.30133600  1
  O  O47  1  0.04979900  0.92672800  0.80133600  1
  O  O48  1  0.22728500  0.48975400  0.77921000  1
  O  O49  1  0.22728500  0.01024600  0.27921000  1
  O  O50  1  0.77271500  0.51024600  0.22079000  1
  O  O51  1  0.77271500  0.98975400  0.72079000  1
  O  O52  1  0.79791200  0.49838900  0.72422600  1
  O  O53  1  0.79791200  0.00161100  0.22422600  1
  O  O54  1  0.20208800  0.50161100  0.27577400  1
  O  O55  1  0.20208800  0.99838900  0.77577400  1
  O  O56  1  0.92377600  0.34071500  0.47017000  1
  O  O57  1  0.92377600  0.15928500  0.97017000  1
  O  O58  1  0.07622400  0.65928500  0.52983000  1
  O  O59  1  0.07622400  0.84071500  0.02983000  1
  O  O60  1  0.63745700  0.27824800  0.32471600  1
  O  O61  1  0.63745700  0.22175200  0.82471600  1
  O  O62  1  0.36254300  0.72175200  0.67528400  1
  O  O63  1  0.36254300  0.77824800  0.17528400  1
  O  O64  1  0.06660700  0.26941900  0.64295200  1
  O  O65  1  0.06660700  0.23058100  0.14295200  1
  O  O66  1  0.93339300  0.73058100  0.35704800  1
  O  O67  1  0.93339300  0.76941900  0.85704800  1
  O  O68  1  0.20120800  0.34630000  0.07076800  1
  O  O69  1  0.20120800  0.15370000  0.57076800  1
  O  O70  1  0.79879200  0.65370000  0.92923200  1
  O  O71  1  0.79879200  0.84630000  0.42923200  1
  O  O72  1  0.65472000  0.41258100  0.08044900  1
  O  O73  1  0.65472000  0.08741900  0.58044900  1
  O  O74  1  0.34528000  0.58741900  0.91955100  1
  O  O75  1  0.34528000  0.91258100  0.41955100  1
  O  O76  1  0.37409500  0.40954100  0.48731400  1
  O  O77  1  0.37409500  0.09045900  0.98731400  1
  O  O78  1  0.62590500  0.59045900  0.51268600  1
  O  O79  1  0.62590500  0.90954100  0.01268600  1
  O  O80  1  0.61685200  0.32292600  0.82254800  1
  O  O81  1  0.61685200  0.17707400  0.32254800  1
  O  O82  1  0.38314800  0.67707400  0.17745200  1
  O  O83  1  0.38314800  0.82292600  0.67745200  1
