# generated using pymatgen
data_MoO3
_symmetry_space_group_name_H-M   'P 1'
_cell_length_a   5.65551100
_cell_length_b   5.47523100
_cell_length_c   7.28723916
_cell_angle_alpha   90.00000000
_cell_angle_beta   90.59289669
_cell_angle_gamma   90.00000000
_symmetry_Int_Tables_number   1
_chemical_formula_structural   MoO3
_chemical_formula_sum   'Mo4 O12'
_cell_volume   225.63894905
_cell_formula_units_Z   4
loop_
 _symmetry_equiv_pos_site_id
 _symmetry_equiv_pos_as_xyz
  1  'x, y, z'
loop_
 _atom_site_type_symbol
 _atom_site_label
 _atom_site_symmetry_multiplicity
 _atom_site_fract_x
 _atom_site_fract_y
 _atom_site_fract_z
 _atom_site_occupancy
  Mo  Mo0  1  0.69723500  0.75469600  0.50152400  1
  Mo  Mo1  1  0.19723500  0.24530400  0.50152400  1
  Mo  Mo2  1  0.04111500  0.25144100  0.00126700  1
  Mo  Mo3  1  0.54111500  0.74855900  0.00126700  1
  O  O4  1  0.87022400  0.01785900  0.46004400  1
  O  O5  1  0.37022400  0.98214100  0.46004400  1
  O  O6  1  0.83546700  0.01597300  0.04570000  1
  O  O7  1  0.33546700  0.98402700  0.04570000  1
  O  O8  1  0.11110400  0.17370900  0.75240600  1
  O  O9  1  0.61110400  0.82629100  0.75240600  1
  O  O10  1  0.41895000  0.46508900  0.54589700  1
  O  O11  1  0.91895000  0.53491100  0.54589700  1
  O  O12  1  0.12449000  0.32860600  0.25321100  1
  O  O13  1  0.62449000  0.67139400  0.25321100  1
  O  O14  1  0.85021600  0.50181500  0.96075000  1
  O  O15  1  0.35021600  0.49818500  0.96075000  1
