# generated using pymatgen
data_Mg(AgO2)2
_symmetry_space_group_name_H-M   'P 1'
_cell_length_a   5.89188400
_cell_length_b   5.89188400
_cell_length_c   11.81172000
_cell_angle_alpha   90.00000000
_cell_angle_beta   90.00000000
_cell_angle_gamma   90.00000000
_symmetry_Int_Tables_number   1
_chemical_formula_structural   Mg(AgO2)2
_chemical_formula_sum   'Mg4 Ag8 O16'
_cell_volume   410.03555698
_cell_formula_units_Z   4
loop_
 _symmetry_equiv_pos_site_id
 _symmetry_equiv_pos_as_xyz
  1  'x, y, z'
loop_
 _atom_site_type_symbol
 _atom_site_label
 _atom_site_symmetry_multiplicity
 _atom_site_fract_x
 _atom_site_fract_y
 _atom_site_fract_z
 _atom_site_occupancy
  Mg  Mg0  1  0.50000000  0.00000000  0.25000000  1
  Mg  Mg1  1  0.50000000  0.50000000  0.00000000  1
  Mg  Mg2  1  0.00000000  0.50000000  0.75000000  1
  Mg  Mg3  1  0.00000000  0.00000000  0.50000000  1
  Ag  Ag4  1  0.75000000  0.50000000  0.37500000  1
  Ag  Ag5  1  0.25000000  0.50000000  0.37500000  1
  Ag  Ag6  1  0.00000000  0.75000000  0.12500000  1
  Ag  Ag7  1  0.00000000  0.25000000  0.12500000  1
  Ag  Ag8  1  0.25000000  0.00000000  0.87500000  1
  Ag  Ag9  1  0.75000000  0.00000000  0.87500000  1
  Ag  Ag10  1  0.50000000  0.25000000  0.62500000  1
  Ag  Ag11  1  0.50000000  0.75000000  0.62500000  1
  O  O12  1  0.76542700  0.50000000  0.10627500  1
  O  O13  1  0.00000000  0.26542700  0.39372500  1
  O  O14  1  0.00000000  0.73457300  0.39372500  1
  O  O15  1  0.76542700  0.00000000  0.14372500  1
  O  O16  1  0.50000000  0.26542700  0.35627500  1
  O  O17  1  0.50000000  0.73457300  0.35627500  1
  O  O18  1  0.23457300  0.50000000  0.10627500  1
  O  O19  1  0.23457300  0.00000000  0.14372500  1
  O  O20  1  0.26542700  0.00000000  0.60627500  1
  O  O21  1  0.50000000  0.76542700  0.89372500  1
  O  O22  1  0.50000000  0.23457300  0.89372500  1
  O  O23  1  0.26542700  0.50000000  0.64372500  1
  O  O24  1  0.00000000  0.76542700  0.85627500  1
  O  O25  1  0.00000000  0.23457300  0.85627500  1
  O  O26  1  0.73457300  0.00000000  0.60627500  1
  O  O27  1  0.73457300  0.50000000  0.64372500  1
