# generated using pymatgen
data_Li3Mn2Fe(BO3)3
_symmetry_space_group_name_H-M   'P 1'
_cell_length_a   8.27475800
_cell_length_b   3.17140800
_cell_length_c   14.30438183
_cell_angle_alpha   90.00000000
_cell_angle_beta   90.03605324
_cell_angle_gamma   90.00000000
_symmetry_Int_Tables_number   1
_chemical_formula_structural   Li3Mn2Fe(BO3)3
_chemical_formula_sum   'Li6 Mn4 Fe2 B6 O18'
_cell_volume   375.38457868
_cell_formula_units_Z   2
loop_
 _symmetry_equiv_pos_site_id
 _symmetry_equiv_pos_as_xyz
  1  'x, y, z'
loop_
 _atom_site_type_symbol
 _atom_site_label
 _atom_site_symmetry_multiplicity
 _atom_site_fract_x
 _atom_site_fract_y
 _atom_site_fract_z
 _atom_site_occupancy
  Li  Li0  1  0.29225400  0.50000000  0.99011300  1
  Li  Li1  1  0.33928900  0.50000000  0.35884200  1
  Li  Li2  1  0.36485000  0.50000000  0.65038800  1
  Li  Li3  1  0.79308800  0.50000000  0.49193200  1
  Li  Li4  1  0.84229200  0.50000000  0.85672300  1
  Li  Li5  1  0.86716900  0.50000000  0.15078600  1
  Mn  Mn6  1  0.19157100  0.00000000  0.17987400  1
  Mn  Mn7  1  0.63431100  0.00000000  0.00547000  1
  Mn  Mn8  1  0.67406600  0.00000000  0.31461700  1
  Mn  Mn9  1  0.69201400  0.00000000  0.67995400  1
  Fe  Fe10  1  0.13764700  0.00000000  0.50434100  1
  Fe  Fe11  1  0.17569400  0.00000000  0.81619100  1
  B  B12  1  0.00266200  0.50000000  0.66623800  1
  B  B13  1  0.99926900  0.00000000  0.99880000  1
  B  B14  1  0.00096000  0.50000000  0.33451900  1
  B  B15  1  0.49996000  0.50000000  0.16670400  1
  B  B16  1  0.49870200  0.00000000  0.50089100  1
  B  B17  1  0.49792800  0.50000000  0.83333400  1
  O  O18  1  0.01233900  0.50000000  0.43145900  1
  O  O19  1  0.01977900  0.50000000  0.76317700  1
  O  O20  1  0.13788100  0.50000000  0.60852100  1
  O  O21  1  0.14014700  0.50000000  0.28014500  1
  O  O22  1  0.15282500  0.00000000  0.95823800  1
  O  O23  1  0.34776800  0.50000000  0.12494100  1
  O  O24  1  0.34688000  0.50000000  0.79047900  1
  O  O25  1  0.36100200  0.00000000  0.44418100  1
  O  O26  1  0.48152400  0.00000000  0.59754300  1
  O  O27  1  0.50920100  0.50000000  0.93022500  1
  O  O28  1  0.51355500  0.50000000  0.26382100  1
  O  O29  1  0.63843900  0.50000000  0.11160500  1
  O  O30  1  0.63793600  0.50000000  0.77980600  1
  O  O31  1  0.65219300  0.00000000  0.46075600  1
  O  O32  1  0.84850500  0.50000000  0.62636300  1
  O  O33  1  0.85044500  0.50000000  0.29130600  1
  O  O34  1  0.86296700  0.00000000  0.94185700  1
  O  O35  1  0.98288900  0.00000000  0.09586000  1
