# generated using pymatgen
data_Li3Fe2(SiO4)2
_symmetry_space_group_name_H-M   'P 1'
_cell_length_a   5.06805200
_cell_length_b   6.32692700
_cell_length_c   10.96495158
_cell_angle_alpha   90.00000000
_cell_angle_beta   90.04627576
_cell_angle_gamma   90.00000000
_symmetry_Int_Tables_number   1
_chemical_formula_structural   Li3Fe2(SiO4)2
_chemical_formula_sum   'Li6 Fe4 Si4 O16'
_cell_volume   351.59319618
_cell_formula_units_Z   2
loop_
 _symmetry_equiv_pos_site_id
 _symmetry_equiv_pos_as_xyz
  1  'x, y, z'
loop_
 _atom_site_type_symbol
 _atom_site_label
 _atom_site_symmetry_multiplicity
 _atom_site_fract_x
 _atom_site_fract_y
 _atom_site_fract_z
 _atom_site_occupancy
  Li  Li0  1  0.23788900  0.73563600  0.82595000  1
  Li  Li1  1  0.23788900  0.26436400  0.32595000  1
  Li  Li2  1  0.74025400  0.25697500  0.67376500  1
  Li  Li3  1  0.74350200  0.00442100  0.90670100  1
  Li  Li4  1  0.74350200  0.99557900  0.40670100  1
  Li  Li5  1  0.74025400  0.74302500  0.17376500  1
  Fe  Fe6  1  0.74026900  0.50576000  0.42195700  1
  Fe  Fe7  1  0.74026900  0.49424000  0.92195700  1
  Fe  Fe8  1  0.23753400  0.01255000  0.08597100  1
  Fe  Fe9  1  0.23753400  0.98745000  0.58597100  1
  Si  Si10  1  0.73704500  0.74408000  0.66907300  1
  Si  Si11  1  0.73704500  0.25592000  0.16907300  1
  Si  Si12  1  0.23427200  0.24361800  0.83117600  1
  Si  Si13  1  0.23427200  0.75638200  0.33117600  1
  O  O14  1  0.84625600  0.75311100  0.81037900  1
  O  O15  1  0.41217000  0.77131600  0.66904000  1
  O  O16  1  0.35622600  0.53884800  0.38626500  1
  O  O17  1  0.81409600  0.52560900  0.59858800  1
  O  O18  1  0.81409600  0.47439100  0.09858800  1
  O  O19  1  0.35622600  0.46115200  0.88626500  1
  O  O20  1  0.41217000  0.22868400  0.16904000  1
  O  O21  1  0.84625600  0.24688900  0.31037900  1
  O  O22  1  0.34657200  0.20963300  0.69045200  1
  O  O23  1  0.91170100  0.24405200  0.83167400  1
  O  O24  1  0.85667900  0.04095200  0.09392700  1
  O  O25  1  0.33661500  0.03206600  0.91541300  1
  O  O26  1  0.33661500  0.96793400  0.41541300  1
  O  O27  1  0.85667900  0.95904800  0.59392700  1
  O  O28  1  0.91170100  0.75594800  0.33167400  1
  O  O29  1  0.34657200  0.79036700  0.19045200  1
