# generated using pymatgen
data_Ba2ZnF6
_symmetry_space_group_name_H-M   'P 1'
_cell_length_a   4.20041400
_cell_length_b   4.20041400
_cell_length_c   16.33883200
_cell_angle_alpha   90.00000000
_cell_angle_beta   90.00000000
_cell_angle_gamma   90.00000000
_symmetry_Int_Tables_number   1
_chemical_formula_structural   Ba2ZnF6
_chemical_formula_sum   'Ba4 Zn2 F12'
_cell_volume   288.27381920
_cell_formula_units_Z   2
loop_
 _symmetry_equiv_pos_site_id
 _symmetry_equiv_pos_as_xyz
  1  'x, y, z'
loop_
 _atom_site_type_symbol
 _atom_site_label
 _atom_site_symmetry_multiplicity
 _atom_site_fract_x
 _atom_site_fract_y
 _atom_site_fract_z
 _atom_site_occupancy
  Ba  Ba0  1  0.50000000  0.50000000  0.34818600  1
  Ba  Ba1  1  0.00000000  0.00000000  0.15181400  1
  Ba  Ba2  1  0.00000000  0.00000000  0.84818600  1
  Ba  Ba3  1  0.50000000  0.50000000  0.65181400  1
  Zn  Zn4  1  0.50000000  0.50000000  0.00000000  1
  Zn  Zn5  1  0.00000000  0.00000000  0.50000000  1
  F  F6  1  0.50000000  0.50000000  0.12063600  1
  F  F7  1  0.00000000  0.00000000  0.37936400  1
  F  F8  1  0.00000000  0.50000000  0.00000000  1
  F  F9  1  0.50000000  0.00000000  0.25000000  1
  F  F10  1  0.00000000  0.50000000  0.25000000  1
  F  F11  1  0.50000000  0.00000000  0.00000000  1
  F  F12  1  0.00000000  0.00000000  0.62063600  1
  F  F13  1  0.50000000  0.50000000  0.87936400  1
  F  F14  1  0.50000000  0.00000000  0.50000000  1
  F  F15  1  0.00000000  0.50000000  0.75000000  1
  F  F16  1  0.50000000  0.00000000  0.75000000  1
  F  F17  1  0.00000000  0.50000000  0.50000000  1
