# generated using pymatgen
data_Sc2O3
_symmetry_space_group_name_H-M   'P 1'
_cell_length_a   5.45787100
_cell_length_b   9.33456800
_cell_length_c   9.94101700
_cell_angle_alpha   90.00000000
_cell_angle_beta   90.00000000
_cell_angle_gamma   90.00000000
_symmetry_Int_Tables_number   1
_chemical_formula_structural   Sc2O3
_chemical_formula_sum   'Sc16 O24'
_cell_volume   506.46368073
_cell_formula_units_Z   8
loop_
 _symmetry_equiv_pos_site_id
 _symmetry_equiv_pos_as_xyz
  1  'x, y, z'
loop_
 _atom_site_type_symbol
 _atom_site_label
 _atom_site_symmetry_multiplicity
 _atom_site_fract_x
 _atom_site_fract_y
 _atom_site_fract_z
 _atom_site_occupancy
  Sc  Sc0  1  0.18037500  0.16217300  0.87045700  1
  Sc  Sc1  1  0.17676900  0.85332200  0.05824300  1
  Sc  Sc2  1  0.17059700  0.52992900  0.86046000  1
  Sc  Sc3  1  0.18501200  0.84457000  0.64658100  1
  Sc  Sc4  1  0.32323100  0.35332200  0.55824300  1
  Sc  Sc5  1  0.32940300  0.02992900  0.36046000  1
  Sc  Sc6  1  0.31498800  0.34457000  0.14658100  1
  Sc  Sc7  1  0.31962500  0.66217300  0.37045700  1
  Sc  Sc8  1  0.68501200  0.65543000  0.64658100  1
  Sc  Sc9  1  0.67059700  0.97007100  0.86046000  1
  Sc  Sc10  1  0.68037500  0.33782700  0.87045700  1
  Sc  Sc11  1  0.67676900  0.64667800  0.05824300  1
  Sc  Sc12  1  0.82323100  0.14667800  0.55824300  1
  Sc  Sc13  1  0.81498800  0.15543000  0.14658100  1
  Sc  Sc14  1  0.82940300  0.47007100  0.36046000  1
  Sc  Sc15  1  0.81962500  0.83782700  0.37045700  1
  O  O16  1  0.96960100  0.01749900  0.99403400  1
  O  O17  1  0.00858200  0.32472400  0.99046600  1
  O  O18  1  0.03039900  0.98250100  0.49403400  1
  O  O19  1  0.02256500  0.67169000  0.00207200  1
  O  O20  1  0.97743500  0.32831000  0.50207200  1
  O  O21  1  0.99141800  0.67527600  0.49046600  1
  O  O22  1  0.15853900  0.16582200  0.23362000  1
  O  O23  1  0.16561800  0.49320800  0.27124200  1
  O  O24  1  0.16230900  0.83841500  0.26032800  1
  O  O25  1  0.33769100  0.33841500  0.76032800  1
  O  O26  1  0.33438200  0.99320800  0.77124200  1
  O  O27  1  0.34146100  0.66582200  0.73362000  1
  O  O28  1  0.50858200  0.17527600  0.99046600  1
  O  O29  1  0.47743500  0.17169000  0.50207200  1
  O  O30  1  0.52256500  0.82831000  0.00207200  1
  O  O31  1  0.49141800  0.82472400  0.49046600  1
  O  O32  1  0.53039900  0.51749900  0.49403400  1
  O  O33  1  0.46960100  0.48250100  0.99403400  1
  O  O34  1  0.66230900  0.66158500  0.26032800  1
  O  O35  1  0.66561800  0.00679200  0.27124200  1
  O  O36  1  0.65853900  0.33417800  0.23362000  1
  O  O37  1  0.83769100  0.16158500  0.76032800  1
  O  O38  1  0.83438200  0.50679200  0.77124200  1
  O  O39  1  0.84146100  0.83417800  0.73362000  1
