# generated using pymatgen
data_V3P2O11
_symmetry_space_group_name_H-M   'P 1'
_cell_length_a   9.91557800
_cell_length_b   7.42157300
_cell_length_c   11.99354072
_cell_angle_alpha   90.00000000
_cell_angle_beta   100.78188731
_cell_angle_gamma   90.00000000
_symmetry_Int_Tables_number   1
_chemical_formula_structural   V3P2O11
_chemical_formula_sum   'V12 P8 O44'
_cell_volume   867.01395426
_cell_formula_units_Z   4
loop_
 _symmetry_equiv_pos_site_id
 _symmetry_equiv_pos_as_xyz
  1  'x, y, z'
loop_
 _atom_site_type_symbol
 _atom_site_label
 _atom_site_symmetry_multiplicity
 _atom_site_fract_x
 _atom_site_fract_y
 _atom_site_fract_z
 _atom_site_occupancy
  V  V0  1  0.51237800  0.20174500  0.16389800  1
  V  V1  1  0.93426300  0.86235400  0.26548900  1
  V  V2  1  0.01237800  0.29825500  0.16389800  1
  V  V3  1  0.43426300  0.63764600  0.26548900  1
  V  V4  1  0.82012000  0.31391100  0.31997800  1
  V  V5  1  0.32012000  0.18608900  0.31997800  1
  V  V6  1  0.67988000  0.81391100  0.68002200  1
  V  V7  1  0.17988000  0.68608900  0.68002200  1
  V  V8  1  0.56573700  0.36235400  0.73451100  1
  V  V9  1  0.98762200  0.70174500  0.83610200  1
  V  V10  1  0.06573700  0.13764600  0.73451100  1
  V  V11  1  0.48762200  0.79825500  0.83610200  1
  P  P12  1  0.64068700  0.80791500  0.09525700  1
  P  P13  1  0.14068700  0.69208500  0.09525700  1
  P  P14  1  0.74438200  0.70103200  0.42821500  1
  P  P15  1  0.24438200  0.79896800  0.42821500  1
  P  P16  1  0.75561800  0.20103200  0.57178500  1
  P  P17  1  0.25561800  0.29896800  0.57178500  1
  P  P18  1  0.85931300  0.30791500  0.90474300  1
  P  P19  1  0.35931300  0.19208500  0.90474300  1
  O  O20  1  0.88495500  0.24596300  0.03184000  1
  O  O21  1  0.79720500  0.78238300  0.14314800  1
  O  O22  1  0.38495500  0.25403700  0.03184000  1
  O  O23  1  0.60618500  0.00918200  0.09897600  1
  O  O24  1  0.29720500  0.71761700  0.14314800  1
  O  O25  1  0.55994900  0.68085600  0.15844800  1
  O  O26  1  0.10618500  0.49081800  0.09897600  1
  O  O27  1  0.05994900  0.81914400  0.15844800  1
  O  O28  1  0.92207200  0.11264600  0.25768800  1
  O  O29  1  0.96297400  0.44334900  0.26122700  1
  O  O30  1  0.68134800  0.32235000  0.21177800  1
  O  O31  1  0.42207200  0.38735400  0.25768800  1
  O  O32  1  0.46297400  0.05665100  0.26122700  1
  O  O33  1  0.18134800  0.17765000  0.21177800  1
  O  O34  1  0.80284600  0.86359500  0.37063300  1
  O  O35  1  0.30284600  0.63640500  0.37063300  1
  O  O36  1  0.58607900  0.68140600  0.38141600  1
  O  O37  1  0.82615900  0.53457600  0.40496400  1
  O  O38  1  0.08607900  0.81859400  0.38141600  1
  O  O39  1  0.32615900  0.96542400  0.40496400  1
  O  O40  1  0.74039700  0.21864800  0.44310700  1
  O  O41  1  0.75960300  0.71864800  0.55689300  1
  O  O42  1  0.24039700  0.28135200  0.44310700  1
  O  O43  1  0.25960300  0.78135200  0.55689300  1
  O  O44  1  0.67384100  0.03457600  0.59503600  1
  O  O45  1  0.91392100  0.18140600  0.61858400  1
  O  O46  1  0.17384100  0.46542400  0.59503600  1
  O  O47  1  0.41392100  0.31859400  0.61858400  1
  O  O48  1  0.69715400  0.36359500  0.62936700  1
  O  O49  1  0.19715400  0.13640500  0.62936700  1
  O  O50  1  0.81865200  0.82235000  0.78822200  1
  O  O51  1  0.53702600  0.94334900  0.73877300  1
  O  O52  1  0.57792800  0.61264600  0.74231200  1
  O  O53  1  0.31865200  0.67765000  0.78822200  1
  O  O54  1  0.03702600  0.55665100  0.73877300  1
  O  O55  1  0.07792800  0.88735400  0.74231200  1
  O  O56  1  0.94005100  0.18085600  0.84155200  1
  O  O57  1  0.89381500  0.50918200  0.90102400  1
  O  O58  1  0.44005100  0.31914400  0.84155200  1
  O  O59  1  0.70279500  0.28238300  0.85685200  1
  O  O60  1  0.39381500  0.99081800  0.90102400  1
  O  O61  1  0.61504500  0.74596300  0.96816000  1
  O  O62  1  0.20279500  0.21761700  0.85685200  1
  O  O63  1  0.11504500  0.75403700  0.96816000  1
