# generated using pymatgen
data_Tm4(B2O5)3
_symmetry_space_group_name_H-M   'P 1'
_cell_length_a   13.42494174
_cell_length_b   13.42494174
_cell_length_c   6.88469357
_cell_angle_alpha   90.00000000
_cell_angle_beta   90.00000000
_cell_angle_gamma   120.00000000
_symmetry_Int_Tables_number   1
_chemical_formula_structural   Tm4(B2O5)3
_chemical_formula_sum   'Tm12 B18 O45'
_cell_volume   1074.58324915
_cell_formula_units_Z   3
loop_
 _symmetry_equiv_pos_site_id
 _symmetry_equiv_pos_as_xyz
  1  'x, y, z'
loop_
 _atom_site_type_symbol
 _atom_site_label
 _atom_site_symmetry_multiplicity
 _atom_site_fract_x
 _atom_site_fract_y
 _atom_site_fract_z
 _atom_site_occupancy
  Tm  Tm0  1  0.40789433  0.29157267  0.39247767  1
  Tm  Tm1  1  0.21701167  0.25877233  0.05914433  1
  Tm  Tm2  1  0.00000000  0.00000000  0.99406200  1
  Tm  Tm3  1  0.37509400  0.44965500  0.72581100  1
  Tm  Tm4  1  0.07456100  0.62490600  0.72581100  1
  Tm  Tm5  1  0.88367833  0.59210567  0.39247767  1
  Tm  Tm6  1  0.66666667  0.33333333  0.32739533  1
  Tm  Tm7  1  0.04176067  0.78298833  0.05914433  1
  Tm  Tm8  1  0.74122767  0.95823933  0.05914433  1
  Tm  Tm9  1  0.55034500  0.92543900  0.72581100  1
  Tm  Tm10  1  0.33333333  0.66666667  0.66072867  1
  Tm  Tm11  1  0.70842733  0.11632167  0.39247767  1
  B  B12  1  0.17962033  0.05093367  0.31940567  1
  B  B13  1  0.19757333  0.14311667  0.65292867  1
  B  B14  1  0.27887667  0.46909333  0.31959533  1
  B  B15  1  0.53798000  0.15371300  0.65273900  1
  B  B16  1  0.28239967  0.79535333  0.98607233  1
  B  B17  1  0.52355000  0.38779000  0.98626200  1
  B  B18  1  0.84628700  0.38426700  0.65273900  1
  B  B19  1  0.86424000  0.47645000  0.98626200  1
  B  B20  1  0.94554333  0.80242667  0.65292867  1
  B  B21  1  0.20464667  0.48704633  0.98607233  1
  B  B22  1  0.94906633  0.12868667  0.31940567  1
  B  B23  1  0.19021667  0.72112333  0.31959533  1
  B  B24  1  0.51295367  0.71760033  0.98607233  1
  B  B25  1  0.53090667  0.80978333  0.31959533  1
  B  B26  1  0.61221000  0.13576000  0.98626200  1
  B  B27  1  0.87131333  0.82037967  0.31940567  1
  B  B28  1  0.61573300  0.46202000  0.65273900  1
  B  B29  1  0.85688333  0.05445667  0.65292867  1
  O  O30  1  0.54820367  0.36459533  0.16985233  1
  O  O31  1  0.26722633  0.15003867  0.23388467  1
  O  O32  1  0.27834400  0.25602800  0.61509700  1
  O  O33  1  0.16375833  0.05093867  0.52098267  1
  O  O34  1  0.10857867  0.95630133  0.20334433  1
  O  O35  1  0.31101733  0.38832267  0.28176367  1
  O  O36  1  0.30207133  0.51694167  0.50318567  1
  O  O37  1  0.21614567  0.39944033  0.90055133  1
  O  O38  1  0.37703200  0.81894400  0.87001100  1
  O  O39  1  0.55384700  0.16957500  0.85431600  1
  O  O40  1  0.28239467  0.77948633  0.18764933  1
  O  O41  1  0.51438933  0.22475467  0.53667767  1
  O  O42  1  0.51662800  0.45052100  0.56721800  1
  O  O43  1  0.41063867  0.35564933  0.94843033  1
  O  O44  1  0.14972500  0.11846300  0.83651900  1
  O  O45  1  0.21487033  0.69792867  0.50318567  1
  O  O46  1  0.93389300  0.48337200  0.56721800  1
  O  O47  1  0.94501067  0.58936133  0.94843033  1
  O  O48  1  0.83042500  0.38427200  0.85431600  1
  O  O49  1  0.77524533  0.28963467  0.53667767  1
  O  O50  1  0.97768400  0.72165600  0.61509700  1
  O  O51  1  0.96873800  0.85027500  0.83651900  1
  O  O52  1  0.88281233  0.73277367  0.23388467  1
  O  O53  1  0.04369867  0.15227733  0.20334433  1
  O  O54  1  0.22051367  0.50290833  0.18764933  1
  O  O55  1  0.94906133  0.11281967  0.52098267  1
  O  O56  1  0.18105600  0.55808800  0.87001100  1
  O  O57  1  0.18329467  0.78385433  0.90055133  1
  O  O58  1  0.07730533  0.68898267  0.28176367  1
  O  O59  1  0.81639167  0.45179633  0.16985233  1
  O  O60  1  0.88153700  0.03126200  0.83651900  1
  O  O61  1  0.60055967  0.81670533  0.90055133  1
  O  O62  1  0.61167733  0.92269467  0.28176367  1
  O  O63  1  0.49709167  0.71760533  0.18764933  1
  O  O64  1  0.44191200  0.62296800  0.87001100  1
  O  O65  1  0.64435067  0.05498933  0.94843033  1
  O  O66  1  0.63540467  0.18360833  0.16985233  1
  O  O67  1  0.54947900  0.06610700  0.56721800  1
  O  O68  1  0.71036533  0.48561067  0.53667767  1
  O  O69  1  0.88718033  0.83624167  0.52098267  1
  O  O70  1  0.61572800  0.44615300  0.85431600  1
  O  O71  1  0.84772267  0.89142133  0.20334433  1
  O  O72  1  0.84996133  0.11718767  0.23388467  1
  O  O73  1  0.74397200  0.02231600  0.61509700  1
  O  O74  1  0.48305833  0.78512967  0.50318567  1
