# generated using pymatgen
data_Li9Mn2P4HO18
_symmetry_space_group_name_H-M   'P 1'
_cell_length_a   6.75555200
_cell_length_b   14.23001800
_cell_length_c   14.57804600
_cell_angle_alpha   90.00000000
_cell_angle_beta   90.00000000
_cell_angle_gamma   90.00000000
_symmetry_Int_Tables_number   1
_chemical_formula_structural   Li9Mn2P4HO18
_chemical_formula_sum   'Li36 Mn8 P16 H4 O72'
_cell_volume   1401.41127405
_cell_formula_units_Z   4
loop_
 _symmetry_equiv_pos_site_id
 _symmetry_equiv_pos_as_xyz
  1  'x, y, z'
loop_
 _atom_site_type_symbol
 _atom_site_label
 _atom_site_symmetry_multiplicity
 _atom_site_fract_x
 _atom_site_fract_y
 _atom_site_fract_z
 _atom_site_occupancy
  Li  Li0  1  0.98999900  0.23144500  0.24603600  1
  Li  Li1  1  0.51000100  0.23144500  0.24603600  1
  Li  Li2  1  0.25000000  0.87232000  0.86730400  1
  Li  Li3  1  0.75000000  0.87052300  0.63103500  1
  Li  Li4  1  0.75000000  0.88653500  0.37513900  1
  Li  Li5  1  0.00000000  0.00000000  0.22902000  1
  Li  Li6  1  0.50000000  0.00000000  0.99345800  1
  Li  Li7  1  0.00000000  0.00000000  0.51145700  1
  Li  Li8  1  0.00000000  0.00000000  0.74985600  1
  Li  Li9  1  0.00000000  0.00000000  0.99345800  1
  Li  Li10  1  0.50000000  0.00000000  0.22902000  1
  Li  Li11  1  0.50000000  0.00000000  0.51145700  1
  Li  Li12  1  0.50000000  0.00000000  0.74985600  1
  Li  Li13  1  0.25000000  0.11346500  0.37513900  1
  Li  Li14  1  0.75000000  0.12768000  0.86730400  1
  Li  Li15  1  0.25000000  0.12947700  0.63103500  1
  Li  Li16  1  0.48999900  0.76855500  0.24603600  1
  Li  Li17  1  0.01000100  0.76855500  0.24603600  1
  Li  Li18  1  0.48999900  0.73144500  0.74603600  1
  Li  Li19  1  0.01000100  0.73144500  0.74603600  1
  Li  Li20  1  0.75000000  0.37232000  0.36730400  1
  Li  Li21  1  0.25000000  0.37052300  0.13103500  1
  Li  Li22  1  0.25000000  0.38653500  0.87513900  1
  Li  Li23  1  0.50000000  0.50000000  0.72902000  1
  Li  Li24  1  0.00000000  0.50000000  0.49345800  1
  Li  Li25  1  0.50000000  0.50000000  0.01145700  1
  Li  Li26  1  0.50000000  0.50000000  0.24985600  1
  Li  Li27  1  0.50000000  0.50000000  0.49345800  1
  Li  Li28  1  0.00000000  0.50000000  0.72902000  1
  Li  Li29  1  0.00000000  0.50000000  0.01145700  1
  Li  Li30  1  0.00000000  0.50000000  0.24985600  1
  Li  Li31  1  0.75000000  0.61346500  0.87513900  1
  Li  Li32  1  0.25000000  0.62768000  0.36730400  1
  Li  Li33  1  0.75000000  0.62947700  0.13103500  1
  Li  Li34  1  0.98999900  0.26855500  0.74603600  1
  Li  Li35  1  0.51000100  0.26855500  0.74603600  1
  Mn  Mn36  1  0.99186350  0.75326150  0.49904950  1
  Mn  Mn37  1  0.49186350  0.24673850  0.49904950  1
  Mn  Mn38  1  0.00813650  0.24673850  0.49904950  1
  Mn  Mn39  1  0.50813650  0.75326150  0.49904950  1
  Mn  Mn40  1  0.49186350  0.25326150  0.99904950  1
  Mn  Mn41  1  0.99186350  0.74673850  0.99904950  1
  Mn  Mn42  1  0.50813650  0.74673850  0.99904950  1
  Mn  Mn43  1  0.00813650  0.25326150  0.99904950  1
  P  P44  1  0.25000000  0.88805000  0.64227300  1
  P  P45  1  0.75000000  0.88631750  0.85766850  1
  P  P46  1  0.75000000  0.88224300  0.13443100  1
  P  P47  1  0.25000000  0.89037100  0.36212700  1
  P  P48  1  0.25000000  0.11775700  0.13443100  1
  P  P49  1  0.75000000  0.10962900  0.36212700  1
  P  P50  1  0.75000000  0.11195000  0.64227300  1
  P  P51  1  0.25000000  0.11368250  0.85766850  1
  P  P52  1  0.75000000  0.38805000  0.14227300  1
  P  P53  1  0.25000000  0.38631750  0.35766850  1
  P  P54  1  0.25000000  0.38224300  0.63443100  1
  P  P55  1  0.75000000  0.39037100  0.86212700  1
  P  P56  1  0.75000000  0.61775700  0.63443100  1
  P  P57  1  0.25000000  0.60962900  0.86212700  1
  P  P58  1  0.25000000  0.61195000  0.14227300  1
  P  P59  1  0.75000000  0.61368250  0.35766850  1
  H  H60  1  0.75000000  0.34477500  0.56184900  1
  H  H61  1  0.25000000  0.65522500  0.56184900  1
  H  H62  1  0.25000000  0.84477500  0.06184900  1
  H  H63  1  0.75000000  0.15522500  0.06184900  1
  O  O64  1  0.25000000  0.09718800  0.23884500  1
  O  O65  1  0.75000000  0.08958800  0.25866000  1
  O  O66  1  0.56128650  0.67831950  0.61642350  1
  O  O67  1  0.56038050  0.17055850  0.38143250  1
  O  O68  1  0.93871350  0.67831950  0.61642350  1
  O  O69  1  0.93961950  0.17055850  0.38143250  1
  O  O70  1  0.75000000  0.81290000  0.49385000  1
  O  O71  1  0.75000000  0.30658900  0.50581800  1
  O  O72  1  0.25000000  0.82776100  0.73190000  1
  O  O73  1  0.75000000  0.82734000  0.76758000  1
  O  O74  1  0.44154500  0.36562100  0.41408900  1
  O  O75  1  0.44157750  0.86875250  0.58596650  1
  O  O76  1  0.05842250  0.86875250  0.58596650  1
  O  O77  1  0.05845500  0.36562100  0.41408900  1
  O  O78  1  0.75000000  0.97341600  0.07693800  1
  O  O79  1  0.25000000  0.98059500  0.42272900  1
  O  O80  1  0.25000000  0.99467600  0.66179000  1
  O  O81  1  0.75000000  0.99343000  0.83990900  1
  O  O82  1  0.75000000  0.00532400  0.66179000  1
  O  O83  1  0.25000000  0.00657000  0.83990900  1
  O  O84  1  0.25000000  0.02658400  0.07693800  1
  O  O85  1  0.75000000  0.01940500  0.42272900  1
  O  O86  1  0.55842250  0.13124750  0.58596650  1
  O  O87  1  0.55845500  0.63437900  0.41408900  1
  O  O88  1  0.94157750  0.13124750  0.58596650  1
  O  O89  1  0.94154500  0.63437900  0.41408900  1
  O  O90  1  0.75000000  0.17223900  0.73190000  1
  O  O91  1  0.25000000  0.17266000  0.76758000  1
  O  O92  1  0.25000000  0.69341100  0.50581800  1
  O  O93  1  0.25000000  0.18710000  0.49385000  1
  O  O94  1  0.43961950  0.82944150  0.38143250  1
  O  O95  1  0.06038050  0.82944150  0.38143250  1
  O  O96  1  0.43871350  0.32168050  0.61642350  1
  O  O97  1  0.06128650  0.32168050  0.61642350  1
  O  O98  1  0.75000000  0.90281200  0.23884500  1
  O  O99  1  0.25000000  0.91041200  0.25866000  1
  O  O100  1  0.75000000  0.59718800  0.73884500  1
  O  O101  1  0.25000000  0.58958800  0.75866000  1
  O  O102  1  0.06128650  0.17831950  0.11642350  1
  O  O103  1  0.06038050  0.67055850  0.88143250  1
  O  O104  1  0.43871350  0.17831950  0.11642350  1
  O  O105  1  0.43961950  0.67055850  0.88143250  1
  O  O106  1  0.25000000  0.31290000  0.99385000  1
  O  O107  1  0.25000000  0.80658900  0.00581800  1
  O  O108  1  0.75000000  0.32776100  0.23190000  1
  O  O109  1  0.25000000  0.32734000  0.26758000  1
  O  O110  1  0.94154500  0.86562100  0.91408900  1
  O  O111  1  0.94157750  0.36875250  0.08596650  1
  O  O112  1  0.55842250  0.36875250  0.08596650  1
  O  O113  1  0.55845500  0.86562100  0.91408900  1
  O  O114  1  0.25000000  0.47341600  0.57693800  1
  O  O115  1  0.75000000  0.48059500  0.92272900  1
  O  O116  1  0.75000000  0.49467600  0.16179000  1
  O  O117  1  0.25000000  0.49343000  0.33990900  1
  O  O118  1  0.25000000  0.50532400  0.16179000  1
  O  O119  1  0.75000000  0.50657000  0.33990900  1
  O  O120  1  0.75000000  0.52658400  0.57693800  1
  O  O121  1  0.25000000  0.51940500  0.92272900  1
  O  O122  1  0.05842250  0.63124750  0.08596650  1
  O  O123  1  0.05845500  0.13437900  0.91408900  1
  O  O124  1  0.44157750  0.63124750  0.08596650  1
  O  O125  1  0.44154500  0.13437900  0.91408900  1
  O  O126  1  0.25000000  0.67223900  0.23190000  1
  O  O127  1  0.75000000  0.67266000  0.26758000  1
  O  O128  1  0.75000000  0.19341100  0.00581800  1
  O  O129  1  0.75000000  0.68710000  0.99385000  1
  O  O130  1  0.93961950  0.32944150  0.88143250  1
  O  O131  1  0.56038050  0.32944150  0.88143250  1
  O  O132  1  0.93871350  0.82168050  0.11642350  1
  O  O133  1  0.56128650  0.82168050  0.11642350  1
  O  O134  1  0.25000000  0.40281200  0.73884500  1
  O  O135  1  0.75000000  0.41041200  0.75866000  1
