# generated using pymatgen
data_Li2Zn3(Ge3O8)2
_symmetry_space_group_name_H-M   'P 1'
_cell_length_a   8.31675600
_cell_length_b   8.31584600
_cell_length_c   8.32152267
_cell_angle_alpha   90.00000000
_cell_angle_beta   90.25229021
_cell_angle_gamma   90.00000000
_symmetry_Int_Tables_number   1
_chemical_formula_structural   Li2Zn3(Ge3O8)2
_chemical_formula_sum   'Li4 Zn6 Ge12 O32'
_cell_volume   575.51810276
_cell_formula_units_Z   2
loop_
 _symmetry_equiv_pos_site_id
 _symmetry_equiv_pos_as_xyz
  1  'x, y, z'
loop_
 _atom_site_type_symbol
 _atom_site_label
 _atom_site_symmetry_multiplicity
 _atom_site_fract_x
 _atom_site_fract_y
 _atom_site_fract_z
 _atom_site_occupancy
  Li  Li0  1  0.37592100  0.37608200  0.37614900  1
  Li  Li1  1  0.75090200  0.24975900  0.50248900  1
  Li  Li2  1  0.24909800  0.74975900  0.49751100  1
  Li  Li3  1  0.62407900  0.87608200  0.62385100  1
  Zn  Zn4  1  0.99931300  0.00199400  0.74738000  1
  Zn  Zn5  1  0.50167700  0.50049200  0.74891000  1
  Zn  Zn6  1  0.74977600  0.74870000  0.99832700  1
  Zn  Zn7  1  0.25022400  0.24870000  0.00167300  1
  Zn  Zn8  1  0.00068700  0.50199400  0.25262000  1
  Zn  Zn9  1  0.49832300  0.00049200  0.25109000  1
  Ge  Ge10  1  0.88223500  0.37485700  0.87857800  1
  Ge  Ge11  1  0.36926500  0.86766000  0.86734100  1
  Ge  Ge12  1  0.63019100  0.12112300  0.87414200  1
  Ge  Ge13  1  0.63073500  0.36766000  0.13265900  1
  Ge  Ge14  1  0.36980900  0.62112300  0.12585800  1
  Ge  Ge15  1  0.11776500  0.87485700  0.12142200  1
  Ge  Ge16  1  0.87211900  0.88448400  0.37274800  1
  Ge  Ge17  1  0.62000300  0.62155000  0.37870600  1
  Ge  Ge18  1  0.11684200  0.12682800  0.36993200  1
  Ge  Ge19  1  0.88315800  0.62682800  0.63006800  1
  Ge  Ge20  1  0.37999700  0.12155000  0.62129400  1
  Ge  Ge21  1  0.12788100  0.38448400  0.62725200  1
  O  O22  1  0.60637700  0.89697400  0.87858100  1
  O  O23  1  0.63774200  0.36052200  0.89070700  1
  O  O24  1  0.14330600  0.88806800  0.89910600  1
  O  O25  1  0.10374300  0.36221600  0.85585700  1
  O  O26  1  0.86200100  0.60411100  0.85094100  1
  O  O27  1  0.85125500  0.14570900  0.86350900  1
  O  O28  1  0.38820100  0.64736700  0.89624100  1
  O  O29  1  0.38754100  0.11117300  0.86224800  1
  O  O30  1  0.89625700  0.86221600  0.14414300  1
  O  O31  1  0.61245900  0.61117300  0.13775200  1
  O  O32  1  0.85669400  0.38806800  0.10089400  1
  O  O33  1  0.61179900  0.14736700  0.10375900  1
  O  O34  1  0.36225800  0.86052200  0.10929300  1
  O  O35  1  0.14874500  0.64570900  0.13649100  1
  O  O36  1  0.39362300  0.39697400  0.12141900  1
  O  O37  1  0.13799900  0.10411100  0.14905900  1
  O  O38  1  0.85833000  0.63989700  0.38859400  1
  O  O39  1  0.89418300  0.10265800  0.39203500  1
  O  O40  1  0.64705100  0.85759700  0.37121600  1
  O  O41  1  0.63069900  0.39268700  0.35297600  1
  O  O42  1  0.39892600  0.62973200  0.35445800  1
  O  O43  1  0.35629700  0.12225100  0.39765800  1
  O  O44  1  0.11016100  0.88904100  0.36022300  1
  O  O45  1  0.12262000  0.35147000  0.39199100  1
  O  O46  1  0.87738000  0.85147000  0.60800900  1
  O  O47  1  0.88983900  0.38904100  0.63977700  1
  O  O48  1  0.64370300  0.62225100  0.60234200  1
  O  O49  1  0.60107400  0.12973200  0.64554200  1
  O  O50  1  0.36930100  0.89268700  0.64702400  1
  O  O51  1  0.35294900  0.35759700  0.62878400  1
  O  O52  1  0.10581700  0.60265800  0.60796500  1
  O  O53  1  0.14167000  0.13989700  0.61140600  1
