# generated using pymatgen
data_Ga3NO3
_symmetry_space_group_name_H-M   'P 1'
_cell_length_a   5.91390015
_cell_length_b   5.91390015
_cell_length_c   14.72128015
_cell_angle_alpha   90.00000000
_cell_angle_beta   90.00000000
_cell_angle_gamma   120.00000000
_symmetry_Int_Tables_number   1
_chemical_formula_structural   Ga3NO3
_chemical_formula_sum   'Ga18 N6 O18'
_cell_volume   445.88635670
_cell_formula_units_Z   6
loop_
 _symmetry_equiv_pos_site_id
 _symmetry_equiv_pos_as_xyz
  1  'x, y, z'
loop_
 _atom_site_type_symbol
 _atom_site_label
 _atom_site_symmetry_multiplicity
 _atom_site_fract_x
 _atom_site_fract_y
 _atom_site_fract_z
 _atom_site_occupancy
  Ga  Ga0  1  0.50000000  0.50000000  0.00000000  1
  Ga  Ga1  1  0.33333333  0.66666667  0.16666667  1
  Ga  Ga2  1  0.66666667  0.33333333  0.19616433  1
  Ga  Ga3  1  0.00000000  0.50000000  0.00000000  1
  Ga  Ga4  1  0.00000000  0.00000000  0.13716900  1
  Ga  Ga5  1  0.50000000  0.00000000  0.00000000  1
  Ga  Ga6  1  0.16666667  0.83333333  0.33333333  1
  Ga  Ga7  1  1.00000000  1.00000000  0.50000000  1
  Ga  Ga8  1  0.33333333  0.66666667  0.52949767  1
  Ga  Ga9  1  0.66666667  0.83333333  0.33333333  1
  Ga  Ga10  1  0.66666667  0.33333333  0.47050233  1
  Ga  Ga11  1  0.16666667  0.33333333  0.33333333  1
  Ga  Ga12  1  0.83333333  0.16666667  0.66666667  1
  Ga  Ga13  1  0.66666667  0.33333333  0.83333333  1
  Ga  Ga14  1  0.00000000  0.00000000  0.86283100  1
  Ga  Ga15  1  0.33333333  0.16666667  0.66666667  1
  Ga  Ga16  1  0.33333333  0.66666667  0.80383567  1
  Ga  Ga17  1  0.83333333  0.66666667  0.66666667  1
  N  N18  1  0.00000000  0.00000000  0.26729300  1
  N  N19  1  0.66666667  0.33333333  0.06604033  1
  N  N20  1  0.66666667  0.33333333  0.60062633  1
  N  N21  1  0.33333333  0.66666667  0.39937367  1
  N  N22  1  0.33333333  0.66666667  0.93395967  1
  N  N23  1  0.00000000  0.00000000  0.73270700  1
  O  O24  1  0.65313200  0.82656600  0.08612100  1
  O  O25  1  0.17343400  0.82656600  0.08612100  1
  O  O26  1  0.17343400  0.34686800  0.08612100  1
  O  O27  1  0.49323267  0.98646533  0.24721233  1
  O  O28  1  0.01353467  0.50676733  0.24721233  1
  O  O29  1  0.49323267  0.50676733  0.24721233  1
  O  O30  1  0.31979867  0.15989933  0.41945433  1
  O  O31  1  0.84010067  0.15989933  0.41945433  1
  O  O32  1  0.84010067  0.68020133  0.41945433  1
  O  O33  1  0.15989933  0.31979867  0.58054567  1
  O  O34  1  0.68020133  0.84010067  0.58054567  1
  O  O35  1  0.15989933  0.84010067  0.58054567  1
  O  O36  1  0.98646533  0.49323267  0.75278767  1
  O  O37  1  0.50676733  0.49323267  0.75278767  1
  O  O38  1  0.50676733  0.01353467  0.75278767  1
  O  O39  1  0.82656600  0.65313200  0.91387900  1
  O  O40  1  0.34686800  0.17343400  0.91387900  1
  O  O41  1  0.82656600  0.17343400  0.91387900  1
