# generated using pymatgen
data_Mn3Sn(PO4)6
_symmetry_space_group_name_H-M   'P 1'
_cell_length_a   8.56632773
_cell_length_b   8.56632773
_cell_length_c   21.19293215
_cell_angle_alpha   90.00000000
_cell_angle_beta   90.00000000
_cell_angle_gamma   120.00000000
_symmetry_Int_Tables_number   1
_chemical_formula_structural   Mn3Sn(PO4)6
_chemical_formula_sum   'Mn9 Sn3 P18 O72'
_cell_volume   1346.82463133
_cell_formula_units_Z   3
loop_
 _symmetry_equiv_pos_site_id
 _symmetry_equiv_pos_as_xyz
  1  'x, y, z'
loop_
 _atom_site_type_symbol
 _atom_site_label
 _atom_site_symmetry_multiplicity
 _atom_site_fract_x
 _atom_site_fract_y
 _atom_site_fract_z
 _atom_site_occupancy
  Mn  Mn0  1  0.00000000  0.00000000  0.14153500  1
  Mn  Mn1  1  0.33333333  0.66666667  0.02466567  1
  Mn  Mn2  1  0.33333333  0.66666667  0.30815067  1
  Mn  Mn3  1  0.66666667  0.33333333  0.47486833  1
  Mn  Mn4  1  0.00000000  0.00000000  0.35799900  1
  Mn  Mn5  1  0.00000000  0.00000000  0.64148400  1
  Mn  Mn6  1  0.33333333  0.66666667  0.80820167  1
  Mn  Mn7  1  0.66666667  0.33333333  0.69133233  1
  Mn  Mn8  1  0.66666667  0.33333333  0.97481733  1
  Sn  Sn9  1  0.66666667  0.33333333  0.19516333  1
  Sn  Sn10  1  0.33333333  0.66666667  0.52849667  1
  Sn  Sn11  1  0.00000000  0.00000000  0.86183000  1
  P  P12  1  0.66788667  0.04268133  0.08187933  1
  P  P13  1  0.95731867  0.62520533  0.08187933  1
  P  P14  1  0.37479467  0.33211333  0.08187933  1
  P  P15  1  0.00787967  0.28589133  0.25103033  1
  P  P16  1  0.27801167  0.99212033  0.25103033  1
  P  P17  1  0.71410867  0.72198833  0.25103033  1
  P  P18  1  0.33455333  0.37601467  0.41521267  1
  P  P19  1  0.62398533  0.95853867  0.41521267  1
  P  P20  1  0.04146133  0.66544667  0.41521267  1
  P  P21  1  0.67454633  0.61922467  0.58436367  1
  P  P22  1  0.94467833  0.32545367  0.58436367  1
  P  P23  1  0.38077533  0.05532167  0.58436367  1
  P  P24  1  0.00122000  0.70934800  0.74854600  1
  P  P25  1  0.29065200  0.29187200  0.74854600  1
  P  P26  1  0.70812800  0.99878000  0.74854600  1
  P  P27  1  0.34121300  0.95255800  0.91769700  1
  P  P28  1  0.61134500  0.65878700  0.91769700  1
  P  P29  1  0.04744200  0.38865500  0.91769700  1
  O  O30  1  0.81765533  0.81398967  0.31124067  1
  O  O31  1  0.99633433  0.18234467  0.31124067  1
  O  O32  1  0.98040633  0.81677967  0.08209467  1
  O  O33  1  0.18601033  0.00366567  0.31124067  1
  O  O34  1  0.87522667  0.52292233  0.14299633  1
  O  O35  1  0.14992733  0.65223367  0.08034467  1
  O  O36  1  0.18322033  0.16362667  0.08209467  1
  O  O37  1  0.34776633  0.49769367  0.08034467  1
  O  O38  1  0.01823867  0.19668233  0.18946433  1
  O  O39  1  0.50230633  0.85007267  0.08034467  1
  O  O40  1  0.84020900  0.30693800  0.25341300  1
  O  O41  1  0.17844367  0.98176133  0.18946433  1
  O  O42  1  0.47707767  0.35230433  0.14299633  1
  O  O43  1  0.83637333  0.01959367  0.08209467  1
  O  O44  1  0.17875033  0.47490067  0.25053267  1
  O  O45  1  0.64769567  0.12477333  0.14299633  1
  O  O46  1  0.29615033  0.82124967  0.25053267  1
  O  O47  1  0.46672900  0.15979100  0.25341300  1
  O  O48  1  0.52509933  0.70384967  0.25053267  1
  O  O49  1  0.80331767  0.82155633  0.18946433  1
  O  O50  1  0.46689900  0.31339500  0.02272200  1
  O  O51  1  0.69306200  0.53327100  0.25341300  1
  O  O52  1  0.68660500  0.15350400  0.02272200  1
  O  O53  1  0.84649600  0.53310100  0.02272200  1
  O  O54  1  0.48432200  0.14732300  0.64457400  1
  O  O55  1  0.66300100  0.51567800  0.64457400  1
  O  O56  1  0.64707300  0.15011300  0.41542800  1
  O  O57  1  0.85267700  0.33699900  0.64457400  1
  O  O58  1  0.54189333  0.85625567  0.47632967  1
  O  O59  1  0.81659400  0.98556700  0.41367800  1
  O  O60  1  0.84988700  0.49696000  0.41542800  1
  O  O61  1  0.01443300  0.83102700  0.41367800  1
  O  O62  1  0.68490533  0.53001567  0.52279767  1
  O  O63  1  0.16897300  0.18340600  0.41367800  1
  O  O64  1  0.50687567  0.64027133  0.58674633  1
  O  O65  1  0.84511033  0.31509467  0.52279767  1
  O  O66  1  0.14374433  0.68563767  0.47632967  1
  O  O67  1  0.50304000  0.35292700  0.41542800  1
  O  O68  1  0.84541700  0.80823400  0.58386600  1
  O  O69  1  0.31436233  0.45810667  0.47632967  1
  O  O70  1  0.96281700  0.15458300  0.58386600  1
  O  O71  1  0.13339567  0.49312433  0.58674633  1
  O  O72  1  0.19176600  0.03718300  0.58386600  1
  O  O73  1  0.46998433  0.15488967  0.52279767  1
  O  O74  1  0.13356567  0.64672833  0.35605533  1
  O  O75  1  0.35972867  0.86660433  0.58674633  1
  O  O76  1  0.35327167  0.48683733  0.35605533  1
  O  O77  1  0.51316267  0.86643433  0.35605533  1
  O  O78  1  0.15098867  0.48065633  0.97790733  1
  O  O79  1  0.32966767  0.84901133  0.97790733  1
  O  O80  1  0.31373967  0.48344633  0.74876133  1
  O  O81  1  0.51934367  0.67033233  0.97790733  1
  O  O82  1  0.20856000  0.18958900  0.80966300  1
  O  O83  1  0.48326067  0.31890033  0.74701133  1
  O  O84  1  0.51655367  0.83029333  0.74876133  1
  O  O85  1  0.68109967  0.16436033  0.74701133  1
  O  O86  1  0.35157200  0.86334900  0.85613100  1
  O  O87  1  0.83563967  0.51673933  0.74701133  1
  O  O88  1  0.17354233  0.97360467  0.92007967  1
  O  O89  1  0.51177700  0.64842800  0.85613100  1
  O  O90  1  0.81041100  0.01897100  0.80966300  1
  O  O91  1  0.16970667  0.68626033  0.74876133  1
  O  O92  1  0.51208367  0.14156733  0.91719933  1
  O  O93  1  0.98102900  0.79144000  0.80966300  1
  O  O94  1  0.62948367  0.48791633  0.91719933  1
  O  O95  1  0.80006233  0.82645767  0.92007967  1
  O  O96  1  0.85843267  0.37051633  0.91719933  1
  O  O97  1  0.13665100  0.48822300  0.85613100  1
  O  O98  1  0.80023233  0.98006167  0.68938867  1
  O  O99  1  0.02639533  0.19993767  0.92007967  1
  O  O100  1  0.01993833  0.82017067  0.68938867  1
  O  O101  1  0.17982933  0.19976767  0.68938867  1
