# generated using pymatgen
data_CoSb3(PO4)6
_symmetry_space_group_name_H-M   'P 1'
_cell_length_a   8.56067414
_cell_length_b   8.56067414
_cell_length_c   21.94459334
_cell_angle_alpha   90.00000000
_cell_angle_beta   90.00000000
_cell_angle_gamma   120.00000000
_symmetry_Int_Tables_number   1
_chemical_formula_structural   CoSb3(PO4)6
_chemical_formula_sum   'Co3 Sb9 P18 O72'
_cell_volume   1392.75299505
_cell_formula_units_Z   3
loop_
 _symmetry_equiv_pos_site_id
 _symmetry_equiv_pos_as_xyz
  1  'x, y, z'
loop_
 _atom_site_type_symbol
 _atom_site_label
 _atom_site_symmetry_multiplicity
 _atom_site_fract_x
 _atom_site_fract_y
 _atom_site_fract_z
 _atom_site_occupancy
  Co  Co0  1  0.66666667  0.33333333  0.18925033  1
  Co  Co1  1  0.33333333  0.66666667  0.52258367  1
  Co  Co2  1  0.00000000  0.00000000  0.85591700  1
  Sb  Sb3  1  0.00000000  0.00000000  0.14313700  1
  Sb  Sb4  1  0.33333333  0.66666667  0.02314067  1
  Sb  Sb5  1  0.33333333  0.66666667  0.30995467  1
  Sb  Sb6  1  0.66666667  0.33333333  0.47647033  1
  Sb  Sb7  1  0.00000000  0.00000000  0.35647400  1
  Sb  Sb8  1  0.00000000  0.00000000  0.64328800  1
  Sb  Sb9  1  0.33333333  0.66666667  0.80980367  1
  Sb  Sb10  1  0.66666667  0.33333333  0.68980733  1
  Sb  Sb11  1  0.66666667  0.33333333  0.97662133  1
  P  P12  1  0.66625300  0.61554100  0.08582900  1
  P  P13  1  0.94928800  0.33374700  0.08582900  1
  P  P14  1  0.38445900  0.05071200  0.08582900  1
  P  P15  1  0.29659600  0.28929500  0.24899500  1
  P  P16  1  0.71070500  0.00730100  0.24899500  1
  P  P17  1  0.99269900  0.70340400  0.24899500  1
  P  P18  1  0.33291967  0.94887433  0.41916233  1
  P  P19  1  0.61595467  0.66708033  0.41916233  1
  P  P20  1  0.05112567  0.38404533  0.41916233  1
  P  P21  1  0.96326267  0.62262833  0.58232833  1
  P  P22  1  0.37737167  0.34063433  0.58232833  1
  P  P23  1  0.65936567  0.03673733  0.58232833  1
  P  P24  1  0.99958633  0.28220767  0.75249567  1
  P  P25  1  0.28262133  0.00041367  0.75249567  1
  P  P26  1  0.71779233  0.71737867  0.75249567  1
  P  P27  1  0.62992933  0.95596167  0.91566167  1
  P  P28  1  0.04403833  0.67396767  0.91566167  1
  P  P29  1  0.32603233  0.37007067  0.91566167  1
  O  O30  1  0.96808067  0.79271833  0.30743333  1
  O  O31  1  0.20728167  0.17536233  0.30743333  1
  O  O32  1  0.83550067  0.80733633  0.08784233  1
  O  O33  1  0.82463767  0.03191933  0.30743333  1
  O  O34  1  0.49789667  0.63789333  0.07861133  1
  O  O35  1  0.63506433  0.50325867  0.14185967  1
  O  O36  1  0.97183567  0.16449933  0.08784233  1
  O  O37  1  0.13999667  0.50210333  0.07861133  1
  O  O38  1  0.36210667  0.86000333  0.07861133  1
  O  O39  1  0.17090267  0.20750033  0.19259333  1
  O  O40  1  0.47805200  0.30441700  0.24372200  1
  O  O41  1  0.79249967  0.96340233  0.19259333  1
  O  O42  1  0.86819433  0.36493567  0.14185967  1
  O  O43  1  0.19266367  0.02816433  0.08784233  1
  O  O44  1  0.49674133  0.13180567  0.14185967  1
  O  O45  1  0.30198367  0.47282533  0.25491133  1
  O  O46  1  0.52717467  0.82915833  0.25491133  1
  O  O47  1  0.69558300  0.17363500  0.24372200  1
  O  O48  1  0.03659767  0.82909733  0.19259333  1
  O  O49  1  0.17084167  0.69801633  0.25491133  1
  O  O50  1  0.84196133  0.30025567  0.02526467  1
  O  O51  1  0.82636500  0.52194800  0.24372200  1
  O  O52  1  0.45829433  0.15803867  0.02526467  1
  O  O53  1  0.69974433  0.54170567  0.02526467  1
  O  O54  1  0.63474733  0.12605167  0.64076667  1
  O  O55  1  0.87394833  0.50869567  0.64076667  1
  O  O56  1  0.50216733  0.14066967  0.42117567  1
  O  O57  1  0.49130433  0.36525267  0.64076667  1
  O  O58  1  0.16456333  0.97122667  0.41194467  1
  O  O59  1  0.30173100  0.83659200  0.47519300  1
  O  O60  1  0.63850233  0.49783267  0.42117567  1
  O  O61  1  0.80666333  0.83543667  0.41194467  1
  O  O62  1  0.02877333  0.19333667  0.41194467  1
  O  O63  1  0.83756933  0.54083367  0.52592667  1
  O  O64  1  0.14471867  0.63775033  0.57705533  1
  O  O65  1  0.45916633  0.29673567  0.52592667  1
  O  O66  1  0.53486100  0.69826900  0.47519300  1
  O  O67  1  0.85933033  0.36149767  0.42117567  1
  O  O68  1  0.16340800  0.46513900  0.47519300  1
  O  O69  1  0.96865033  0.80615867  0.58824467  1
  O  O70  1  0.19384133  0.16249167  0.58824467  1
  O  O71  1  0.36224967  0.50696833  0.57705533  1
  O  O72  1  0.70326433  0.16243067  0.52592667  1
  O  O73  1  0.83750833  0.03134967  0.58824467  1
  O  O74  1  0.50862800  0.63358900  0.35859800  1
  O  O75  1  0.49303167  0.85528133  0.57705533  1
  O  O76  1  0.12496100  0.49137200  0.35859800  1
  O  O77  1  0.36641100  0.87503900  0.35859800  1
  O  O78  1  0.30141400  0.45938500  0.97410000  1
  O  O79  1  0.54061500  0.84202900  0.97410000  1
  O  O80  1  0.16883400  0.47400300  0.75450900  1
  O  O81  1  0.15797100  0.69858600  0.97410000  1
  O  O82  1  0.83123000  0.30456000  0.74527800  1
  O  O83  1  0.96839767  0.16992533  0.80852633  1
  O  O84  1  0.30516900  0.83116600  0.75450900  1
  O  O85  1  0.47333000  0.16877000  0.74527800  1
  O  O86  1  0.69544000  0.52667000  0.74527800  1
  O  O87  1  0.50423600  0.87416700  0.85926000  1
  O  O88  1  0.81138533  0.97108367  0.91038867  1
  O  O89  1  0.12583300  0.63006900  0.85926000  1
  O  O90  1  0.20152767  0.03160233  0.80852633  1
  O  O91  1  0.52599700  0.69483100  0.75450900  1
  O  O92  1  0.83007467  0.79847233  0.80852633  1
  O  O93  1  0.63531700  0.13949200  0.92157800  1
  O  O94  1  0.86050800  0.49582500  0.92157800  1
  O  O95  1  0.02891633  0.84030167  0.91038867  1
  O  O96  1  0.36993100  0.49576400  0.85926000  1
  O  O97  1  0.50417500  0.36468300  0.92157800  1
  O  O98  1  0.17529467  0.96692233  0.69193133  1
  O  O99  1  0.15969833  0.18861467  0.91038867  1
  O  O100  1  0.79162767  0.82470533  0.69193133  1
  O  O101  1  0.03307767  0.20837233  0.69193133  1
