# generated using pymatgen
data_Na6Sn2O7
_symmetry_space_group_name_H-M   'P 1'
_cell_length_a   11.48767400
_cell_length_b   6.62888400
_cell_length_c   11.05000412
_cell_angle_alpha   90.00000000
_cell_angle_beta   102.44188992
_cell_angle_gamma   90.00000000
_symmetry_Int_Tables_number   1
_chemical_formula_structural   Na6Sn2O7
_chemical_formula_sum   'Na24 Sn8 O28'
_cell_volume   821.70114035
_cell_formula_units_Z   4
loop_
 _symmetry_equiv_pos_site_id
 _symmetry_equiv_pos_as_xyz
  1  'x, y, z'
loop_
 _atom_site_type_symbol
 _atom_site_label
 _atom_site_symmetry_multiplicity
 _atom_site_fract_x
 _atom_site_fract_y
 _atom_site_fract_z
 _atom_site_occupancy
  Na  Na0  1  0.92808500  0.39802600  0.87786500  1
  Na  Na1  1  0.93049700  0.85451300  0.90336600  1
  Na  Na2  1  0.92808500  0.60197400  0.37786500  1
  Na  Na3  1  0.93049700  0.14548700  0.40336600  1
  Na  Na4  1  0.79862150  0.12667650  0.61945400  1
  Na  Na5  1  0.79862150  0.87332350  0.11945400  1
  Na  Na6  1  0.70137850  0.62667650  0.88054600  1
  Na  Na7  1  0.70137850  0.37332350  0.38054600  1
  Na  Na8  1  0.56950300  0.35451300  0.59663400  1
  Na  Na9  1  0.57191500  0.89802600  0.62213500  1
  Na  Na10  1  0.56950300  0.64548700  0.09663400  1
  Na  Na11  1  0.57191500  0.10197400  0.12213500  1
  Na  Na12  1  0.42808500  0.89802600  0.87786500  1
  Na  Na13  1  0.43049700  0.35451300  0.90336600  1
  Na  Na14  1  0.42808500  0.10197400  0.37786500  1
  Na  Na15  1  0.43049700  0.64548700  0.40336600  1
  Na  Na16  1  0.29862150  0.62667650  0.61945400  1
  Na  Na17  1  0.29862150  0.37332350  0.11945400  1
  Na  Na18  1  0.20137850  0.12667650  0.88054600  1
  Na  Na19  1  0.20137850  0.87332350  0.38054600  1
  Na  Na20  1  0.06950300  0.85451300  0.59663400  1
  Na  Na21  1  0.07191500  0.39802600  0.62213500  1
  Na  Na22  1  0.06950300  0.14548700  0.09663400  1
  Na  Na23  1  0.07191500  0.60197400  0.12213500  1
  Sn  Sn24  1  0.82276450  0.64697150  0.62627800  1
  Sn  Sn25  1  0.82276450  0.35302850  0.12627800  1
  Sn  Sn26  1  0.67723550  0.14697150  0.87372200  1
  Sn  Sn27  1  0.67723550  0.85302850  0.37372200  1
  Sn  Sn28  1  0.32276450  0.14697150  0.62627800  1
  Sn  Sn29  1  0.32276450  0.85302850  0.12627800  1
  Sn  Sn30  1  0.17723550  0.64697150  0.87372200  1
  Sn  Sn31  1  0.17723550  0.35302850  0.37372200  1
  O  O32  1  0.87299150  0.40386550  0.54138700  1
  O  O33  1  0.87299150  0.59613450  0.04138700  1
  O  O34  1  0.85744250  0.13859950  0.99653900  1
  O  O35  1  0.76382150  0.84234950  0.74153700  1
  O  O36  1  0.73617850  0.34234950  0.75846300  1
  O  O37  1  0.85744250  0.86140050  0.49653900  1
  O  O38  1  0.64255750  0.63859950  0.50346100  1
  O  O39  1  0.76382150  0.15765050  0.24153700  1
  O  O40  1  0.73617850  0.65765050  0.25846300  1
  O  O41  1  0.64255750  0.36140050  0.00346100  1
  O  O42  1  0.62700850  0.90386550  0.95861300  1
  O  O43  1  0.00000000  0.65614800  0.75000000  1
  O  O44  1  0.62700850  0.09613450  0.45861300  1
  O  O45  1  0.00000000  0.34385200  0.25000000  1
  O  O46  1  0.37299150  0.90386550  0.54138700  1
  O  O47  1  0.37299150  0.09613450  0.04138700  1
  O  O48  1  0.35744250  0.63859950  0.99653900  1
  O  O49  1  0.26382150  0.34234950  0.74153700  1
  O  O50  1  0.23617850  0.84234950  0.75846300  1
  O  O51  1  0.35744250  0.36140050  0.49653900  1
  O  O52  1  0.14255750  0.13859950  0.50346100  1
  O  O53  1  0.26382150  0.65765050  0.24153700  1
  O  O54  1  0.23617850  0.15765050  0.25846300  1
  O  O55  1  0.14255750  0.86140050  0.00346100  1
  O  O56  1  0.12700850  0.40386550  0.95861300  1
  O  O57  1  0.50000000  0.15614800  0.75000000  1
  O  O58  1  0.12700850  0.59613450  0.45861300  1
  O  O59  1  0.50000000  0.84385200  0.25000000  1
