# generated using pymatgen
data_Mn3Nb(PO4)4
_symmetry_space_group_name_H-M   'P 1'
_cell_length_a   5.08026700
_cell_length_b   6.07258400
_cell_length_c   10.21525436
_cell_angle_alpha   90.00000000
_cell_angle_beta   90.01657071
_cell_angle_gamma   90.00000000
_symmetry_Int_Tables_number   1
_chemical_formula_structural   Mn3Nb(PO4)4
_chemical_formula_sum   'Mn3 Nb1 P4 O16'
_cell_volume   315.14413972
_cell_formula_units_Z   1
loop_
 _symmetry_equiv_pos_site_id
 _symmetry_equiv_pos_as_xyz
  1  'x, y, z'
loop_
 _atom_site_type_symbol
 _atom_site_label
 _atom_site_symmetry_multiplicity
 _atom_site_fract_x
 _atom_site_fract_y
 _atom_site_fract_z
 _atom_site_occupancy
  Mn  Mn0  1  0.02111000  0.50000000  0.26949600  1
  Mn  Mn1  1  0.46259800  0.50000000  0.78086300  1
  Mn  Mn2  1  0.54639400  0.00000000  0.22803600  1
  Nb  Nb3  1  0.96630600  0.00000000  0.72032400  1
  P  P4  1  0.07988500  0.00000000  0.39547800  1
  P  P5  1  0.38837800  0.00000000  0.90170000  1
  P  P6  1  0.59565800  0.50000000  0.09857800  1
  P  P7  1  0.93738500  0.50000000  0.59389700  1
  O  O8  1  0.13758000  0.00000000  0.55392000  1
  O  O9  1  0.22040300  0.20243000  0.33603900  1
  O  O10  1  0.22040300  0.79757000  0.33603900  1
  O  O11  1  0.23092100  0.50000000  0.61641700  1
  O  O12  1  0.30191300  0.50000000  0.12252000  1
  O  O13  1  0.23524000  0.19266200  0.82863600  1
  O  O14  1  0.23524000  0.80733800  0.82863600  1
  O  O15  1  0.36249600  0.00000000  0.04639100  1
  O  O16  1  0.66097700  0.50000000  0.95236300  1
  O  O17  1  0.74287700  0.69611300  0.17239000  1
  O  O18  1  0.74287700  0.30388700  0.17239000  1
  O  O19  1  0.67868600  0.00000000  0.85391400  1
  O  O20  1  0.78268800  0.00000000  0.38873400  1
  O  O21  1  0.80553600  0.70407000  0.67353400  1
  O  O22  1  0.80553600  0.29593000  0.67353400  1
  O  O23  1  0.83891000  0.50000000  0.45617100  1
