# generated using pymatgen
data_AgH9O5
_symmetry_space_group_name_H-M   'P 1'
_cell_length_a   6.48047600
_cell_length_b   6.78878900
_cell_length_c   13.05945900
_cell_angle_alpha   90.00000000
_cell_angle_beta   90.00000000
_cell_angle_gamma   90.00000000
_symmetry_Int_Tables_number   1
_chemical_formula_structural   AgH9O5
_chemical_formula_sum   'Ag4 H36 O20'
_cell_volume   574.54546837
_cell_formula_units_Z   4
loop_
 _symmetry_equiv_pos_site_id
 _symmetry_equiv_pos_as_xyz
  1  'x, y, z'
loop_
 _atom_site_type_symbol
 _atom_site_label
 _atom_site_symmetry_multiplicity
 _atom_site_fract_x
 _atom_site_fract_y
 _atom_site_fract_z
 _atom_site_occupancy
  Ag  Ag0  1  0.99098400  0.75540700  0.24840600  1
  Ag  Ag1  1  0.50901600  0.24459300  0.74840600  1
  Ag  Ag2  1  0.00901600  0.25540700  0.25159400  1
  Ag  Ag3  1  0.49098400  0.74459300  0.75159400  1
  H  H4  1  0.55696400  0.78511200  0.04959100  1
  H  H5  1  0.57836800  0.84541200  0.45176000  1
  H  H6  1  0.71010400  0.95624500  0.01328800  1
  H  H7  1  0.41396300  0.98699900  0.93646600  1
  H  H8  1  0.31584600  0.98808700  0.39660000  1
  H  H9  1  0.85168000  0.99182500  0.83152300  1
  H  H10  1  0.28674000  0.99262500  0.10673300  1
  H  H11  1  0.63206200  0.99562600  0.20541300  1
  H  H12  1  0.43837300  0.99759600  0.55634900  1
  H  H13  1  0.06162700  0.00240400  0.05634900  1
  H  H14  1  0.86793800  0.00437400  0.70541300  1
  H  H15  1  0.21326000  0.00737500  0.60673300  1
  H  H16  1  0.64832000  0.00817500  0.33152300  1
  H  H17  1  0.18415400  0.01191300  0.89660000  1
  H  H18  1  0.08603700  0.01300100  0.43646600  1
  H  H19  1  0.78989600  0.04375500  0.51328800  1
  H  H20  1  0.92163200  0.15458800  0.95176000  1
  H  H21  1  0.94303600  0.21488800  0.54959100  1
  H  H22  1  0.44303600  0.28511200  0.45040900  1
  H  H23  1  0.42163200  0.34541200  0.04824000  1
  H  H24  1  0.28989600  0.45624500  0.48671200  1
  H  H25  1  0.58603700  0.48699900  0.56353400  1
  H  H26  1  0.68415400  0.48808700  0.10340000  1
  H  H27  1  0.14832000  0.49182500  0.66847700  1
  H  H28  1  0.71326000  0.49262500  0.39326700  1
  H  H29  1  0.36793800  0.49562600  0.29458700  1
  H  H30  1  0.56162700  0.49759600  0.94365100  1
  H  H31  1  0.93837300  0.50240400  0.44365100  1
  H  H32  1  0.13206200  0.50437400  0.79458700  1
  H  H33  1  0.78674000  0.50737500  0.89326700  1
  H  H34  1  0.35168000  0.50817500  0.16847700  1
  H  H35  1  0.81584600  0.51191300  0.60340000  1
  H  H36  1  0.91396300  0.51300100  0.06353400  1
  H  H37  1  0.21010400  0.54375500  0.98671200  1
  H  H38  1  0.07836800  0.65458800  0.54824000  1
  H  H39  1  0.05696400  0.71488800  0.95040900  1
  O  O40  1  0.57189100  0.92863500  0.04833700  1
  O  O41  1  0.77503400  0.98642800  0.76372100  1
  O  O42  1  0.56960600  0.98878400  0.45044800  1
  O  O43  1  0.16882600  0.99212800  0.37376400  1
  O  O44  1  0.35984400  0.99543000  0.62369500  1
  O  O45  1  0.14015600  0.00457000  0.12369500  1
  O  O46  1  0.33117400  0.00787200  0.87376400  1
  O  O47  1  0.93039400  0.01121600  0.95044800  1
  O  O48  1  0.72496600  0.01357200  0.26372100  1
  O  O49  1  0.92810900  0.07136500  0.54833700  1
  O  O50  1  0.42810900  0.42863500  0.45166300  1
  O  O51  1  0.22496600  0.48642800  0.73627900  1
  O  O52  1  0.43039400  0.48878400  0.04955200  1
  O  O53  1  0.83117400  0.49212800  0.12623600  1
  O  O54  1  0.64015600  0.49543000  0.87630500  1
  O  O55  1  0.85984400  0.50457000  0.37630500  1
  O  O56  1  0.66882600  0.50787200  0.62623600  1
  O  O57  1  0.06960600  0.51121600  0.54955200  1
  O  O58  1  0.27503400  0.51357200  0.23627900  1
  O  O59  1  0.07189100  0.57136500  0.95166300  1
