# generated using pymatgen
data_Li3Sb3P8O29
_symmetry_space_group_name_H-M   'P 1'
_cell_length_a   16.84238400
_cell_length_b   9.85408200
_cell_length_c   14.49297511
_cell_angle_alpha   90.00000000
_cell_angle_beta   90.76033818
_cell_angle_gamma   90.00000000
_symmetry_Int_Tables_number   1
_chemical_formula_structural   Li3Sb3P8O29
_chemical_formula_sum   'Li12 Sb12 P32 O116'
_cell_volume   2405.13269297
_cell_formula_units_Z   4
loop_
 _symmetry_equiv_pos_site_id
 _symmetry_equiv_pos_as_xyz
  1  'x, y, z'
loop_
 _atom_site_type_symbol
 _atom_site_label
 _atom_site_symmetry_multiplicity
 _atom_site_fract_x
 _atom_site_fract_y
 _atom_site_fract_z
 _atom_site_occupancy
  Li  Li0  1  0.00000000  0.00000000  0.00000000  1
  Li  Li1  1  0.00000000  0.00000000  0.50000000  1
  Li  Li2  1  0.38425300  0.71816600  0.45055600  1
  Li  Li3  1  0.38425300  0.28183400  0.95055600  1
  Li  Li4  1  0.61574700  0.71816600  0.04944400  1
  Li  Li5  1  0.61574700  0.28183400  0.54944400  1
  Li  Li6  1  0.50000000  0.50000000  0.00000000  1
  Li  Li7  1  0.50000000  0.50000000  0.50000000  1
  Li  Li8  1  0.88425300  0.21816600  0.45055600  1
  Li  Li9  1  0.88425300  0.78183400  0.95055600  1
  Li  Li10  1  0.11574700  0.21816600  0.04944400  1
  Li  Li11  1  0.11574700  0.78183400  0.54944400  1
  Sb  Sb12  1  0.21909250  0.78339850  0.75835200  1
  Sb  Sb13  1  0.78090750  0.21660150  0.24164800  1
  Sb  Sb14  1  0.21909250  0.21660150  0.25835200  1
  Sb  Sb15  1  0.78090750  0.78339850  0.74164800  1
  Sb  Sb16  1  0.50000000  0.94103000  0.75000000  1
  Sb  Sb17  1  0.50000000  0.05897000  0.25000000  1
  Sb  Sb18  1  0.71909250  0.28339850  0.75835200  1
  Sb  Sb19  1  0.28090750  0.71660150  0.24164800  1
  Sb  Sb20  1  0.71909250  0.71660150  0.25835200  1
  Sb  Sb21  1  0.28090750  0.28339850  0.74164800  1
  Sb  Sb22  1  0.00000000  0.44103000  0.75000000  1
  Sb  Sb23  1  0.00000000  0.55897000  0.25000000  1
  P  P24  1  0.14682650  0.93505750  0.15985200  1
  P  P25  1  0.14682650  0.06494250  0.65985200  1
  P  P26  1  0.38798350  0.69871350  0.65758300  1
  P  P27  1  0.33445400  0.99320800  0.36783200  1
  P  P28  1  0.33445400  0.00679200  0.86783200  1
  P  P29  1  0.45989900  0.75963300  0.15575800  1
  P  P30  1  0.54010100  0.75963300  0.34424200  1
  P  P31  1  0.38798350  0.30128650  0.15758300  1
  P  P32  1  0.61201650  0.69871350  0.84241700  1
  P  P33  1  0.45989900  0.24036700  0.65575800  1
  P  P34  1  0.54010100  0.24036700  0.84424200  1
  P  P35  1  0.66554600  0.00679200  0.63216800  1
  P  P36  1  0.66554600  0.99320800  0.13216800  1
  P  P37  1  0.61201650  0.30128650  0.34241700  1
  P  P38  1  0.85317350  0.93505750  0.34014800  1
  P  P39  1  0.85317350  0.06494250  0.84014800  1
  P  P40  1  0.64682650  0.43505750  0.15985200  1
  P  P41  1  0.64682650  0.56494250  0.65985200  1
  P  P42  1  0.88798350  0.19871350  0.65758300  1
  P  P43  1  0.83445400  0.49320800  0.36783200  1
  P  P44  1  0.83445400  0.50679200  0.86783200  1
  P  P45  1  0.95989900  0.25963300  0.15575800  1
  P  P46  1  0.04010100  0.25963300  0.34424200  1
  P  P47  1  0.88798350  0.80128650  0.15758300  1
  P  P48  1  0.11201650  0.19871350  0.84241700  1
  P  P49  1  0.95989900  0.74036700  0.65575800  1
  P  P50  1  0.04010100  0.74036700  0.84424200  1
  P  P51  1  0.16554600  0.50679200  0.63216800  1
  P  P52  1  0.16554600  0.49320800  0.13216800  1
  P  P53  1  0.11201650  0.80128650  0.34241700  1
  P  P54  1  0.35317350  0.43505750  0.34014800  1
  P  P55  1  0.35317350  0.56494250  0.84014800  1
  O  O56  1  0.10499050  0.90525450  0.25756900  1
  O  O57  1  0.60802750  0.37605350  0.43120800  1
  O  O58  1  0.16878700  0.90972200  0.66555500  1
  O  O59  1  0.10499050  0.09474550  0.75756900  1
  O  O60  1  0.60802750  0.62394650  0.93120800  1
  O  O61  1  0.16878700  0.09027800  0.16555500  1
  O  O62  1  0.22676350  0.85213350  0.15959100  1
  O  O63  1  0.25451050  0.94405950  0.82899900  1
  O  O64  1  0.30920050  0.78025250  0.67017100  1
  O  O65  1  0.90810300  0.08701300  0.91840300  1
  O  O66  1  0.89500950  0.09474550  0.74243100  1
  O  O67  1  0.37215350  0.70984750  0.15574100  1
  O  O68  1  0.25451050  0.05594050  0.32899900  1
  O  O69  1  0.22676350  0.14786650  0.65959100  1
  O  O70  1  0.34120150  0.84679350  0.32131700  1
  O  O71  1  0.33950550  0.97952650  0.46908600  1
  O  O72  1  0.33950550  0.02047350  0.96908600  1
  O  O73  1  0.40109350  0.92009150  0.82081800  1
  O  O74  1  0.30920050  0.21974750  0.17017100  1
  O  O75  1  0.34120150  0.15320650  0.82131700  1
  O  O76  1  0.45865300  0.79937600  0.66578500  1
  O  O77  1  0.50000000  0.70412700  0.25000000  1
  O  O78  1  0.49610700  0.70204700  0.42322700  1
  O  O79  1  0.50389300  0.70204700  0.07677300  1
  O  O80  1  0.46011400  0.91802600  0.16138500  1
  O  O81  1  0.40109350  0.07990850  0.32081800  1
  O  O82  1  0.54134700  0.79937600  0.83421500  1
  O  O83  1  0.46011400  0.08197400  0.66138500  1
  O  O84  1  0.37215350  0.29015250  0.65574100  1
  O  O85  1  0.09189700  0.08701300  0.58159700  1
  O  O86  1  0.90810300  0.91298700  0.41840300  1
  O  O87  1  0.89500950  0.90525450  0.24243100  1
  O  O88  1  0.62784650  0.70984750  0.34425900  1
  O  O89  1  0.53988600  0.91802600  0.33861500  1
  O  O90  1  0.45865300  0.20062400  0.16578500  1
  O  O91  1  0.59890650  0.92009150  0.67918200  1
  O  O92  1  0.53988600  0.08197400  0.83861500  1
  O  O93  1  0.49610700  0.29795300  0.92322700  1
  O  O94  1  0.50389300  0.29795300  0.57677300  1
  O  O95  1  0.50000000  0.29587300  0.75000000  1
  O  O96  1  0.54134700  0.20062400  0.33421500  1
  O  O97  1  0.65879850  0.84679350  0.17868300  1
  O  O98  1  0.69079950  0.78025250  0.82982900  1
  O  O99  1  0.59890650  0.07990850  0.17918200  1
  O  O100  1  0.66049450  0.02047350  0.53091400  1
  O  O101  1  0.66049450  0.97952650  0.03091400  1
  O  O102  1  0.65879850  0.15320650  0.67868300  1
  O  O103  1  0.77323650  0.85213350  0.34040900  1
  O  O104  1  0.74548950  0.94405950  0.67100100  1
  O  O105  1  0.62784650  0.29015250  0.84425900  1
  O  O106  1  0.09189700  0.91298700  0.08159700  1
  O  O107  1  0.69079950  0.21974750  0.32982900  1
  O  O108  1  0.74548950  0.05594050  0.17100100  1
  O  O109  1  0.77323650  0.14786650  0.84040900  1
  O  O110  1  0.83121300  0.90972200  0.83444500  1
  O  O111  1  0.39197250  0.37605350  0.06879200  1
  O  O112  1  0.83121300  0.09027800  0.33444500  1
  O  O113  1  0.39197250  0.62394650  0.56879200  1
  O  O114  1  0.60499050  0.40525450  0.25756900  1
  O  O115  1  0.10802750  0.87605350  0.43120800  1
  O  O116  1  0.66878700  0.40972200  0.66555500  1
  O  O117  1  0.60499050  0.59474550  0.75756900  1
  O  O118  1  0.10802750  0.12394650  0.93120800  1
  O  O119  1  0.66878700  0.59027800  0.16555500  1
  O  O120  1  0.72676350  0.35213350  0.15959100  1
  O  O121  1  0.75451050  0.44405950  0.82899900  1
  O  O122  1  0.80920050  0.28025250  0.67017100  1
  O  O123  1  0.40810300  0.58701300  0.91840300  1
  O  O124  1  0.39500950  0.59474550  0.74243100  1
  O  O125  1  0.87215350  0.20984750  0.15574100  1
  O  O126  1  0.75451050  0.55594050  0.32899900  1
  O  O127  1  0.72676350  0.64786650  0.65959100  1
  O  O128  1  0.84120150  0.34679350  0.32131700  1
  O  O129  1  0.83950550  0.47952650  0.46908600  1
  O  O130  1  0.83950550  0.52047350  0.96908600  1
  O  O131  1  0.90109350  0.42009150  0.82081800  1
  O  O132  1  0.80920050  0.71974750  0.17017100  1
  O  O133  1  0.84120150  0.65320650  0.82131700  1
  O  O134  1  0.95865300  0.29937600  0.66578500  1
  O  O135  1  0.00000000  0.20412700  0.25000000  1
  O  O136  1  0.99610700  0.20204700  0.42322700  1
  O  O137  1  0.00389300  0.20204700  0.07677300  1
  O  O138  1  0.96011400  0.41802600  0.16138500  1
  O  O139  1  0.90109350  0.57990850  0.32081800  1
  O  O140  1  0.04134700  0.29937600  0.83421500  1
  O  O141  1  0.96011400  0.58197400  0.66138500  1
  O  O142  1  0.87215350  0.79015250  0.65574100  1
  O  O143  1  0.59189700  0.58701300  0.58159700  1
  O  O144  1  0.40810300  0.41298700  0.41840300  1
  O  O145  1  0.39500950  0.40525450  0.24243100  1
  O  O146  1  0.12784650  0.20984750  0.34425900  1
  O  O147  1  0.03988600  0.41802600  0.33861500  1
  O  O148  1  0.95865300  0.70062400  0.16578500  1
  O  O149  1  0.09890650  0.42009150  0.67918200  1
  O  O150  1  0.03988600  0.58197400  0.83861500  1
  O  O151  1  0.99610700  0.79795300  0.92322700  1
  O  O152  1  0.00389300  0.79795300  0.57677300  1
  O  O153  1  0.00000000  0.79587300  0.75000000  1
  O  O154  1  0.04134700  0.70062400  0.33421500  1
  O  O155  1  0.15879850  0.34679350  0.17868300  1
  O  O156  1  0.19079950  0.28025250  0.82982900  1
  O  O157  1  0.09890650  0.57990850  0.17918200  1
  O  O158  1  0.16049450  0.52047350  0.53091400  1
  O  O159  1  0.16049450  0.47952650  0.03091400  1
  O  O160  1  0.15879850  0.65320650  0.67868300  1
  O  O161  1  0.27323650  0.35213350  0.34040900  1
  O  O162  1  0.24548950  0.44405950  0.67100100  1
  O  O163  1  0.12784650  0.79015250  0.84425900  1
  O  O164  1  0.59189700  0.41298700  0.08159700  1
  O  O165  1  0.19079950  0.71974750  0.32982900  1
  O  O166  1  0.24548950  0.55594050  0.17100100  1
  O  O167  1  0.27323650  0.64786650  0.84040900  1
  O  O168  1  0.33121300  0.40972200  0.83444500  1
  O  O169  1  0.89197250  0.87605350  0.06879200  1
  O  O170  1  0.33121300  0.59027800  0.33444500  1
  O  O171  1  0.89197250  0.12394650  0.56879200  1
