# generated using pymatgen
data_Ho2(SeO4)3
_symmetry_space_group_name_H-M   'P 1'
_cell_length_a   9.65628700
_cell_length_b   9.74681600
_cell_length_c   13.42768200
_cell_angle_alpha   90.00000000
_cell_angle_beta   90.00000000
_cell_angle_gamma   90.00000000
_symmetry_Int_Tables_number   1
_chemical_formula_structural   Ho2(SeO4)3
_chemical_formula_sum   'Ho8 Se12 O48'
_cell_volume   1263.78728120
_cell_formula_units_Z   4
loop_
 _symmetry_equiv_pos_site_id
 _symmetry_equiv_pos_as_xyz
  1  'x, y, z'
loop_
 _atom_site_type_symbol
 _atom_site_label
 _atom_site_symmetry_multiplicity
 _atom_site_fract_x
 _atom_site_fract_y
 _atom_site_fract_z
 _atom_site_occupancy
  Ho  Ho0  1  0.24976900  0.96226400  0.11773800  1
  Ho  Ho1  1  0.75023100  0.46226400  0.11773800  1
  Ho  Ho2  1  0.25023100  0.46226400  0.38226200  1
  Ho  Ho3  1  0.74976900  0.96226400  0.38226200  1
  Ho  Ho4  1  0.25023100  0.03773600  0.61773800  1
  Ho  Ho5  1  0.74976900  0.53773600  0.61773800  1
  Ho  Ho6  1  0.24976900  0.53773600  0.88226200  1
  Ho  Ho7  1  0.75023100  0.03773600  0.88226200  1
  Se  Se8  1  0.03499900  0.25000000  0.00000000  1
  Se  Se9  1  0.96500100  0.75000000  0.00000000  1
  Se  Se10  1  0.39390100  0.61156500  0.14668100  1
  Se  Se11  1  0.60609900  0.11156500  0.14668100  1
  Se  Se12  1  0.10609900  0.11156500  0.35331900  1
  Se  Se13  1  0.89390100  0.61156500  0.35331900  1
  Se  Se14  1  0.46500100  0.75000000  0.50000000  1
  Se  Se15  1  0.53499900  0.25000000  0.50000000  1
  Se  Se16  1  0.10609900  0.38843500  0.64668100  1
  Se  Se17  1  0.89390100  0.88843500  0.64668100  1
  Se  Se18  1  0.39390100  0.88843500  0.85331900  1
  Se  Se19  1  0.60609900  0.38843500  0.85331900  1
  O  O20  1  0.66731500  0.07387800  0.03423900  1
  O  O21  1  0.33268500  0.57387800  0.03423900  1
  O  O22  1  0.86473300  0.64478800  0.06476800  1
  O  O23  1  0.13526700  0.14478800  0.06476800  1
  O  O24  1  0.06235300  0.83665200  0.08057700  1
  O  O25  1  0.93764700  0.33665200  0.08057700  1
  O  O26  1  0.43502600  0.09423600  0.14836900  1
  O  O27  1  0.56497400  0.59423600  0.14836900  1
  O  O28  1  0.35604900  0.77316500  0.17628600  1
  O  O29  1  0.64395100  0.27316500  0.17628600  1
  O  O30  1  0.32234700  0.50354600  0.22746400  1
  O  O31  1  0.67765300  0.00354600  0.22746400  1
  O  O32  1  0.17765300  0.00354600  0.27253600  1
  O  O33  1  0.82234700  0.50354600  0.27253600  1
  O  O34  1  0.85604900  0.77316500  0.32371400  1
  O  O35  1  0.14395100  0.27316500  0.32371400  1
  O  O36  1  0.06497400  0.59423600  0.35163100  1
  O  O37  1  0.93502600  0.09423600  0.35163100  1
  O  O38  1  0.43764700  0.33665200  0.41942300  1
  O  O39  1  0.56235300  0.83665200  0.41942300  1
  O  O40  1  0.36473300  0.64478800  0.43523200  1
  O  O41  1  0.63526700  0.14478800  0.43523200  1
  O  O42  1  0.16731500  0.07387800  0.46576100  1
  O  O43  1  0.83268500  0.57387800  0.46576100  1
  O  O44  1  0.16731500  0.42612200  0.53423900  1
  O  O45  1  0.83268500  0.92612200  0.53423900  1
  O  O46  1  0.63526700  0.35521200  0.56476800  1
  O  O47  1  0.36473300  0.85521200  0.56476800  1
  O  O48  1  0.43764700  0.16334800  0.58057700  1
  O  O49  1  0.56235300  0.66334800  0.58057700  1
  O  O50  1  0.06497400  0.90576400  0.64836900  1
  O  O51  1  0.93502600  0.40576400  0.64836900  1
  O  O52  1  0.14395100  0.22683500  0.67628600  1
  O  O53  1  0.85604900  0.72683500  0.67628600  1
  O  O54  1  0.17765300  0.49645400  0.72746400  1
  O  O55  1  0.82234700  0.99645400  0.72746400  1
  O  O56  1  0.32234700  0.99645400  0.77253600  1
  O  O57  1  0.67765300  0.49645400  0.77253600  1
  O  O58  1  0.35604900  0.72683500  0.82371400  1
  O  O59  1  0.64395100  0.22683500  0.82371400  1
  O  O60  1  0.43502600  0.40576400  0.85163100  1
  O  O61  1  0.56497400  0.90576400  0.85163100  1
  O  O62  1  0.06235300  0.66334800  0.91942300  1
  O  O63  1  0.93764700  0.16334800  0.91942300  1
  O  O64  1  0.13526700  0.35521200  0.93523200  1
  O  O65  1  0.86473300  0.85521200  0.93523200  1
  O  O66  1  0.33268500  0.92612200  0.96576100  1
  O  O67  1  0.66731500  0.42612200  0.96576100  1
