# generated using pymatgen
data_Li24Ti11CrO36
_symmetry_space_group_name_H-M   'P 1'
_cell_length_a   15.32951400
_cell_length_b   8.81475400
_cell_length_c   10.28269471
_cell_angle_alpha   90.00000000
_cell_angle_beta   109.72811735
_cell_angle_gamma   90.00000000
_symmetry_Int_Tables_number   1
_chemical_formula_structural   Li24Ti11CrO36
_chemical_formula_sum   'Li48 Ti22 Cr2 O72'
_cell_volume   1307.90407538
_cell_formula_units_Z   2
loop_
 _symmetry_equiv_pos_site_id
 _symmetry_equiv_pos_as_xyz
  1  'x, y, z'
loop_
 _atom_site_type_symbol
 _atom_site_label
 _atom_site_symmetry_multiplicity
 _atom_site_fract_x
 _atom_site_fract_y
 _atom_site_fract_z
 _atom_site_occupancy
  Li  Li0  1  0.16718400  0.82830700  0.24982400  1
  Li  Li1  1  0.16615300  0.66616100  0.49962400  1
  Li  Li2  1  0.16666400  0.82869500  0.75103800  1
  Li  Li3  1  0.16642050  0.50524050  0.74900900  1
  Li  Li4  1  0.33334100  0.66659100  0.74997900  1
  Li  Li5  1  0.16665850  0.66661450  0.99996800  1
  Li  Li6  1  0.16639850  0.50557850  0.25006600  1
  Li  Li7  1  0.33295800  0.66570400  0.24919500  1
  Li  Li8  1  0.16704200  0.16570400  0.75080500  1
  Li  Li9  1  0.16665900  0.16659100  0.25002100  1
  Li  Li10  1  0.33333600  0.32869500  0.24896200  1
  Li  Li11  1  0.33384700  0.16616100  0.50037600  1
  Li  Li12  1  0.33281600  0.32830700  0.75017600  1
  Li  Li13  1  0.33360150  0.00557850  0.74993400  1
  Li  Li14  1  0.49974350  0.16544750  0.74891200  1
  Li  Li15  1  0.33334150  0.16661450  0.00003200  1
  Li  Li16  1  0.33357950  0.00524050  0.25099100  1
  Li  Li17  1  0.00025650  0.66544750  0.25108800  1
  Li  Li18  1  0.00037800  0.32935400  0.25042500  1
  Li  Li19  1  0.00000000  0.16690600  0.50000000  1
  Li  Li20  1  0.49962200  0.82935400  0.74957500  1
  Li  Li21  1  0.00040700  0.00484900  0.74933900  1
  Li  Li22  1  0.00000000  0.16663600  0.00000000  1
  Li  Li23  1  0.49959300  0.50484900  0.25066100  1
  Li  Li24  1  0.66718400  0.32830700  0.24982400  1
  Li  Li25  1  0.66615300  0.16616100  0.49962400  1
  Li  Li26  1  0.66666400  0.32869500  0.75103800  1
  Li  Li27  1  0.66642050  0.00524050  0.74900900  1
  Li  Li28  1  0.83334100  0.16659100  0.74997900  1
  Li  Li29  1  0.66665850  0.16661450  0.99996800  1
  Li  Li30  1  0.66639850  0.00557850  0.25006600  1
  Li  Li31  1  0.83295800  0.16570400  0.24919500  1
  Li  Li32  1  0.66704200  0.66570400  0.75080500  1
  Li  Li33  1  0.66665900  0.66659100  0.25002100  1
  Li  Li34  1  0.83333600  0.82869500  0.24896200  1
  Li  Li35  1  0.83384700  0.66616100  0.50037600  1
  Li  Li36  1  0.83281600  0.82830700  0.75017600  1
  Li  Li37  1  0.83360150  0.50557850  0.74993400  1
  Li  Li38  1  0.99974350  0.66544750  0.74891200  1
  Li  Li39  1  0.83334150  0.66661450  0.00003200  1
  Li  Li40  1  0.83357950  0.50524050  0.25099100  1
  Li  Li41  1  0.50025650  0.16544750  0.25108800  1
  Li  Li42  1  0.50037800  0.82935400  0.25042500  1
  Li  Li43  1  0.50000000  0.66690600  0.50000000  1
  Li  Li44  1  0.99962200  0.32935400  0.74957500  1
  Li  Li45  1  0.50040700  0.50484900  0.74933900  1
  Li  Li46  1  0.50000000  0.66663600  0.00000000  1
  Li  Li47  1  0.99959300  0.00484900  0.25066100  1
  Ti  Ti48  1  0.16622150  0.33607050  0.49780800  1
  Ti  Ti49  1  0.33368450  0.49972150  0.50019900  1
  Ti  Ti50  1  0.16654700  0.33442700  0.99991400  1
  Ti  Ti51  1  0.33332350  0.49925850  0.99976000  1
  Ti  Ti52  1  0.16631550  0.99972150  0.49980100  1
  Ti  Ti53  1  0.00000000  0.83144000  0.50000000  1
  Ti  Ti54  1  0.16667650  0.99925850  0.00024000  1
  Ti  Ti55  1  0.00000000  0.83409700  0.00000000  1
  Ti  Ti56  1  0.33377850  0.83607050  0.50219200  1
  Ti  Ti57  1  0.33345300  0.83442700  0.00008600  1
  Ti  Ti58  1  0.00000000  0.49933100  0.00000000  1
  Ti  Ti59  1  0.66622150  0.83607050  0.49780800  1
  Ti  Ti60  1  0.83368450  0.99972150  0.50019900  1
  Ti  Ti61  1  0.66654700  0.83442700  0.99991400  1
  Ti  Ti62  1  0.83332350  0.99925850  0.99976000  1
  Ti  Ti63  1  0.66631550  0.49972150  0.49980100  1
  Ti  Ti64  1  0.50000000  0.33144000  0.50000000  1
  Ti  Ti65  1  0.66667650  0.49925850  0.00024000  1
  Ti  Ti66  1  0.50000000  0.33409700  0.00000000  1
  Ti  Ti67  1  0.83377850  0.33607050  0.50219200  1
  Ti  Ti68  1  0.83345300  0.33442700  0.00008600  1
  Ti  Ti69  1  0.50000000  0.99933100  0.00000000  1
  Cr  Cr70  1  0.00000000  0.49682700  0.50000000  1
  Cr  Cr71  1  0.50000000  0.99682700  0.50000000  1
  O  O72  1  0.26084750  0.66714050  0.38422600  1
  O  O73  1  0.08243700  0.34776900  0.61183700  1
  O  O74  1  0.25982200  0.66678000  0.88429900  1
  O  O75  1  0.25144250  0.48874350  0.61336500  1
  O  O76  1  0.08478850  0.34478750  0.11343400  1
  O  O77  1  0.25147350  0.48871650  0.11324000  1
  O  O78  1  0.24790800  0.34498500  0.38640300  1
  O  O79  1  0.09292600  0.16645800  0.38447300  1
  O  O80  1  0.41521700  0.48724400  0.38641700  1
  O  O81  1  0.24839200  0.34471700  0.88642500  1
  O  O82  1  0.23915250  0.16714050  0.61577400  1
  O  O83  1  0.41810050  0.34467550  0.61323000  1
  O  O84  1  0.09331650  0.16673250  0.88443900  1
  O  O85  1  0.41521100  0.48869300  0.88685500  1
  O  O86  1  0.08478300  0.98724400  0.61358300  1
  O  O87  1  0.24017800  0.16678000  0.11570100  1
  O  O88  1  0.41799100  0.34459800  0.11331300  1
  O  O89  1  0.08478900  0.98869300  0.11314500  1
  O  O90  1  0.08189950  0.84467550  0.38677000  1
  O  O91  1  0.24855750  0.98874350  0.38663500  1
  O  O92  1  0.42700550  0.16372450  0.38625200  1
  O  O93  1  0.08200900  0.84459800  0.88668700  1
  O  O94  1  0.25209200  0.84498500  0.61359700  1
  O  O95  1  0.07299450  0.66372450  0.61374800  1
  O  O96  1  0.24852650  0.98871650  0.88676000  1
  O  O97  1  0.42655200  0.16670900  0.88445100  1
  O  O98  1  0.41762250  0.98914450  0.61284700  1
  O  O99  1  0.25160800  0.84471700  0.11357500  1
  O  O100  1  0.07344800  0.66670900  0.11554900  1
  O  O101  1  0.41805050  0.98873750  0.11303100  1
  O  O102  1  0.41756300  0.84776900  0.38816300  1
  O  O103  1  0.08237750  0.48914450  0.38715300  1
  O  O104  1  0.41521150  0.84478750  0.88656600  1
  O  O105  1  0.40707400  0.66645800  0.61552700  1
  O  O106  1  0.08194950  0.48873750  0.88696900  1
  O  O107  1  0.40668350  0.66673250  0.11556100  1
  O  O108  1  0.76084750  0.16714050  0.38422600  1
  O  O109  1  0.58243700  0.84776900  0.61183700  1
  O  O110  1  0.75982200  0.16678000  0.88429900  1
  O  O111  1  0.75144250  0.98874350  0.61336500  1
  O  O112  1  0.58478850  0.84478750  0.11343400  1
  O  O113  1  0.75147350  0.98871650  0.11324000  1
  O  O114  1  0.74790800  0.84498500  0.38640300  1
  O  O115  1  0.59292600  0.66645800  0.38447300  1
  O  O116  1  0.91521700  0.98724400  0.38641700  1
  O  O117  1  0.74839200  0.84471700  0.88642500  1
  O  O118  1  0.73915250  0.66714050  0.61577400  1
  O  O119  1  0.91810050  0.84467550  0.61323000  1
  O  O120  1  0.59331650  0.66673250  0.88443900  1
  O  O121  1  0.91521100  0.98869300  0.88685500  1
  O  O122  1  0.58478300  0.48724400  0.61358300  1
  O  O123  1  0.74017800  0.66678000  0.11570100  1
  O  O124  1  0.91799100  0.84459800  0.11331300  1
  O  O125  1  0.58478900  0.48869300  0.11314500  1
  O  O126  1  0.58189950  0.34467550  0.38677000  1
  O  O127  1  0.74855750  0.48874350  0.38663500  1
  O  O128  1  0.92700550  0.66372450  0.38625200  1
  O  O129  1  0.58200900  0.34459800  0.88668700  1
  O  O130  1  0.75209200  0.34498500  0.61359700  1
  O  O131  1  0.57299450  0.16372450  0.61374800  1
  O  O132  1  0.74852650  0.48871650  0.88676000  1
  O  O133  1  0.92655200  0.66670900  0.88445100  1
  O  O134  1  0.91762250  0.48914450  0.61284700  1
  O  O135  1  0.75160800  0.34471700  0.11357500  1
  O  O136  1  0.57344800  0.16670900  0.11554900  1
  O  O137  1  0.91805050  0.48873750  0.11303100  1
  O  O138  1  0.91756300  0.34776900  0.38816300  1
  O  O139  1  0.58237750  0.98914450  0.38715300  1
  O  O140  1  0.91521150  0.34478750  0.88656600  1
  O  O141  1  0.90707400  0.16645800  0.61552700  1
  O  O142  1  0.58194950  0.98873750  0.88696900  1
  O  O143  1  0.90668350  0.16673250  0.11556100  1
