# generated using pymatgen
data_V2CrO7
_symmetry_space_group_name_H-M   'P 1'
_cell_length_a   8.63583900
_cell_length_b   8.63583900
_cell_length_c   8.63583900
_cell_angle_alpha   90.00000000
_cell_angle_beta   90.00000000
_cell_angle_gamma   90.00000000
_symmetry_Int_Tables_number   1
_chemical_formula_structural   V2CrO7
_chemical_formula_sum   'V8 Cr4 O28'
_cell_volume   644.04114175
_cell_formula_units_Z   4
loop_
 _symmetry_equiv_pos_site_id
 _symmetry_equiv_pos_as_xyz
  1  'x, y, z'
loop_
 _atom_site_type_symbol
 _atom_site_label
 _atom_site_symmetry_multiplicity
 _atom_site_fract_x
 _atom_site_fract_y
 _atom_site_fract_z
 _atom_site_occupancy
  V  V0  1  0.11915200  0.88084800  0.38084800  1
  V  V1  1  0.11915200  0.61915200  0.88084800  1
  V  V2  1  0.38084800  0.38084800  0.38084800  1
  V  V3  1  0.38084800  0.11915200  0.88084800  1
  V  V4  1  0.61915200  0.61915200  0.61915200  1
  V  V5  1  0.61915200  0.88084800  0.11915200  1
  V  V6  1  0.88084800  0.11915200  0.61915200  1
  V  V7  1  0.88084800  0.38084800  0.11915200  1
  Cr  Cr8  1  0.00000000  0.00000000  0.00000000  1
  Cr  Cr9  1  0.00000000  0.50000000  0.50000000  1
  Cr  Cr10  1  0.50000000  0.00000000  0.50000000  1
  Cr  Cr11  1  0.50000000  0.50000000  0.00000000  1
  O  O12  1  0.00000000  0.00000000  0.50000000  1
  O  O13  1  0.00000000  0.50000000  0.00000000  1
  O  O14  1  0.06244000  0.69191600  0.40749400  1
  O  O15  1  0.06244000  0.80808400  0.90749400  1
  O  O16  1  0.09250600  0.56244000  0.69191600  1
  O  O17  1  0.09250600  0.93756000  0.19191600  1
  O  O18  1  0.19191600  0.09250600  0.93756000  1
  O  O19  1  0.19191600  0.40749400  0.43756000  1
  O  O20  1  0.30808400  0.59250600  0.93756000  1
  O  O21  1  0.30808400  0.90749400  0.43756000  1
  O  O22  1  0.40749400  0.06244000  0.69191600  1
  O  O23  1  0.40749400  0.43756000  0.19191600  1
  O  O24  1  0.43756000  0.30808400  0.90749400  1
  O  O25  1  0.43756000  0.19191600  0.40749400  1
  O  O26  1  0.50000000  0.50000000  0.50000000  1
  O  O27  1  0.50000000  0.00000000  0.00000000  1
  O  O28  1  0.56244000  0.69191600  0.09250600  1
  O  O29  1  0.56244000  0.80808400  0.59250600  1
  O  O30  1  0.59250600  0.56244000  0.80808400  1
  O  O31  1  0.59250600  0.93756000  0.30808400  1
  O  O32  1  0.69191600  0.09250600  0.56244000  1
  O  O33  1  0.69191600  0.40749400  0.06244000  1
  O  O34  1  0.80808400  0.59250600  0.56244000  1
  O  O35  1  0.80808400  0.90749400  0.06244000  1
  O  O36  1  0.90749400  0.06244000  0.80808400  1
  O  O37  1  0.90749400  0.43756000  0.30808400  1
  O  O38  1  0.93756000  0.19191600  0.09250600  1
  O  O39  1  0.93756000  0.30808400  0.59250600  1
