# generated using pymatgen
data_Li4V3Sb5O16
_symmetry_space_group_name_H-M   'P 1'
_cell_length_a   6.21614380
_cell_length_b   6.28290764
_cell_length_c   10.38593859
_cell_angle_alpha   91.44125390
_cell_angle_beta   89.95676535
_cell_angle_gamma   117.22953615
_symmetry_Int_Tables_number   1
_chemical_formula_structural   Li4V3Sb5O16
_chemical_formula_sum   'Li4 V3 Sb5 O16'
_cell_volume   360.53569374
_cell_formula_units_Z   1
loop_
 _symmetry_equiv_pos_site_id
 _symmetry_equiv_pos_as_xyz
  1  'x, y, z'
loop_
 _atom_site_type_symbol
 _atom_site_label
 _atom_site_symmetry_multiplicity
 _atom_site_fract_x
 _atom_site_fract_y
 _atom_site_fract_z
 _atom_site_occupancy
  Li  Li0  1  0.33588700  0.66146800  0.12184800  1
  Li  Li1  1  0.99935500  0.98321900  0.00695400  1
  Li  Li2  1  0.99163000  0.99146600  0.49940000  1
  Li  Li3  1  0.68695800  0.34816700  0.59648300  1
  V  V4  1  0.17222000  0.83958200  0.77860000  1
  V  V5  1  0.82647400  0.66326400  0.28189500  1
  V  V6  1  0.34099000  0.17993800  0.28734800  1
  Sb  Sb7  1  0.66873000  0.82902900  0.78413900  1
  Sb  Sb8  1  0.31007900  0.67507300  0.49359300  1
  Sb  Sb9  1  0.17385700  0.35361600  0.78322300  1
  Sb  Sb10  1  0.83863600  0.17452400  0.28346700  1
  Sb  Sb11  1  0.63109700  0.29573500  0.00697700  1
  O  O12  1  0.71004400  0.87272200  0.38218700  1
  O  O13  1  0.50217300  0.50614700  0.68574600  1
  O  O14  1  0.35800200  0.68520800  0.89042500  1
  O  O15  1  0.97038300  0.97291800  0.67671700  1
  O  O16  1  0.00679300  0.00971600  0.18606700  1
  O  O17  1  0.13854000  0.30259500  0.40052300  1
  O  O18  1  0.49355200  0.97134400  0.67851300  1
  O  O19  1  0.05195500  0.56191000  0.64194400  1
  O  O20  1  0.78608500  0.09754000  0.91967600  1
  O  O21  1  0.15652300  0.85030400  0.39062900  1
  O  O22  1  0.97323000  0.47779000  0.18277300  1
  O  O23  1  0.52580400  0.04474300  0.16708600  1
  O  O24  1  0.67256700  0.33107500  0.39044900  1
  O  O25  1  0.87056500  0.70915200  0.88045300  1
  O  O26  1  0.50437500  0.48136200  0.19088800  1
  O  O27  1  0.30380100  0.13069600  0.90415800  1
