# generated using pymatgen
data_Sr3Li3La5O12
_symmetry_space_group_name_H-M   'P 1'
_cell_length_a   6.94523800
_cell_length_b   3.59398100
_cell_length_c   13.65569236
_cell_angle_alpha   90.00000000
_cell_angle_beta   90.19035283
_cell_angle_gamma   90.00000000
_symmetry_Int_Tables_number   1
_chemical_formula_structural   Sr3Li3La5O12
_chemical_formula_sum   'Sr3 Li3 La5 O12'
_cell_volume   340.85858532
_cell_formula_units_Z   1
loop_
 _symmetry_equiv_pos_site_id
 _symmetry_equiv_pos_as_xyz
  1  'x, y, z'
loop_
 _atom_site_type_symbol
 _atom_site_label
 _atom_site_symmetry_multiplicity
 _atom_site_fract_x
 _atom_site_fract_y
 _atom_site_fract_z
 _atom_site_occupancy
  Sr  Sr0  1  0.09852900  0.00000000  0.21883300  1
  Sr  Sr1  1  0.57888300  0.00000000  0.26827700  1
  Sr  Sr2  1  0.41085800  0.50000000  0.71839700  1
  Li  Li3  1  0.87518100  0.50000000  0.36245000  1
  Li  Li4  1  0.12213700  0.00000000  0.63242700  1
  Li  Li5  1  0.61576800  0.00000000  0.86899400  1
  La  La6  1  0.74642400  0.50000000  0.04421400  1
  La  La7  1  0.25671600  0.50000000  0.45800600  1
  La  La8  1  0.74584800  0.00000000  0.53799700  1
  La  La9  1  0.91340100  0.50000000  0.78573000  1
  La  La10  1  0.25508500  0.00000000  0.97061000  1
  O  O11  1  0.11523200  0.50000000  0.05639600  1
  O  O12  1  0.53515700  0.00000000  0.08369000  1
  O  O13  1  0.82209100  0.50000000  0.22265800  1
  O  O14  1  0.31116800  0.50000000  0.29249200  1
  O  O15  1  0.00786900  0.00000000  0.41016400  1
  O  O16  1  0.63773300  0.50000000  0.43906100  1
  O  O17  1  0.37143300  0.00000000  0.56703600  1
  O  O18  1  0.98566600  0.50000000  0.60745500  1
  O  O19  1  0.69090400  0.00000000  0.72573300  1
  O  O20  1  0.16703900  0.00000000  0.77482000  1
  O  O21  1  0.48927300  0.50000000  0.89784100  1
  O  O22  1  0.86928600  0.00000000  0.92375900  1
