# generated using pymatgen
data_BaSrI4
_symmetry_space_group_name_H-M   'P 1'
_cell_length_a   10.21900700
_cell_length_b   11.19704200
_cell_length_c   11.20805500
_cell_angle_alpha   90.00000000
_cell_angle_beta   90.00000000
_cell_angle_gamma   90.00000000
_symmetry_Int_Tables_number   1
_chemical_formula_structural   BaSrI4
_chemical_formula_sum   'Ba4 Sr4 I16'
_cell_volume   1282.45536092
_cell_formula_units_Z   4
loop_
 _symmetry_equiv_pos_site_id
 _symmetry_equiv_pos_as_xyz
  1  'x, y, z'
loop_
 _atom_site_type_symbol
 _atom_site_label
 _atom_site_symmetry_multiplicity
 _atom_site_fract_x
 _atom_site_fract_y
 _atom_site_fract_z
 _atom_site_occupancy
  Ba  Ba0  1  0.99583200  0.76143600  0.21686100  1
  Ba  Ba1  1  0.50416800  0.26143600  0.71686100  1
  Ba  Ba2  1  0.49583200  0.73856400  0.21686100  1
  Ba  Ba3  1  0.00416800  0.23856400  0.71686100  1
  Sr  Sr4  1  0.22711200  0.25079800  0.21728300  1
  Sr  Sr5  1  0.27288800  0.75079800  0.71728300  1
  Sr  Sr6  1  0.72711200  0.24920200  0.21728300  1
  Sr  Sr7  1  0.77288800  0.74920200  0.71728300  1
  I  I8  1  0.02054200  0.76650100  0.52758500  1
  I  I9  1  0.02101200  0.77429600  0.90633900  1
  I  I10  1  0.24365300  0.45621800  0.72567000  1
  I  I11  1  0.23420000  0.54497100  0.20564300  1
  I  I12  1  0.26580000  0.04497100  0.70564300  1
  I  I13  1  0.25634700  0.95621800  0.22567000  1
  I  I14  1  0.47898800  0.27429600  0.40633900  1
  I  I15  1  0.47945800  0.26650100  0.02758500  1
  I  I16  1  0.52054200  0.73349900  0.52758500  1
  I  I17  1  0.52101200  0.72570400  0.90633900  1
  I  I18  1  0.74365300  0.04378200  0.72567000  1
  I  I19  1  0.73420000  0.95502900  0.20564300  1
  I  I20  1  0.76580000  0.45502900  0.70564300  1
  I  I21  1  0.75634700  0.54378200  0.22567000  1
  I  I22  1  0.97898800  0.22570400  0.40633900  1
  I  I23  1  0.97945800  0.23349900  0.02758500  1
