# generated using pymatgen
data_BaSr2I6
_symmetry_space_group_name_H-M   'P 1'
_cell_length_a   7.71392700
_cell_length_b   8.39309500
_cell_length_c   15.28962691
_cell_angle_alpha   90.00000000
_cell_angle_beta   115.69231232
_cell_angle_gamma   90.00000000
_symmetry_Int_Tables_number   1
_chemical_formula_structural   BaSr2I6
_chemical_formula_sum   'Ba2 Sr4 I12'
_cell_volume   892.04036318
_cell_formula_units_Z   2
loop_
 _symmetry_equiv_pos_site_id
 _symmetry_equiv_pos_as_xyz
  1  'x, y, z'
loop_
 _atom_site_type_symbol
 _atom_site_label
 _atom_site_symmetry_multiplicity
 _atom_site_fract_x
 _atom_site_fract_y
 _atom_site_fract_z
 _atom_site_occupancy
  Ba  Ba0  1  0.00000000  0.50000000  0.50000000  1
  Ba  Ba1  1  0.00000000  0.00000000  0.00000000  1
  Sr  Sr2  1  0.66982700  0.89867300  0.24392200  1
  Sr  Sr3  1  0.33017300  0.39867300  0.25607800  1
  Sr  Sr4  1  0.66982700  0.60132700  0.74392200  1
  Sr  Sr5  1  0.33017300  0.10132700  0.75607800  1
  I  I6  1  0.69790300  0.17512400  0.40522200  1
  I  I7  1  0.56822100  0.69274700  0.40626200  1
  I  I8  1  0.05835500  0.07418500  0.23582600  1
  I  I9  1  0.94164500  0.57418500  0.26417400  1
  I  I10  1  0.43177900  0.19274700  0.09373800  1
  I  I11  1  0.30209700  0.67512400  0.09477800  1
  I  I12  1  0.69790300  0.32487600  0.90522200  1
  I  I13  1  0.56822100  0.80725300  0.90626200  1
  I  I14  1  0.05835500  0.42581500  0.73582600  1
  I  I15  1  0.94164500  0.92581500  0.76417400  1
  I  I16  1  0.43177900  0.30725300  0.59373800  1
  I  I17  1  0.30209700  0.82487600  0.59477800  1
