# generated using pymatgen
data_Li6Fe5SbO12
_symmetry_space_group_name_H-M   'P 1'
_cell_length_a   5.29559800
_cell_length_b   9.20912200
_cell_length_c   10.47490792
_cell_angle_alpha   90.00000000
_cell_angle_beta   97.82195096
_cell_angle_gamma   90.00000000
_symmetry_Int_Tables_number   1
_chemical_formula_structural   Li6Fe5SbO12
_chemical_formula_sum   'Li12 Fe10 Sb2 O24'
_cell_volume   506.08534329
_cell_formula_units_Z   2
loop_
 _symmetry_equiv_pos_site_id
 _symmetry_equiv_pos_as_xyz
  1  'x, y, z'
loop_
 _atom_site_type_symbol
 _atom_site_label
 _atom_site_symmetry_multiplicity
 _atom_site_fract_x
 _atom_site_fract_y
 _atom_site_fract_z
 _atom_site_occupancy
  Li  Li0  1  0.71773000  0.83466900  0.71598100  1
  Li  Li1  1  0.77950900  0.00000000  0.28886500  1
  Li  Li2  1  0.28227000  0.83466900  0.28401900  1
  Li  Li3  1  0.21773000  0.66533100  0.71598100  1
  Li  Li4  1  0.22049100  0.00000000  0.71113500  1
  Li  Li5  1  0.78227000  0.66533100  0.28401900  1
  Li  Li6  1  0.21773000  0.33466900  0.71598100  1
  Li  Li7  1  0.27950900  0.50000000  0.28886500  1
  Li  Li8  1  0.78227000  0.33466900  0.28401900  1
  Li  Li9  1  0.71773000  0.16533100  0.71598100  1
  Li  Li10  1  0.72049100  0.50000000  0.71113500  1
  Li  Li11  1  0.28227000  0.16533100  0.28401900  1
  Fe  Fe12  1  0.50000000  0.66970000  0.50000000  1
  Fe  Fe13  1  0.50000000  0.00000000  0.50000000  1
  Fe  Fe14  1  0.00000000  0.83030000  0.50000000  1
  Fe  Fe15  1  0.50000000  0.83863900  0.00000000  1
  Fe  Fe16  1  0.00000000  0.66136100  0.00000000  1
  Fe  Fe17  1  0.00000000  0.16970000  0.50000000  1
  Fe  Fe18  1  0.00000000  0.50000000  0.50000000  1
  Fe  Fe19  1  0.50000000  0.33030000  0.50000000  1
  Fe  Fe20  1  0.00000000  0.33863900  0.00000000  1
  Fe  Fe21  1  0.50000000  0.16136100  0.00000000  1
  Sb  Sb22  1  0.00000000  0.00000000  0.00000000  1
  Sb  Sb23  1  0.50000000  0.50000000  0.00000000  1
  O  O24  1  0.69051200  0.65953200  0.10209000  1
  O  O25  1  0.30948800  0.65953200  0.89791000  1
  O  O26  1  0.64833850  0.82456150  0.38725500  1
  O  O27  1  0.86723700  0.00000000  0.60819500  1
  O  O28  1  0.35166150  0.82456150  0.61274500  1
  O  O29  1  0.71148700  0.00000000  0.10717300  1
  O  O30  1  0.28851300  0.00000000  0.89282700  1
  O  O31  1  0.14833850  0.67543850  0.38725500  1
  O  O32  1  0.13276300  0.00000000  0.39180500  1
  O  O33  1  0.85166150  0.67543850  0.61274500  1
  O  O34  1  0.19051200  0.84046800  0.10209000  1
  O  O35  1  0.80948800  0.84046800  0.89791000  1
  O  O36  1  0.19051200  0.15953200  0.10209000  1
  O  O37  1  0.80948800  0.15953200  0.89791000  1
  O  O38  1  0.14833850  0.32456150  0.38725500  1
  O  O39  1  0.36723700  0.50000000  0.60819500  1
  O  O40  1  0.85166150  0.32456150  0.61274500  1
  O  O41  1  0.21148700  0.50000000  0.10717300  1
  O  O42  1  0.78851300  0.50000000  0.89282700  1
  O  O43  1  0.64833850  0.17543850  0.38725500  1
  O  O44  1  0.63276300  0.50000000  0.39180500  1
  O  O45  1  0.35166150  0.17543850  0.61274500  1
  O  O46  1  0.69051200  0.34046800  0.10209000  1
  O  O47  1  0.30948800  0.34046800  0.89791000  1
