# generated using pymatgen
data_BaCa2I6
_symmetry_space_group_name_H-M   'P 1'
_cell_length_a   7.40820000
_cell_length_b   8.25755200
_cell_length_c   27.44080000
_cell_angle_alpha   90.00000000
_cell_angle_beta   90.00000000
_cell_angle_gamma   90.00000000
_symmetry_Int_Tables_number   1
_chemical_formula_structural   BaCa2I6
_chemical_formula_sum   'Ba4 Ca8 I24'
_cell_volume   1678.65243305
_cell_formula_units_Z   4
loop_
 _symmetry_equiv_pos_site_id
 _symmetry_equiv_pos_as_xyz
  1  'x, y, z'
loop_
 _atom_site_type_symbol
 _atom_site_label
 _atom_site_symmetry_multiplicity
 _atom_site_fract_x
 _atom_site_fract_y
 _atom_site_fract_z
 _atom_site_occupancy
  Ba  Ba0  1  0.00000000  0.25000000  0.62169300  1
  Ba  Ba1  1  0.00000000  0.75000000  0.37830700  1
  Ba  Ba2  1  0.50000000  0.25000000  0.12169300  1
  Ba  Ba3  1  0.50000000  0.75000000  0.87830700  1
  Ca  Ca4  1  0.00000000  0.25000000  0.95413800  1
  Ca  Ca5  1  0.00000000  0.75000000  0.71336800  1
  Ca  Ca6  1  0.00000000  0.25000000  0.28663200  1
  Ca  Ca7  1  0.00000000  0.75000000  0.04586200  1
  Ca  Ca8  1  0.50000000  0.25000000  0.78663200  1
  Ca  Ca9  1  0.50000000  0.75000000  0.21336800  1
  Ca  Ca10  1  0.50000000  0.25000000  0.45413800  1
  Ca  Ca11  1  0.50000000  0.75000000  0.54586200  1
  I  I12  1  0.23132100  0.56690100  0.96582900  1
  I  I13  1  0.23132100  0.06690100  0.03417100  1
  I  I14  1  0.24438800  0.55808800  0.78930900  1
  I  I15  1  0.24438800  0.05808800  0.21069100  1
  I  I16  1  0.24355000  0.60585800  0.62857100  1
  I  I17  1  0.24355000  0.10585800  0.37142900  1
  I  I18  1  0.25645000  0.10585800  0.87142900  1
  I  I19  1  0.25645000  0.60585800  0.12857100  1
  I  I20  1  0.25561200  0.05808800  0.71069100  1
  I  I21  1  0.25561200  0.55808800  0.28930900  1
  I  I22  1  0.26867900  0.06690100  0.53417100  1
  I  I23  1  0.26867900  0.56690100  0.46582900  1
  I  I24  1  0.73132100  0.93309900  0.46582900  1
  I  I25  1  0.73132100  0.43309900  0.53417100  1
  I  I26  1  0.74438800  0.44191200  0.71069100  1
  I  I27  1  0.74438800  0.94191200  0.28930900  1
  I  I28  1  0.74355000  0.89414200  0.12857100  1
  I  I29  1  0.74355000  0.39414200  0.87142900  1
  I  I30  1  0.75645000  0.89414200  0.62857100  1
  I  I31  1  0.75645000  0.39414200  0.37142900  1
  I  I32  1  0.75561200  0.94191200  0.78930900  1
  I  I33  1  0.75561200  0.44191200  0.21069100  1
  I  I34  1  0.76867900  0.93309900  0.96582900  1
  I  I35  1  0.76867900  0.43309900  0.03417100  1
