# generated using pymatgen
data_Ga10Si2O19
_symmetry_space_group_name_H-M   'P 1'
_cell_length_a   6.18320600
_cell_length_b   31.16468200
_cell_length_c   7.93695700
_cell_angle_alpha   90.00000000
_cell_angle_beta   90.00000000
_cell_angle_gamma   90.00000000
_symmetry_Int_Tables_number   1
_chemical_formula_structural   Ga10Si2O19
_chemical_formula_sum   'Ga40 Si8 O76'
_cell_volume   1529.43295198
_cell_formula_units_Z   4
loop_
 _symmetry_equiv_pos_site_id
 _symmetry_equiv_pos_as_xyz
  1  'x, y, z'
loop_
 _atom_site_type_symbol
 _atom_site_label
 _atom_site_symmetry_multiplicity
 _atom_site_fract_x
 _atom_site_fract_y
 _atom_site_fract_z
 _atom_site_occupancy
  Ga  Ga0  1  0.50000000  0.53017700  0.34473500  1
  Ga  Ga1  1  0.50000000  0.60335100  0.66588300  1
  Ga  Ga2  1  0.50000000  0.64422600  0.20129900  1
  Ga  Ga3  1  0.50000000  0.71691100  0.81873900  1
  Ga  Ga4  1  0.74557750  0.80853450  0.00449300  1
  Ga  Ga5  1  0.25442250  0.80853450  0.00449300  1
  Ga  Ga6  1  0.50000000  0.89689100  0.16457700  1
  Ga  Ga7  1  0.24370700  0.93946200  0.49709000  1
  Ga  Ga8  1  0.75629300  0.93946200  0.49709000  1
  Ga  Ga9  1  0.50000000  0.97670800  0.81996200  1
  Ga  Ga10  1  0.00000000  0.52329200  0.31996200  1
  Ga  Ga11  1  0.25629300  0.56053800  0.99709000  1
  Ga  Ga12  1  0.74370700  0.56053800  0.99709000  1
  Ga  Ga13  1  0.00000000  0.60310900  0.66457700  1
  Ga  Ga14  1  0.24557750  0.69146550  0.50449300  1
  Ga  Ga15  1  0.75442250  0.69146550  0.50449300  1
  Ga  Ga16  1  0.00000000  0.78308900  0.31873900  1
  Ga  Ga17  1  0.00000000  0.85577400  0.70129900  1
  Ga  Ga18  1  0.00000000  0.89664900  0.16588300  1
  Ga  Ga19  1  0.00000000  0.96982300  0.84473500  1
  Ga  Ga20  1  0.00000000  0.03017700  0.34473500  1
  Ga  Ga21  1  0.00000000  0.10335100  0.66588300  1
  Ga  Ga22  1  0.00000000  0.14422600  0.20129900  1
  Ga  Ga23  1  0.00000000  0.21691100  0.81873900  1
  Ga  Ga24  1  0.24557750  0.30853450  0.00449300  1
  Ga  Ga25  1  0.75442250  0.30853450  0.00449300  1
  Ga  Ga26  1  0.00000000  0.39689100  0.16457700  1
  Ga  Ga27  1  0.74370700  0.43946200  0.49709000  1
  Ga  Ga28  1  0.25629300  0.43946200  0.49709000  1
  Ga  Ga29  1  0.00000000  0.47670800  0.81996200  1
  Ga  Ga30  1  0.50000000  0.02329200  0.31996200  1
  Ga  Ga31  1  0.75629300  0.06053800  0.99709000  1
  Ga  Ga32  1  0.24370700  0.06053800  0.99709000  1
  Ga  Ga33  1  0.50000000  0.10310900  0.66457700  1
  Ga  Ga34  1  0.74557750  0.19146550  0.50449300  1
  Ga  Ga35  1  0.25442250  0.19146550  0.50449300  1
  Ga  Ga36  1  0.50000000  0.28308900  0.31873900  1
  Ga  Ga37  1  0.50000000  0.35577400  0.70129900  1
  Ga  Ga38  1  0.50000000  0.39664900  0.16588300  1
  Ga  Ga39  1  0.50000000  0.46982300  0.84473500  1
  Si  Si40  1  0.50000000  0.74118700  0.17859600  1
  Si  Si41  1  0.50000000  0.88005100  0.78607000  1
  Si  Si42  1  0.00000000  0.61994900  0.28607000  1
  Si  Si43  1  0.00000000  0.75881300  0.67859600  1
  Si  Si44  1  0.00000000  0.24118700  0.17859600  1
  Si  Si45  1  0.00000000  0.38005100  0.78607000  1
  Si  Si46  1  0.50000000  0.11994900  0.28607000  1
  Si  Si47  1  0.50000000  0.25881300  0.67859600  1
  O  O48  1  0.50000000  0.52598500  0.91850900  1
  O  O49  1  0.50000000  0.58285100  0.45265900  1
  O  O50  1  0.50000000  0.59766500  0.07055200  1
  O  O51  1  0.50000000  0.66767800  0.64282500  1
  O  O52  1  0.50000000  0.69534200  0.05576200  1
  O  O53  1  0.50000000  0.71450900  0.37019200  1
  O  O54  1  0.50000000  0.76836000  0.95321700  1
  O  O55  1  0.26094800  0.76732300  0.20009700  1
  O  O56  1  0.73905200  0.76732300  0.20009700  1
  O  O57  1  0.72118850  0.84888750  0.80726000  1
  O  O58  1  0.27881150  0.84888750  0.80726000  1
  O  O59  1  0.50000000  0.84010900  0.09766200  1
  O  O60  1  0.50000000  0.90137600  0.60089400  1
  O  O61  1  0.25273300  0.90537300  0.28371500  1
  O  O62  1  0.74726700  0.90537300  0.28371500  1
  O  O63  1  0.50000000  0.91893500  0.93520100  1
  O  O64  1  0.24500350  0.97172850  0.70857300  1
  O  O65  1  0.75499650  0.97172850  0.70857300  1
  O  O66  1  0.50000000  0.97160200  0.42520700  1
  O  O67  1  0.00000000  0.52839800  0.92520700  1
  O  O68  1  0.25499650  0.52827150  0.20857300  1
  O  O69  1  0.74500350  0.52827150  0.20857300  1
  O  O70  1  0.00000000  0.58106500  0.43520100  1
  O  O71  1  0.24726700  0.59462700  0.78371500  1
  O  O72  1  0.75273300  0.59462700  0.78371500  1
  O  O73  1  0.00000000  0.59862400  0.10089400  1
  O  O74  1  0.00000000  0.65989100  0.59766200  1
  O  O75  1  0.22118850  0.65111250  0.30726000  1
  O  O76  1  0.77881150  0.65111250  0.30726000  1
  O  O77  1  0.23905200  0.73267700  0.70009700  1
  O  O78  1  0.76094800  0.73267700  0.70009700  1
  O  O79  1  0.00000000  0.73164000  0.45321700  1
  O  O80  1  0.00000000  0.78549100  0.87019200  1
  O  O81  1  0.00000000  0.80465800  0.55576200  1
  O  O82  1  0.00000000  0.83232200  0.14282500  1
  O  O83  1  0.00000000  0.90233500  0.57055200  1
  O  O84  1  0.00000000  0.91714900  0.95265900  1
  O  O85  1  0.00000000  0.97401500  0.41850900  1
  O  O86  1  0.00000000  0.02598500  0.91850900  1
  O  O87  1  0.00000000  0.08285100  0.45265900  1
  O  O88  1  0.00000000  0.09766500  0.07055200  1
  O  O89  1  0.00000000  0.16767800  0.64282500  1
  O  O90  1  0.00000000  0.19534200  0.05576200  1
  O  O91  1  0.00000000  0.21450900  0.37019200  1
  O  O92  1  0.00000000  0.26836000  0.95321700  1
  O  O93  1  0.76094800  0.26732300  0.20009700  1
  O  O94  1  0.23905200  0.26732300  0.20009700  1
  O  O95  1  0.22118850  0.34888750  0.80726000  1
  O  O96  1  0.77881150  0.34888750  0.80726000  1
  O  O97  1  0.00000000  0.34010900  0.09766200  1
  O  O98  1  0.00000000  0.40137600  0.60089400  1
  O  O99  1  0.75273300  0.40537300  0.28371500  1
  O  O100  1  0.24726700  0.40537300  0.28371500  1
  O  O101  1  0.00000000  0.41893500  0.93520100  1
  O  O102  1  0.74500350  0.47172850  0.70857300  1
  O  O103  1  0.25499650  0.47172850  0.70857300  1
  O  O104  1  0.00000000  0.47160200  0.42520700  1
  O  O105  1  0.50000000  0.02839800  0.92520700  1
  O  O106  1  0.75499650  0.02827150  0.20857300  1
  O  O107  1  0.24500350  0.02827150  0.20857300  1
  O  O108  1  0.50000000  0.08106500  0.43520100  1
  O  O109  1  0.74726700  0.09462700  0.78371500  1
  O  O110  1  0.25273300  0.09462700  0.78371500  1
  O  O111  1  0.50000000  0.09862400  0.10089400  1
  O  O112  1  0.50000000  0.15989100  0.59766200  1
  O  O113  1  0.72118850  0.15111250  0.30726000  1
  O  O114  1  0.27881150  0.15111250  0.30726000  1
  O  O115  1  0.73905200  0.23267700  0.70009700  1
  O  O116  1  0.26094800  0.23267700  0.70009700  1
  O  O117  1  0.50000000  0.23164000  0.45321700  1
  O  O118  1  0.50000000  0.28549100  0.87019200  1
  O  O119  1  0.50000000  0.30465800  0.55576200  1
  O  O120  1  0.50000000  0.33232200  0.14282500  1
  O  O121  1  0.50000000  0.40233500  0.57055200  1
  O  O122  1  0.50000000  0.41714900  0.95265900  1
  O  O123  1  0.50000000  0.47401500  0.41850900  1
