# generated using pymatgen
data_Lu2Sb2O7
_symmetry_space_group_name_H-M   'P 1'
_cell_length_a   7.52531200
_cell_length_b   7.62581600
_cell_length_c   10.49929400
_cell_angle_alpha   90.00000000
_cell_angle_beta   90.00000000
_cell_angle_gamma   90.00000000
_symmetry_Int_Tables_number   1
_chemical_formula_structural   Lu2Sb2O7
_chemical_formula_sum   'Lu8 Sb8 O28'
_cell_volume   602.51925390
_cell_formula_units_Z   4
loop_
 _symmetry_equiv_pos_site_id
 _symmetry_equiv_pos_as_xyz
  1  'x, y, z'
loop_
 _atom_site_type_symbol
 _atom_site_label
 _atom_site_symmetry_multiplicity
 _atom_site_fract_x
 _atom_site_fract_y
 _atom_site_fract_z
 _atom_site_occupancy
  Lu  Lu0  1  0.00000000  0.74044000  0.00000000  1
  Lu  Lu1  1  0.29215500  0.48705800  0.25000000  1
  Lu  Lu2  1  0.50000000  0.24044000  0.00000000  1
  Lu  Lu3  1  0.20784500  0.98705800  0.25000000  1
  Lu  Lu4  1  0.50000000  0.24044000  0.50000000  1
  Lu  Lu5  1  0.79215500  0.98705800  0.75000000  1
  Lu  Lu6  1  0.00000000  0.74044000  0.50000000  1
  Lu  Lu7  1  0.70784500  0.48705800  0.75000000  1
  Sb  Sb8  1  0.00000000  0.26252100  0.00000000  1
  Sb  Sb9  1  0.24138600  0.98584800  0.75000000  1
  Sb  Sb10  1  0.00000000  0.26252100  0.50000000  1
  Sb  Sb11  1  0.25861400  0.48584800  0.75000000  1
  Sb  Sb12  1  0.50000000  0.76252100  0.50000000  1
  Sb  Sb13  1  0.74138600  0.48584800  0.25000000  1
  Sb  Sb14  1  0.50000000  0.76252100  0.00000000  1
  Sb  Sb15  1  0.75861400  0.98584800  0.25000000  1
  O  O16  1  0.46121100  0.47821700  0.62678600  1
  O  O17  1  0.46121100  0.47821700  0.87321400  1
  O  O18  1  0.25484450  0.24445950  0.11831550  1
  O  O19  1  0.92796700  0.49105500  0.11334400  1
  O  O20  1  0.76262550  0.73405750  0.25000000  1
  O  O21  1  0.92796700  0.49105500  0.38665600  1
  O  O22  1  0.25484450  0.24445950  0.38168450  1
  O  O23  1  0.24515550  0.74445950  0.11831550  1
  O  O24  1  0.57203300  0.99105500  0.11334400  1
  O  O25  1  0.73737450  0.23405750  0.25000000  1
  O  O26  1  0.57203300  0.99105500  0.38665600  1
  O  O27  1  0.74515550  0.24445950  0.88168450  1
  O  O28  1  0.03878900  0.97821700  0.62678600  1
  O  O29  1  0.03878900  0.97821700  0.87321400  1
  O  O30  1  0.96121100  0.97821700  0.12678600  1
  O  O31  1  0.96121100  0.97821700  0.37321400  1
  O  O32  1  0.75484450  0.74445950  0.61831550  1
  O  O33  1  0.42796700  0.99105500  0.61334400  1
  O  O34  1  0.26262550  0.23405750  0.75000000  1
  O  O35  1  0.42796700  0.99105500  0.88665600  1
  O  O36  1  0.75484450  0.74445950  0.88168450  1
  O  O37  1  0.74515550  0.24445950  0.61831550  1
  O  O38  1  0.07203300  0.49105500  0.61334400  1
  O  O39  1  0.23737450  0.73405750  0.75000000  1
  O  O40  1  0.07203300  0.49105500  0.88665600  1
  O  O41  1  0.24515550  0.74445950  0.38168450  1
  O  O42  1  0.53878900  0.47821700  0.12678600  1
  O  O43  1  0.53878900  0.47821700  0.37321400  1
