# generated using pymatgen
data_V5O9
_symmetry_space_group_name_H-M   'P 1'
_cell_length_a   5.62930600
_cell_length_b   7.10963709
_cell_length_c   8.58128376
_cell_angle_alpha   69.79770779
_cell_angle_beta   74.46412173
_cell_angle_gamma   70.95880567
_symmetry_Int_Tables_number   1
_chemical_formula_structural   V5O9
_chemical_formula_sum   'V10 O18'
_cell_volume   299.98104405
_cell_formula_units_Z   2
loop_
 _symmetry_equiv_pos_site_id
 _symmetry_equiv_pos_as_xyz
  1  'x, y, z'
loop_
 _atom_site_type_symbol
 _atom_site_label
 _atom_site_symmetry_multiplicity
 _atom_site_fract_x
 _atom_site_fract_y
 _atom_site_fract_z
 _atom_site_occupancy
  V  V0  1  0.71969200  0.82477400  0.41765200  1
  V  V1  1  0.28241600  0.17566200  0.57489000  1
  V  V2  1  0.72498700  0.31654300  0.42804600  1
  V  V3  1  0.27374500  0.67993800  0.57709400  1
  V  V4  1  0.36018300  0.65219300  0.21437200  1
  V  V5  1  0.65346500  0.35101400  0.79100000  1
  V  V6  1  0.34077100  0.17147900  0.19877900  1
  V  V7  1  0.63807300  0.84075900  0.80228700  1
  V  V8  1  0.00276100  0.49602000  0.00388100  1
  V  V9  1  0.99231700  0.00209800  0.99559400  1
  O  O10  1  0.05480700  0.20384600  0.41566900  1
  O  O11  1  0.94091800  0.79260400  0.57861800  1
  O  O12  1  0.72051100  0.50729800  0.20472500  1
  O  O13  1  0.29784600  0.48379900  0.79776300  1
  O  O14  1  0.61756200  0.15978500  0.01570800  1
  O  O15  1  0.37381000  0.85007300  0.97121700  1
  O  O16  1  0.90732900  0.80524000  0.91572900  1
  O  O17  1  0.09427800  0.18254900  0.08339800  1
  O  O18  1  0.26415600  0.45893600  0.14386300  1
  O  O19  1  0.74564500  0.53889900  0.86164300  1
  O  O20  1  0.32093800  0.46660000  0.46339600  1
  O  O21  1  0.68466500  0.53508500  0.54015600  1
  O  O22  1  0.00389000  0.19880400  0.75889000  1
  O  O23  1  0.97125900  0.80952200  0.24582500  1
  O  O24  1  0.58063400  0.13280200  0.36529000  1
  O  O25  1  0.42542000  0.86222000  0.63140500  1
  O  O26  1  0.40876100  0.85325600  0.32808400  1
  O  O27  1  0.59916200  0.14820300  0.67502400  1
