# generated using pymatgen
data_V10O9
_symmetry_space_group_name_H-M   'P 1'
_cell_length_a   5.31739600
_cell_length_b   6.24378204
_cell_length_c   6.93728494
_cell_angle_alpha   103.21873044
_cell_angle_beta   97.23681892
_cell_angle_gamma   106.78971934
_symmetry_Int_Tables_number   1
_chemical_formula_structural   V10O9
_chemical_formula_sum   'V10 O9'
_cell_volume   210.05610789
_cell_formula_units_Z   1
loop_
 _symmetry_equiv_pos_site_id
 _symmetry_equiv_pos_as_xyz
  1  'x, y, z'
loop_
 _atom_site_type_symbol
 _atom_site_label
 _atom_site_symmetry_multiplicity
 _atom_site_fract_x
 _atom_site_fract_y
 _atom_site_fract_z
 _atom_site_occupancy
  V  V0  1  0.89349000  0.55120100  0.80158700  1
  V  V1  1  0.10651000  0.44879900  0.19841300  1
  V  V2  1  0.71003000  0.14041400  0.39616500  1
  V  V3  1  0.28997000  0.85958600  0.60383500  1
  V  V4  1  0.90392300  0.04744000  0.78838100  1
  V  V5  1  0.09607700  0.95256000  0.21161900  1
  V  V6  1  0.71607100  0.66314300  0.40794200  1
  V  V7  1  0.28392900  0.33685700  0.59205800  1
  V  V8  1  0.49777300  0.74946500  0.99772700  1
  V  V9  1  0.50222700  0.25053500  0.00227300  1
  O  O10  1  0.80028800  0.60090300  0.10332900  1
  O  O11  1  0.19971200  0.39909700  0.89667100  1
  O  O12  1  0.60295500  0.19756600  0.69270500  1
  O  O13  1  0.39704500  0.80243400  0.30729500  1
  O  O14  1  0.80560800  0.09796500  0.09237800  1
  O  O15  1  0.19439200  0.90203500  0.90762200  1
  O  O16  1  0.58865700  0.69698500  0.69593300  1
  O  O17  1  0.41134300  0.30301500  0.30406700  1
  O  O18  1  0.00000000  0.50000000  0.50000000  1
