# generated using pymatgen
data_FeOF
_symmetry_space_group_name_H-M   'P 1'
_cell_length_a   14.19786400
_cell_length_b   3.10016000
_cell_length_c   14.23495679
_cell_angle_alpha   90.00000000
_cell_angle_beta   90.20909548
_cell_angle_gamma   90.00000000
_symmetry_Int_Tables_number   1
_chemical_formula_structural   FeOF
_chemical_formula_sum   'Fe18 O18 F18'
_cell_volume   626.55670442
_cell_formula_units_Z   18
loop_
 _symmetry_equiv_pos_site_id
 _symmetry_equiv_pos_as_xyz
  1  'x, y, z'
loop_
 _atom_site_type_symbol
 _atom_site_label
 _atom_site_symmetry_multiplicity
 _atom_site_fract_x
 _atom_site_fract_y
 _atom_site_fract_z
 _atom_site_occupancy
  Fe  Fe0  1  0.01386100  0.00000000  0.99945600  1
  Fe  Fe1  1  0.00278800  0.00000000  0.33950700  1
  Fe  Fe2  1  0.00811100  0.00000000  0.65918200  1
  Fe  Fe3  1  0.14518500  0.50000000  0.17281900  1
  Fe  Fe4  1  0.15346500  0.50000000  0.49570400  1
  Fe  Fe5  1  0.17258200  0.50000000  0.85062200  1
  Fe  Fe6  1  0.33352200  0.00000000  0.00249900  1
  Fe  Fe7  1  0.34510900  0.00000000  0.33057500  1
  Fe  Fe8  1  0.34580100  0.00000000  0.66390700  1
  Fe  Fe9  1  0.48748100  0.50000000  0.49688400  1
  Fe  Fe10  1  0.48597300  0.50000000  0.16301800  1
  Fe  Fe11  1  0.50011100  0.50000000  0.81698500  1
  Fe  Fe12  1  0.68017300  0.00000000  0.99812800  1
  Fe  Fe13  1  0.68021600  0.00000000  0.33160700  1
  Fe  Fe14  1  0.66763100  0.00000000  0.67653800  1
  Fe  Fe15  1  0.82074300  0.50000000  0.16533400  1
  Fe  Fe16  1  0.83305500  0.50000000  0.48079000  1
  Fe  Fe17  1  0.81988400  0.50000000  0.83164700  1
  O  O18  1  0.06211000  0.50000000  0.27231500  1
  O  O19  1  0.06577400  0.50000000  0.60600000  1
  O  O20  1  0.06462600  0.50000000  0.93237700  1
  O  O21  1  0.10058800  0.00000000  0.10283800  1
  O  O22  1  0.10477000  0.00000000  0.43763500  1
  O  O23  1  0.23899500  0.00000000  0.90342500  1
  O  O24  1  0.39805200  0.50000000  0.26666500  1
  O  O25  1  0.39960100  0.50000000  0.60330200  1
  O  O26  1  0.43179800  0.00000000  0.09650600  1
  O  O27  1  0.43447100  0.00000000  0.43536400  1
  O  O28  1  0.43175300  0.00000000  0.77226800  1
  O  O29  1  0.60355200  0.50000000  0.73008100  1
  O  O30  1  0.73024200  0.50000000  0.26809000  1
  O  O31  1  0.72984100  0.50000000  0.93374800  1
  O  O32  1  0.76805300  0.00000000  0.10139900  1
  O  O33  1  0.76494200  0.00000000  0.43679000  1
  O  O34  1  0.77359600  0.00000000  0.76457200  1
  O  O35  1  0.93559000  0.50000000  0.39894100  1
  F  F36  1  0.10493600  0.00000000  0.77086200  1
  F  F37  1  0.23165100  0.00000000  0.23508400  1
  F  F38  1  0.23357600  0.00000000  0.56698700  1
  F  F39  1  0.26864500  0.50000000  0.06835700  1
  F  F40  1  0.26361300  0.50000000  0.73104900  1
  F  F41  1  0.26921300  0.50000000  0.39884700  1
  F  F42  1  0.40134800  0.50000000  0.93693100  1
  F  F43  1  0.56309400  0.00000000  0.22927100  1
  F  F44  1  0.56900300  0.00000000  0.56231900  1
  F  F45  1  0.56275900  0.00000000  0.90139300  1
  F  F46  1  0.59943800  0.50000000  0.06606600  1
  F  F47  1  0.59907600  0.50000000  0.39773200  1
  F  F48  1  0.73256100  0.50000000  0.60088900  1
  F  F49  1  0.89714600  0.00000000  0.22770300  1
  F  F50  1  0.89730400  0.00000000  0.57025700  1
  F  F51  1  0.89869800  0.00000000  0.89964900  1
  F  F52  1  0.93433800  0.50000000  0.06399500  1
  F  F53  1  0.93955600  0.50000000  0.73509300  1
