# generated using pymatgen
data_RbCr5S8
_symmetry_space_group_name_H-M   'P 1'
_cell_length_a   18.07728200
_cell_length_b   3.51056800
_cell_length_c   8.78669581
_cell_angle_alpha   90.00000000
_cell_angle_beta   105.49789335
_cell_angle_gamma   90.00000000
_symmetry_Int_Tables_number   1
_chemical_formula_structural   RbCr5S8
_chemical_formula_sum   'Rb2 Cr10 S16'
_cell_volume   537.34233594
_cell_formula_units_Z   2
loop_
 _symmetry_equiv_pos_site_id
 _symmetry_equiv_pos_as_xyz
  1  'x, y, z'
loop_
 _atom_site_type_symbol
 _atom_site_label
 _atom_site_symmetry_multiplicity
 _atom_site_fract_x
 _atom_site_fract_y
 _atom_site_fract_z
 _atom_site_occupancy
  Rb  Rb0  1  0.00000000  0.50000000  0.50000000  1
  Rb  Rb1  1  0.50000000  0.00000000  0.50000000  1
  Cr  Cr2  1  0.29553400  0.00000000  0.66601700  1
  Cr  Cr3  1  0.20446600  0.50000000  0.33398300  1
  Cr  Cr4  1  0.34112200  0.00000000  0.02557900  1
  Cr  Cr5  1  0.15887800  0.50000000  0.97442100  1
  Cr  Cr6  1  0.00000000  0.00000000  0.00000000  1
  Cr  Cr7  1  0.79553400  0.50000000  0.66601700  1
  Cr  Cr8  1  0.70446600  0.00000000  0.33398300  1
  Cr  Cr9  1  0.84112200  0.50000000  0.02557900  1
  Cr  Cr10  1  0.65887800  0.00000000  0.97442100  1
  Cr  Cr11  1  0.50000000  0.50000000  0.00000000  1
  S  S12  1  0.23837300  0.00000000  0.15598200  1
  S  S13  1  0.26162700  0.50000000  0.84401800  1
  S  S14  1  0.17245400  0.00000000  0.48459900  1
  S  S15  1  0.32754600  0.50000000  0.51540100  1
  S  S16  1  0.08573000  0.00000000  0.83170400  1
  S  S17  1  0.41427000  0.50000000  0.16829600  1
  S  S18  1  0.42276600  0.00000000  0.85314100  1
  S  S19  1  0.07723400  0.50000000  0.14685900  1
  S  S20  1  0.73837300  0.50000000  0.15598200  1
  S  S21  1  0.76162700  0.00000000  0.84401800  1
  S  S22  1  0.67245400  0.50000000  0.48459900  1
  S  S23  1  0.82754600  0.00000000  0.51540100  1
  S  S24  1  0.58573000  0.50000000  0.83170400  1
  S  S25  1  0.91427000  0.00000000  0.16829600  1
  S  S26  1  0.92276600  0.50000000  0.85314100  1
  S  S27  1  0.57723400  0.00000000  0.14685900  1
