# generated using pymatgen
data_KSrAs(H4O3)4
_symmetry_space_group_name_H-M   'P 1'
_cell_length_a   7.19101200
_cell_length_b   7.19101200
_cell_length_c   23.64965000
_cell_angle_alpha   90.00000000
_cell_angle_beta   90.00000000
_cell_angle_gamma   90.00000000
_symmetry_Int_Tables_number   1
_chemical_formula_structural   KSrAs(H4O3)4
_chemical_formula_sum   'K4 Sr4 As4 H64 O48'
_cell_volume   1222.93885854
_cell_formula_units_Z   4
loop_
 _symmetry_equiv_pos_site_id
 _symmetry_equiv_pos_as_xyz
  1  'x, y, z'
loop_
 _atom_site_type_symbol
 _atom_site_label
 _atom_site_symmetry_multiplicity
 _atom_site_fract_x
 _atom_site_fract_y
 _atom_site_fract_z
 _atom_site_occupancy
  K  K0  1  0.50000000  0.00000000  0.08978500  1
  K  K1  1  0.50000000  0.50000000  0.83978500  1
  K  K2  1  0.00000000  0.50000000  0.58978500  1
  K  K3  1  0.00000000  0.00000000  0.33978500  1
  Sr  Sr4  1  0.00000000  0.50000000  0.75052100  1
  Sr  Sr5  1  0.50000000  0.50000000  0.00052100  1
  Sr  Sr6  1  0.50000000  0.00000000  0.25052100  1
  Sr  Sr7  1  0.00000000  0.00000000  0.50052100  1
  As  As8  1  0.00000000  0.50000000  0.17244800  1
  As  As9  1  0.00000000  0.00000000  0.92244800  1
  As  As10  1  0.50000000  0.00000000  0.67244800  1
  As  As11  1  0.50000000  0.50000000  0.42244800  1
  H  H12  1  0.85750800  0.89066500  0.16593800  1
  H  H13  1  0.14249200  0.10933500  0.16593800  1
  H  H14  1  0.60933500  0.14249200  0.91593800  1
  H  H15  1  0.39066500  0.85750800  0.91593800  1
  H  H16  1  0.14249200  0.89066500  0.16593800  1
  H  H17  1  0.85750800  0.10933500  0.16593800  1
  H  H18  1  0.39066500  0.14249200  0.91593800  1
  H  H19  1  0.60933500  0.85750800  0.91593800  1
  H  H20  1  0.61012000  0.64583500  0.18452400  1
  H  H21  1  0.38988000  0.35416500  0.18452400  1
  H  H22  1  0.85416500  0.38988000  0.93452400  1
  H  H23  1  0.14583500  0.61012000  0.93452400  1
  H  H24  1  0.38988000  0.64583500  0.18452400  1
  H  H25  1  0.61012000  0.35416500  0.18452400  1
  H  H26  1  0.14583500  0.38988000  0.93452400  1
  H  H27  1  0.85416500  0.61012000  0.93452400  1
  H  H28  1  0.27610950  0.17226450  0.76548050  1
  H  H29  1  0.72389050  0.82773550  0.76548050  1
  H  H30  1  0.82773550  0.22389050  0.01548050  1
  H  H31  1  0.17226450  0.77610950  0.01548050  1
  H  H32  1  0.72389050  0.17226450  0.76548050  1
  H  H33  1  0.27610950  0.82773550  0.76548050  1
  H  H34  1  0.17226450  0.22389050  0.01548050  1
  H  H35  1  0.82773550  0.77610950  0.01548050  1
  H  H36  1  0.21556900  0.17611200  0.82889500  1
  H  H37  1  0.78443100  0.82388800  0.82889500  1
  H  H38  1  0.82388800  0.28443100  0.07889500  1
  H  H39  1  0.17611200  0.71556900  0.07889500  1
  H  H40  1  0.78443100  0.17611200  0.82889500  1
  H  H41  1  0.21556900  0.82388800  0.82889500  1
  H  H42  1  0.17611200  0.28443100  0.07889500  1
  H  H43  1  0.82388800  0.71556900  0.07889500  1
  H  H44  1  0.35750800  0.39066500  0.66593800  1
  H  H45  1  0.64249200  0.60933500  0.66593800  1
  H  H46  1  0.10933500  0.64249200  0.41593800  1
  H  H47  1  0.89066500  0.35750800  0.41593800  1
  H  H48  1  0.64249200  0.39066500  0.66593800  1
  H  H49  1  0.35750800  0.60933500  0.66593800  1
  H  H50  1  0.89066500  0.64249200  0.41593800  1
  H  H51  1  0.10933500  0.35750800  0.41593800  1
  H  H52  1  0.11012000  0.14583500  0.68452400  1
  H  H53  1  0.88988000  0.85416500  0.68452400  1
  H  H54  1  0.35416500  0.88988000  0.43452400  1
  H  H55  1  0.64583500  0.11012000  0.43452400  1
  H  H56  1  0.88988000  0.14583500  0.68452400  1
  H  H57  1  0.11012000  0.85416500  0.68452400  1
  H  H58  1  0.64583500  0.88988000  0.43452400  1
  H  H59  1  0.35416500  0.11012000  0.43452400  1
  H  H60  1  0.77610950  0.67226450  0.26548050  1
  H  H61  1  0.22389050  0.32773550  0.26548050  1
  H  H62  1  0.32773550  0.72389050  0.51548050  1
  H  H63  1  0.67226450  0.27610950  0.51548050  1
  H  H64  1  0.22389050  0.67226450  0.26548050  1
  H  H65  1  0.77610950  0.32773550  0.26548050  1
  H  H66  1  0.67226450  0.72389050  0.51548050  1
  H  H67  1  0.32773550  0.27610950  0.51548050  1
  H  H68  1  0.71556900  0.67611200  0.32889500  1
  H  H69  1  0.28443100  0.32388800  0.32889500  1
  H  H70  1  0.32388800  0.78443100  0.57889500  1
  H  H71  1  0.67611200  0.21556900  0.57889500  1
  H  H72  1  0.28443100  0.67611200  0.32889500  1
  H  H73  1  0.71556900  0.32388800  0.32889500  1
  H  H74  1  0.67611200  0.78443100  0.57889500  1
  H  H75  1  0.32388800  0.21556900  0.57889500  1
  O  O76  1  0.00000000  0.29853850  0.13265750  1
  O  O77  1  0.00000000  0.70146150  0.13265750  1
  O  O78  1  0.20146150  0.00000000  0.88265750  1
  O  O79  1  0.79853850  0.00000000  0.88265750  1
  O  O80  1  0.20188400  0.50000000  0.21256000  1
  O  O81  1  0.79811600  0.50000000  0.21256000  1
  O  O82  1  0.00000000  0.79811600  0.96256000  1
  O  O83  1  0.00000000  0.20188400  0.96256000  1
  O  O84  1  0.78575300  0.00000000  0.17867900  1
  O  O85  1  0.21424700  0.00000000  0.17867900  1
  O  O86  1  0.50000000  0.21424700  0.92867900  1
  O  O87  1  0.50000000  0.78575300  0.92867900  1
  O  O88  1  0.50000000  0.72307200  0.17553700  1
  O  O89  1  0.50000000  0.27692800  0.17553700  1
  O  O90  1  0.77692800  0.50000000  0.92553700  1
  O  O91  1  0.22307200  0.50000000  0.92553700  1
  O  O92  1  0.23999400  0.25956300  0.79618800  1
  O  O93  1  0.76000600  0.74043700  0.79618800  1
  O  O94  1  0.74043700  0.26000600  0.04618800  1
  O  O95  1  0.25956300  0.73999400  0.04618800  1
  O  O96  1  0.76000600  0.25956300  0.79618800  1
  O  O97  1  0.23999400  0.74043700  0.79618800  1
  O  O98  1  0.25956300  0.26000600  0.04618800  1
  O  O99  1  0.74043700  0.73999400  0.04618800  1
  O  O100  1  0.50000000  0.79853850  0.63265750  1
  O  O101  1  0.50000000  0.20146150  0.63265750  1
  O  O102  1  0.70146150  0.50000000  0.38265750  1
  O  O103  1  0.29853850  0.50000000  0.38265750  1
  O  O104  1  0.70188400  0.00000000  0.71256000  1
  O  O105  1  0.29811600  0.00000000  0.71256000  1
  O  O106  1  0.50000000  0.29811600  0.46256000  1
  O  O107  1  0.50000000  0.70188400  0.46256000  1
  O  O108  1  0.28575300  0.50000000  0.67867900  1
  O  O109  1  0.71424700  0.50000000  0.67867900  1
  O  O110  1  0.00000000  0.71424700  0.42867900  1
  O  O111  1  0.00000000  0.28575300  0.42867900  1
  O  O112  1  0.00000000  0.22307200  0.67553700  1
  O  O113  1  0.00000000  0.77692800  0.67553700  1
  O  O114  1  0.27692800  0.00000000  0.42553700  1
  O  O115  1  0.72307200  0.00000000  0.42553700  1
  O  O116  1  0.73999400  0.75956300  0.29618800  1
  O  O117  1  0.26000600  0.24043700  0.29618800  1
  O  O118  1  0.24043700  0.76000600  0.54618800  1
  O  O119  1  0.75956300  0.23999400  0.54618800  1
  O  O120  1  0.26000600  0.75956300  0.29618800  1
  O  O121  1  0.73999400  0.24043700  0.29618800  1
  O  O122  1  0.75956300  0.76000600  0.54618800  1
  O  O123  1  0.24043700  0.23999400  0.54618800  1
