# generated using pymatgen
data_Sn(PO3)4
_symmetry_space_group_name_H-M   'P 1'
_cell_length_a   11.92970200
_cell_length_b   8.38481000
_cell_length_c   10.26895445
_cell_angle_alpha   90.00000000
_cell_angle_beta   119.93432439
_cell_angle_gamma   90.00000000
_symmetry_Int_Tables_number   1
_chemical_formula_structural   Sn(PO3)4
_chemical_formula_sum   'Sn4 P16 O48'
_cell_volume   890.15720645
_cell_formula_units_Z   4
loop_
 _symmetry_equiv_pos_site_id
 _symmetry_equiv_pos_as_xyz
  1  'x, y, z'
loop_
 _atom_site_type_symbol
 _atom_site_label
 _atom_site_symmetry_multiplicity
 _atom_site_fract_x
 _atom_site_fract_y
 _atom_site_fract_z
 _atom_site_occupancy
  Sn  Sn0  1  0.00000000  0.94284200  0.25000000  1
  Sn  Sn1  1  0.50000000  0.55715800  0.75000000  1
  Sn  Sn2  1  0.50000000  0.44284200  0.25000000  1
  Sn  Sn3  1  0.00000000  0.05715800  0.75000000  1
  P  P4  1  0.79783800  0.51056400  0.30146600  1
  P  P5  1  0.98895900  0.73678100  0.52059400  1
  P  P6  1  0.51104100  0.23678100  0.97940600  1
  P  P7  1  0.29783800  0.98943600  0.80146600  1
  P  P8  1  0.20216200  0.51056400  0.19853400  1
  P  P9  1  0.98895900  0.26321900  0.02059400  1
  P  P10  1  0.51104100  0.76321900  0.47940600  1
  P  P11  1  0.70216200  0.98943600  0.69853400  1
  P  P12  1  0.29783800  0.01056400  0.30146600  1
  P  P13  1  0.48895900  0.23678100  0.52059400  1
  P  P14  1  0.01104100  0.73678100  0.97940600  1
  P  P15  1  0.79783800  0.48943600  0.80146600  1
  P  P16  1  0.70216200  0.01056400  0.19853400  1
  P  P17  1  0.48895900  0.76321900  0.02059400  1
  P  P18  1  0.01104100  0.26321900  0.47940600  1
  P  P19  1  0.20216200  0.48943600  0.69853400  1
  O  O20  1  0.72898050  0.91954050  0.84237200  1
  O  O21  1  0.53291350  0.72941050  0.90805600  1
  O  O22  1  0.08859150  0.62221850  0.64816400  1
  O  O23  1  0.03291350  0.77058950  0.40805600  1
  O  O24  1  0.85845150  0.63580850  0.44253300  1
  O  O25  1  0.19093150  0.92969250  0.31728700  1
  O  O26  1  0.35845150  0.86419150  0.94253300  1
  O  O27  1  0.27101950  0.91954050  0.65762800  1
  O  O28  1  0.96304050  0.87668350  0.59373900  1
  O  O29  1  0.41140850  0.12221850  0.85183600  1
  O  O30  1  0.30906850  0.42969250  0.18271300  1
  O  O31  1  0.03695950  0.87668350  0.90626100  1
  O  O32  1  0.46304050  0.62331650  0.09373900  1
  O  O33  1  0.19093150  0.07030750  0.81728700  1
  O  O34  1  0.08859150  0.37778150  0.14816400  1
  O  O35  1  0.53695950  0.62331650  0.40626100  1
  O  O36  1  0.22898050  0.58045950  0.34237200  1
  O  O37  1  0.14154850  0.63580850  0.05746700  1
  O  O38  1  0.30906850  0.57030750  0.68271300  1
  O  O39  1  0.64154850  0.86419150  0.55746700  1
  O  O40  1  0.46708650  0.72941050  0.59194400  1
  O  O41  1  0.41140850  0.87778150  0.35183600  1
  O  O42  1  0.96708650  0.77058950  0.09194400  1
  O  O43  1  0.77101950  0.58045950  0.15762800  1
  O  O44  1  0.22898050  0.41954050  0.84237200  1
  O  O45  1  0.03291350  0.22941050  0.90805600  1
  O  O46  1  0.58859150  0.12221850  0.64816400  1
  O  O47  1  0.53291350  0.27058950  0.40805600  1
  O  O48  1  0.35845150  0.13580850  0.44253300  1
  O  O49  1  0.69093150  0.42969250  0.31728700  1
  O  O50  1  0.85845150  0.36419150  0.94253300  1
  O  O51  1  0.77101950  0.41954050  0.65762800  1
  O  O52  1  0.46304050  0.37668350  0.59373900  1
  O  O53  1  0.91140850  0.62221850  0.85183600  1
  O  O54  1  0.80906850  0.92969250  0.18271300  1
  O  O55  1  0.53695950  0.37668350  0.90626100  1
  O  O56  1  0.96304050  0.12331650  0.09373900  1
  O  O57  1  0.69093150  0.57030750  0.81728700  1
  O  O58  1  0.58859150  0.87778150  0.14816400  1
  O  O59  1  0.03695950  0.12331650  0.40626100  1
  O  O60  1  0.72898050  0.08045950  0.34237200  1
  O  O61  1  0.64154850  0.13580850  0.05746700  1
  O  O62  1  0.80906850  0.07030750  0.68271300  1
  O  O63  1  0.14154850  0.36419150  0.55746700  1
  O  O64  1  0.96708650  0.22941050  0.59194400  1
  O  O65  1  0.91140850  0.37778150  0.35183600  1
  O  O66  1  0.46708650  0.27058950  0.09194400  1
  O  O67  1  0.27101950  0.08045950  0.15762800  1
