# generated using pymatgen
data_Li4FeCo3O8
_symmetry_space_group_name_H-M   'P 1'
_cell_length_a   5.78381359
_cell_length_b   5.78381359
_cell_length_c   14.46530636
_cell_angle_alpha   90.00000000
_cell_angle_beta   90.00000000
_cell_angle_gamma   120.00000000
_symmetry_Int_Tables_number   1
_chemical_formula_structural   Li4FeCo3O8
_chemical_formula_sum   'Li12 Fe3 Co9 O24'
_cell_volume   419.07026145
_cell_formula_units_Z   3
loop_
 _symmetry_equiv_pos_site_id
 _symmetry_equiv_pos_as_xyz
  1  'x, y, z'
loop_
 _atom_site_type_symbol
 _atom_site_label
 _atom_site_symmetry_multiplicity
 _atom_site_fract_x
 _atom_site_fract_y
 _atom_site_fract_z
 _atom_site_occupancy
  Li  Li0  1  0.83333333  0.16666667  0.16666667  1
  Li  Li1  1  0.33333333  0.16666667  0.16666667  1
  Li  Li2  1  0.33333333  0.66666667  0.16666667  1
  Li  Li3  1  0.83333333  0.66666667  0.16666667  1
  Li  Li4  1  0.50000000  0.50000000  0.50000000  1
  Li  Li5  1  0.00000000  0.50000000  0.50000000  1
  Li  Li6  1  1.00000000  1.00000000  0.50000000  1
  Li  Li7  1  0.50000000  0.00000000  0.50000000  1
  Li  Li8  1  0.16666667  0.83333333  0.83333333  1
  Li  Li9  1  0.66666667  0.83333333  0.83333333  1
  Li  Li10  1  0.66666667  0.33333333  0.83333333  1
  Li  Li11  1  0.16666667  0.33333333  0.83333333  1
  Fe  Fe12  1  0.00000000  0.00000000  0.00000000  1
  Fe  Fe13  1  0.66666667  0.33333333  0.33333333  1
  Fe  Fe14  1  0.33333333  0.66666667  0.66666667  1
  Co  Co15  1  0.50000000  0.00000000  0.00000000  1
  Co  Co16  1  0.50000000  0.50000000  0.00000000  1
  Co  Co17  1  0.00000000  0.50000000  0.00000000  1
  Co  Co18  1  0.16666667  0.33333333  0.33333333  1
  Co  Co19  1  0.16666667  0.83333333  0.33333333  1
  Co  Co20  1  0.66666667  0.83333333  0.33333333  1
  Co  Co21  1  0.83333333  0.66666667  0.66666667  1
  Co  Co22  1  0.83333333  0.16666667  0.66666667  1
  Co  Co23  1  0.33333333  0.16666667  0.66666667  1
  O  O24  1  0.99660333  0.49830167  0.25919667  1
  O  O25  1  0.66666667  0.33333333  0.07587133  1
  O  O26  1  0.50169833  0.49830167  0.25919667  1
  O  O27  1  0.50169833  0.00339667  0.25919667  1
  O  O28  1  0.16496833  0.32993667  0.07413667  1
  O  O29  1  0.16496833  0.83503167  0.07413667  1
  O  O30  1  0.00000000  0.00000000  0.25746200  1
  O  O31  1  0.67006333  0.83503167  0.07413667  1
  O  O32  1  0.66327000  0.83163500  0.59253000  1
  O  O33  1  0.33333333  0.66666667  0.40920467  1
  O  O34  1  0.16836500  0.83163500  0.59253000  1
  O  O35  1  0.16836500  0.33673000  0.59253000  1
  O  O36  1  0.83163500  0.66327000  0.40747000  1
  O  O37  1  0.83163500  0.16836500  0.40747000  1
  O  O38  1  0.66666667  0.33333333  0.59079533  1
  O  O39  1  0.33673000  0.16836500  0.40747000  1
  O  O40  1  0.32993667  0.16496833  0.92586333  1
  O  O41  1  0.00000000  0.00000000  0.74253800  1
  O  O42  1  0.83503167  0.16496833  0.92586333  1
  O  O43  1  0.83503167  0.67006333  0.92586333  1
  O  O44  1  0.49830167  0.99660333  0.74080333  1
  O  O45  1  0.49830167  0.50169833  0.74080333  1
  O  O46  1  0.33333333  0.66666667  0.92412867  1
  O  O47  1  0.00339667  0.50169833  0.74080333  1
