# generated using pymatgen
data_Li5CuF8
_symmetry_space_group_name_H-M   'P 1'
_cell_length_a   5.81671800
_cell_length_b   8.28875000
_cell_length_c   5.91046200
_cell_angle_alpha   90.00000000
_cell_angle_beta   90.00000000
_cell_angle_gamma   90.00000000
_symmetry_Int_Tables_number   1
_chemical_formula_structural   Li5CuF8
_chemical_formula_sum   'Li10 Cu2 F16'
_cell_volume   284.96300357
_cell_formula_units_Z   2
loop_
 _symmetry_equiv_pos_site_id
 _symmetry_equiv_pos_as_xyz
  1  'x, y, z'
loop_
 _atom_site_type_symbol
 _atom_site_label
 _atom_site_symmetry_multiplicity
 _atom_site_fract_x
 _atom_site_fract_y
 _atom_site_fract_z
 _atom_site_occupancy
  Li  Li0  1  0.25000000  0.25000000  0.22842300  1
  Li  Li1  1  0.25000000  0.25000000  0.77157700  1
  Li  Li2  1  0.50000000  0.00000000  0.00000000  1
  Li  Li3  1  0.25000000  0.75000000  0.22842300  1
  Li  Li4  1  0.25000000  0.75000000  0.77157700  1
  Li  Li5  1  0.75000000  0.75000000  0.22842300  1
  Li  Li6  1  0.75000000  0.75000000  0.77157700  1
  Li  Li7  1  0.00000000  0.50000000  0.00000000  1
  Li  Li8  1  0.75000000  0.25000000  0.22842300  1
  Li  Li9  1  0.75000000  0.25000000  0.77157700  1
  Cu  Cu10  1  0.50000000  0.00000000  0.50000000  1
  Cu  Cu11  1  0.00000000  0.50000000  0.50000000  1
  F  F12  1  0.50000000  0.23641500  0.00000000  1
  F  F13  1  0.50000000  0.23183000  0.50000000  1
  F  F14  1  0.27514000  0.00000000  0.26232300  1
  F  F15  1  0.27514000  0.00000000  0.73767700  1
  F  F16  1  0.72486000  0.00000000  0.26232300  1
  F  F17  1  0.72486000  0.00000000  0.73767700  1
  F  F18  1  0.50000000  0.76817000  0.50000000  1
  F  F19  1  0.50000000  0.76358500  0.00000000  1
  F  F20  1  0.00000000  0.73641500  0.00000000  1
  F  F21  1  0.00000000  0.73183000  0.50000000  1
  F  F22  1  0.77514000  0.50000000  0.26232300  1
  F  F23  1  0.77514000  0.50000000  0.73767700  1
  F  F24  1  0.22486000  0.50000000  0.26232300  1
  F  F25  1  0.22486000  0.50000000  0.73767700  1
  F  F26  1  0.00000000  0.26817000  0.50000000  1
  F  F27  1  0.00000000  0.26358500  0.00000000  1
