# generated using pymatgen
data_CaGd2O4
_symmetry_space_group_name_H-M   'P 1'
_cell_length_a   3.43029500
_cell_length_b   10.05990400
_cell_length_c   11.93909000
_cell_angle_alpha   90.00000000
_cell_angle_beta   90.00000000
_cell_angle_gamma   90.00000000
_symmetry_Int_Tables_number   1
_chemical_formula_structural   CaGd2O4
_chemical_formula_sum   'Ca4 Gd8 O16'
_cell_volume   411.99935172
_cell_formula_units_Z   4
loop_
 _symmetry_equiv_pos_site_id
 _symmetry_equiv_pos_as_xyz
  1  'x, y, z'
loop_
 _atom_site_type_symbol
 _atom_site_label
 _atom_site_symmetry_multiplicity
 _atom_site_fract_x
 _atom_site_fract_y
 _atom_site_fract_z
 _atom_site_occupancy
  Ca  Ca0  1  0.75000000  0.24983100  0.14840200  1
  Ca  Ca1  1  0.25000000  0.25016900  0.64840200  1
  Ca  Ca2  1  0.75000000  0.74983100  0.35159800  1
  Ca  Ca3  1  0.25000000  0.75016900  0.85159800  1
  Gd  Gd4  1  0.75000000  0.07923200  0.88790000  1
  Gd  Gd5  1  0.75000000  0.07913900  0.38618000  1
  Gd  Gd6  1  0.25000000  0.42086100  0.88618000  1
  Gd  Gd7  1  0.25000000  0.42076800  0.38790000  1
  Gd  Gd8  1  0.75000000  0.57923200  0.61210000  1
  Gd  Gd9  1  0.75000000  0.57913900  0.11382000  1
  Gd  Gd10  1  0.25000000  0.92086100  0.61382000  1
  Gd  Gd11  1  0.25000000  0.92076800  0.11210000  1
  O  O12  1  0.25000000  0.02284400  0.78116100  1
  O  O13  1  0.75000000  0.07931600  0.57977200  1
  O  O14  1  0.25000000  0.13355700  0.02372100  1
  O  O15  1  0.25000000  0.21073900  0.30836900  1
  O  O16  1  0.75000000  0.28926100  0.80836900  1
  O  O17  1  0.75000000  0.36644300  0.52372100  1
  O  O18  1  0.25000000  0.42068400  0.07977200  1
  O  O19  1  0.75000000  0.47715600  0.28116100  1
  O  O20  1  0.25000000  0.52284400  0.71883900  1
  O  O21  1  0.75000000  0.57931600  0.92022800  1
  O  O22  1  0.25000000  0.63355700  0.47627900  1
  O  O23  1  0.25000000  0.71073900  0.19163100  1
  O  O24  1  0.75000000  0.78926100  0.69163100  1
  O  O25  1  0.75000000  0.86644300  0.97627900  1
  O  O26  1  0.25000000  0.92068400  0.42022800  1
  O  O27  1  0.75000000  0.97715600  0.21883900  1
