# generated using pymatgen
data_Ti2N2O
_symmetry_space_group_name_H-M   'P 1'
_cell_length_a   8.21563915
_cell_length_b   8.21920061
_cell_length_c   8.22800980
_cell_angle_alpha   109.59115929
_cell_angle_beta   109.43630226
_cell_angle_gamma   109.31135146
_symmetry_Int_Tables_number   1
_chemical_formula_structural   Ti2N2O
_chemical_formula_sum   'Ti16 N16 O8'
_cell_volume   428.09723433
_cell_formula_units_Z   8
loop_
 _symmetry_equiv_pos_site_id
 _symmetry_equiv_pos_as_xyz
  1  'x, y, z'
loop_
 _atom_site_type_symbol
 _atom_site_label
 _atom_site_symmetry_multiplicity
 _atom_site_fract_x
 _atom_site_fract_y
 _atom_site_fract_z
 _atom_site_occupancy
  Ti  Ti0  1  0.74263809  0.20459789  0.04243278  1
  Ti  Ti1  1  0.99008223  0.98940794  0.00040458  1
  Ti  Ti2  1  0.98773246  0.49318227  0.49869615  1
  Ti  Ti3  1  0.50242188  0.49649202  0.98840049  1
  Ti  Ti4  1  0.29821225  0.04850975  0.24290899  1
  Ti  Ti5  1  0.20232372  0.45227964  0.75126163  1
  Ti  Ti6  1  0.03692312  0.73728289  0.71419931  1
  Ti  Ti7  1  0.55369057  0.76772431  0.20400602  1
  Ti  Ti8  1  0.74235889  0.70676492  0.54957317  1
  Ti  Ti9  1  0.24720907  0.29067245  0.46279831  1
  Ti  Ti10  1  0.45852730  0.25354843  0.78548140  1
  Ti  Ti11  1  0.96973982  0.25253780  0.29712072  1
  Ti  Ti12  1  0.50400015  0.99290877  0.51212054  1
  Ti  Ti13  1  0.79492274  0.54574381  0.24993508  1
  Ti  Ti14  1  0.71086816  0.96011021  0.74568273  1
  Ti  Ti15  1  0.24543941  0.78563796  0.95153238  1
  N  N16  1  0.48945623  0.95022915  0.27458076  1
  N  N17  1  0.22477152  0.26315187  0.22746898  1
  N  N18  1  0.76516180  0.77544121  0.27319798  1
  N  N19  1  0.95263610  0.46278072  0.77389347  1
  N  N20  1  0.23505113  0.22544531  0.72393761  1
  N  N21  1  0.73676672  0.96303083  0.48780044  1
  N  N22  1  0.54999838  0.27592356  0.99036041  1
  N  N23  1  0.05113675  0.54151821  0.22491887  1
  N  N24  1  0.99337058  0.76809930  0.95853167  1
  N  N25  1  0.77375468  0.73131744  0.77587086  1
  N  N26  1  0.96186225  0.22732575  0.55192459  1
  N  N27  1  0.45664036  0.51139669  0.76756980  1
  N  N28  1  0.27751191  0.72563392  0.73384367  1
  N  N29  1  0.77751428  0.01201104  0.95039079  1
  N  N30  1  0.72600194  0.45139257  0.54018489  1
  N  N31  1  0.50627386  0.04675963  0.72735877  1
  O  O32  1  0.27618559  0.54741129  0.45969130  1
  O  O33  1  0.22362886  0.99237873  0.05454464  1
  O  O34  1  0.72559254  0.27797574  0.26291979  1
  O  O35  1  0.53699466  0.49026100  0.23934455  1
  O  O36  1  0.04512500  0.77739076  0.44856545  1
  O  O37  1  0.00852167  0.23717400  0.03967626  1
  O  O38  1  0.26598045  0.04151084  0.50513920  1
  O  O39  1  0.45297486  0.72703937  0.01173098  1
