# generated using pymatgen
data_LiNbO3
_symmetry_space_group_name_H-M   'P 1'
_cell_length_a   5.67375600
_cell_length_b   8.89527200
_cell_length_c   10.04535152
_cell_angle_alpha   90.00000000
_cell_angle_beta   93.62879919
_cell_angle_gamma   90.00000000
_symmetry_Int_Tables_number   1
_chemical_formula_structural   LiNbO3
_chemical_formula_sum   'Li8 Nb8 O24'
_cell_volume   505.96841797
_cell_formula_units_Z   8
loop_
 _symmetry_equiv_pos_site_id
 _symmetry_equiv_pos_as_xyz
  1  'x, y, z'
loop_
 _atom_site_type_symbol
 _atom_site_label
 _atom_site_symmetry_multiplicity
 _atom_site_fract_x
 _atom_site_fract_y
 _atom_site_fract_z
 _atom_site_occupancy
  Li  Li0  1  0.50000000  0.12900200  0.25000000  1
  Li  Li1  1  0.50000000  0.24339100  0.75000000  1
  Li  Li2  1  0.50000000  0.75660900  0.25000000  1
  Li  Li3  1  0.50000000  0.87099800  0.75000000  1
  Li  Li4  1  0.00000000  0.62900200  0.25000000  1
  Li  Li5  1  0.00000000  0.74339100  0.75000000  1
  Li  Li6  1  0.00000000  0.25660900  0.25000000  1
  Li  Li7  1  0.00000000  0.37099800  0.75000000  1
  Nb  Nb8  1  0.24958450  0.07337650  0.51237000  1
  Nb  Nb9  1  0.75041550  0.07337650  0.98763000  1
  Nb  Nb10  1  0.75041550  0.92662350  0.48763000  1
  Nb  Nb11  1  0.24958450  0.92662350  0.01237000  1
  Nb  Nb12  1  0.74958450  0.57337650  0.51237000  1
  Nb  Nb13  1  0.25041550  0.57337650  0.98763000  1
  Nb  Nb14  1  0.25041550  0.42662350  0.48763000  1
  Nb  Nb15  1  0.74958450  0.42662350  0.01237000  1
  O  O16  1  0.91849000  0.07847600  0.39953300  1
  O  O17  1  0.08151000  0.07847600  0.10046700  1
  O  O18  1  0.43722350  0.04500850  0.88274500  1
  O  O19  1  0.56277650  0.04500850  0.61725500  1
  O  O20  1  0.69610600  0.74963300  0.62408300  1
  O  O21  1  0.30389400  0.25036700  0.37591700  1
  O  O22  1  0.69610600  0.25036700  0.12408300  1
  O  O23  1  0.30389400  0.74963300  0.87591700  1
  O  O24  1  0.91849000  0.92152400  0.89953300  1
  O  O25  1  0.08151000  0.92152400  0.60046700  1
  O  O26  1  0.43722350  0.95499150  0.38274500  1
  O  O27  1  0.56277650  0.95499150  0.11725500  1
  O  O28  1  0.41849000  0.57847600  0.39953300  1
  O  O29  1  0.58151000  0.57847600  0.10046700  1
  O  O30  1  0.93722350  0.54500850  0.88274500  1
  O  O31  1  0.06277650  0.54500850  0.61725500  1
  O  O32  1  0.19610600  0.24963300  0.62408300  1
  O  O33  1  0.80389400  0.75036700  0.37591700  1
  O  O34  1  0.19610600  0.75036700  0.12408300  1
  O  O35  1  0.80389400  0.24963300  0.87591700  1
  O  O36  1  0.41849000  0.42152400  0.89953300  1
  O  O37  1  0.58151000  0.42152400  0.60046700  1
  O  O38  1  0.93722350  0.45499150  0.38274500  1
  O  O39  1  0.06277650  0.45499150  0.11725500  1
