# generated using pymatgen
data_SnH12Pt(N2Cl3)2
_symmetry_space_group_name_H-M   'P 1'
_cell_length_a   11.21813600
_cell_length_b   12.07334800
_cell_length_c   10.60993100
_cell_angle_alpha   90.00000000
_cell_angle_beta   90.00000000
_cell_angle_gamma   90.00000000
_symmetry_Int_Tables_number   1
_chemical_formula_structural   SnH12Pt(N2Cl3)2
_chemical_formula_sum   'Sn4 H48 Pt4 N16 Cl24'
_cell_volume   1437.01393350
_cell_formula_units_Z   4
loop_
 _symmetry_equiv_pos_site_id
 _symmetry_equiv_pos_as_xyz
  1  'x, y, z'
loop_
 _atom_site_type_symbol
 _atom_site_label
 _atom_site_symmetry_multiplicity
 _atom_site_fract_x
 _atom_site_fract_y
 _atom_site_fract_z
 _atom_site_occupancy
  Sn  Sn0  1  0.00000000  0.00000000  0.50000000  1
  Sn  Sn1  1  0.50000000  0.00000000  0.00000000  1
  Sn  Sn2  1  0.50000000  0.50000000  0.50000000  1
  Sn  Sn3  1  0.00000000  0.50000000  0.00000000  1
  H  H4  1  0.43102400  0.14420100  0.33112100  1
  H  H5  1  0.56897600  0.14420100  0.66887900  1
  H  H6  1  0.56897600  0.64420100  0.83112100  1
  H  H7  1  0.43102400  0.64420100  0.16887900  1
  H  H8  1  0.56897600  0.85579900  0.66887900  1
  H  H9  1  0.43102400  0.85579900  0.33112100  1
  H  H10  1  0.43102400  0.35579900  0.16887900  1
  H  H11  1  0.56897600  0.35579900  0.83112100  1
  H  H12  1  0.39843650  0.19402750  0.47283900  1
  H  H13  1  0.60156350  0.19402750  0.52716100  1
  H  H14  1  0.60156350  0.69402750  0.97283900  1
  H  H15  1  0.39843650  0.69402750  0.02716100  1
  H  H16  1  0.60156350  0.80597250  0.52716100  1
  H  H17  1  0.39843650  0.80597250  0.47283900  1
  H  H18  1  0.39843650  0.30597250  0.02716100  1
  H  H19  1  0.60156350  0.30597250  0.97283900  1
  H  H20  1  0.30976550  0.10298550  0.40663100  1
  H  H21  1  0.69023450  0.10298550  0.59336900  1
  H  H22  1  0.19023450  0.10298550  0.90663100  1
  H  H23  1  0.80976550  0.10298550  0.09336900  1
  H  H24  1  0.69023450  0.89701450  0.59336900  1
  H  H25  1  0.30976550  0.89701450  0.40663100  1
  H  H26  1  0.80976550  0.89701450  0.09336900  1
  H  H27  1  0.19023450  0.89701450  0.90663100  1
  H  H28  1  0.93102400  0.64420100  0.33112100  1
  H  H29  1  0.06897600  0.64420100  0.66887900  1
  H  H30  1  0.06897600  0.14420100  0.83112100  1
  H  H31  1  0.93102400  0.14420100  0.16887900  1
  H  H32  1  0.06897600  0.35579900  0.66887900  1
  H  H33  1  0.93102400  0.35579900  0.33112100  1
  H  H34  1  0.93102400  0.85579900  0.16887900  1
  H  H35  1  0.06897600  0.85579900  0.83112100  1
  H  H36  1  0.89843650  0.69402750  0.47283900  1
  H  H37  1  0.10156350  0.69402750  0.52716100  1
  H  H38  1  0.10156350  0.19402750  0.97283900  1
  H  H39  1  0.89843650  0.19402750  0.02716100  1
  H  H40  1  0.10156350  0.30597250  0.52716100  1
  H  H41  1  0.89843650  0.30597250  0.47283900  1
  H  H42  1  0.89843650  0.80597250  0.02716100  1
  H  H43  1  0.10156350  0.80597250  0.97283900  1
  H  H44  1  0.80976550  0.60298550  0.40663100  1
  H  H45  1  0.19023450  0.60298550  0.59336900  1
  H  H46  1  0.69023450  0.60298550  0.90663100  1
  H  H47  1  0.30976550  0.60298550  0.09336900  1
  H  H48  1  0.19023450  0.39701450  0.59336900  1
  H  H49  1  0.80976550  0.39701450  0.40663100  1
  H  H50  1  0.30976550  0.39701450  0.09336900  1
  H  H51  1  0.69023450  0.39701450  0.90663100  1
  Pt  Pt52  1  0.50000000  0.00000000  0.50000000  1
  Pt  Pt53  1  0.00000000  0.00000000  0.00000000  1
  Pt  Pt54  1  0.00000000  0.50000000  0.50000000  1
  Pt  Pt55  1  0.50000000  0.50000000  0.00000000  1
  N  N56  1  0.39788250  0.12332650  0.41851500  1
  N  N57  1  0.60211750  0.12332650  0.58148500  1
  N  N58  1  0.60211750  0.62332650  0.91851500  1
  N  N59  1  0.39788250  0.62332650  0.08148500  1
  N  N60  1  0.60211750  0.87667350  0.58148500  1
  N  N61  1  0.39788250  0.87667350  0.41851500  1
  N  N62  1  0.39788250  0.37667350  0.08148500  1
  N  N63  1  0.60211750  0.37667350  0.91851500  1
  N  N64  1  0.89788250  0.62332650  0.41851500  1
  N  N65  1  0.10211750  0.62332650  0.58148500  1
  N  N66  1  0.10211750  0.12332650  0.91851500  1
  N  N67  1  0.89788250  0.12332650  0.08148500  1
  N  N68  1  0.10211750  0.37667350  0.58148500  1
  N  N69  1  0.89788250  0.37667350  0.41851500  1
  N  N70  1  0.89788250  0.87667350  0.08148500  1
  N  N71  1  0.10211750  0.87667350  0.91851500  1
  Cl  Cl72  1  0.41173800  0.35246300  0.63561100  1
  Cl  Cl73  1  0.58826200  0.35246300  0.36438900  1
  Cl  Cl74  1  0.58826200  0.85246300  0.13561100  1
  Cl  Cl75  1  0.41173800  0.85246300  0.86438900  1
  Cl  Cl76  1  0.58826200  0.64753700  0.36438900  1
  Cl  Cl77  1  0.41173800  0.64753700  0.63561100  1
  Cl  Cl78  1  0.41173800  0.14753700  0.86438900  1
  Cl  Cl79  1  0.58826200  0.14753700  0.13561100  1
  Cl  Cl80  1  0.81802800  0.00000000  0.37284400  1
  Cl  Cl81  1  0.18197200  0.00000000  0.62715600  1
  Cl  Cl82  1  0.68197200  0.00000000  0.87284400  1
  Cl  Cl83  1  0.31802800  0.00000000  0.12715600  1
  Cl  Cl84  1  0.91173800  0.85246300  0.63561100  1
  Cl  Cl85  1  0.08826200  0.85246300  0.36438900  1
  Cl  Cl86  1  0.08826200  0.35246300  0.13561100  1
  Cl  Cl87  1  0.91173800  0.35246300  0.86438900  1
  Cl  Cl88  1  0.08826200  0.14753700  0.36438900  1
  Cl  Cl89  1  0.91173800  0.14753700  0.63561100  1
  Cl  Cl90  1  0.91173800  0.64753700  0.86438900  1
  Cl  Cl91  1  0.08826200  0.64753700  0.13561100  1
  Cl  Cl92  1  0.31802800  0.50000000  0.37284400  1
  Cl  Cl93  1  0.68197200  0.50000000  0.62715600  1
  Cl  Cl94  1  0.18197200  0.50000000  0.87284400  1
  Cl  Cl95  1  0.81802800  0.50000000  0.12715600  1
