# generated using pymatgen
data_Mn2CoO6
_symmetry_space_group_name_H-M   'P 1'
_cell_length_a   12.72111400
_cell_length_b   2.89798000
_cell_length_c   5.85914708
_cell_angle_alpha   90.00000000
_cell_angle_beta   104.25637301
_cell_angle_gamma   90.00000000
_symmetry_Int_Tables_number   1
_chemical_formula_structural   Mn2CoO6
_chemical_formula_sum   'Mn4 Co2 O12'
_cell_volume   209.34852883
_cell_formula_units_Z   2
loop_
 _symmetry_equiv_pos_site_id
 _symmetry_equiv_pos_as_xyz
  1  'x, y, z'
loop_
 _atom_site_type_symbol
 _atom_site_label
 _atom_site_symmetry_multiplicity
 _atom_site_fract_x
 _atom_site_fract_y
 _atom_site_fract_z
 _atom_site_occupancy
  Mn  Mn0  1  0.16598900  0.50000000  0.83007600  1
  Mn  Mn1  1  0.33401100  0.00000000  0.16992400  1
  Mn  Mn2  1  0.66598900  0.00000000  0.83007600  1
  Mn  Mn3  1  0.83401100  0.50000000  0.16992400  1
  Co  Co4  1  0.00000000  0.00000000  0.50000000  1
  Co  Co5  1  0.50000000  0.50000000  0.50000000  1
  O  O6  1  0.15284300  0.00000000  0.60697800  1
  O  O7  1  0.49021400  0.00000000  0.28574700  1
  O  O8  1  0.32314900  0.50000000  0.94466000  1
  O  O9  1  0.00978600  0.50000000  0.71425300  1
  O  O10  1  0.34715700  0.50000000  0.39302200  1
  O  O11  1  0.17685100  0.00000000  0.05534000  1
  O  O12  1  0.65284300  0.50000000  0.60697800  1
  O  O13  1  0.99021400  0.50000000  0.28574700  1
  O  O14  1  0.82314900  0.00000000  0.94466000  1
  O  O15  1  0.50978600  0.00000000  0.71425300  1
  O  O16  1  0.84715700  0.00000000  0.39302200  1
  O  O17  1  0.67685100  0.50000000  0.05534000  1
