# generated using pymatgen
data_Zr2N2O
_symmetry_space_group_name_H-M   'P 1'
_cell_length_a   8.52896800
_cell_length_b   3.15712800
_cell_length_c   8.60600447
_cell_angle_alpha   90.00000000
_cell_angle_beta   90.29679944
_cell_angle_gamma   90.00000000
_symmetry_Int_Tables_number   1
_chemical_formula_structural   Zr2N2O
_chemical_formula_sum   'Zr8 N8 O4'
_cell_volume   231.73114904
_cell_formula_units_Z   4
loop_
 _symmetry_equiv_pos_site_id
 _symmetry_equiv_pos_as_xyz
  1  'x, y, z'
loop_
 _atom_site_type_symbol
 _atom_site_label
 _atom_site_symmetry_multiplicity
 _atom_site_fract_x
 _atom_site_fract_y
 _atom_site_fract_z
 _atom_site_occupancy
  Zr  Zr0  1  0.17371700  0.00000000  0.99947800  1
  Zr  Zr1  1  0.50198800  0.00000000  0.80953900  1
  Zr  Zr2  1  0.00378400  0.50000000  0.68278900  1
  Zr  Zr3  1  0.68159800  0.50000000  0.50330700  1
  Zr  Zr4  1  0.32195100  0.00000000  0.48732400  1
  Zr  Zr5  1  0.00304300  0.00000000  0.31868000  1
  Zr  Zr6  1  0.49498000  0.50000000  0.18717000  1
  Zr  Zr7  1  0.81667200  0.50000000  0.00548100  1
  N  N8  1  0.94271000  0.00000000  0.87576100  1
  N  N9  1  0.44699900  0.50000000  0.62365300  1
  N  N10  1  0.86921600  0.00000000  0.55004900  1
  N  N11  1  0.13145700  0.50000000  0.45796800  1
  N  N12  1  0.55972000  0.00000000  0.37434000  1
  N  N13  1  0.30593700  0.00000000  0.22888900  1
  N  N14  1  0.05555000  0.50000000  0.12284500  1
  N  N15  1  0.62768100  0.00000000  0.04104500  1
  O  O16  1  0.36648600  0.50000000  0.94987100  1
  O  O17  1  0.68638100  0.50000000  0.77444900  1
  O  O18  1  0.19976300  0.00000000  0.73593000  1
  O  O19  1  0.81036600  0.50000000  0.27143400  1
