# generated using pymatgen
data_H2S
_symmetry_space_group_name_H-M   'P 1'
_cell_length_a   13.65548100
_cell_length_b   13.65548100
_cell_length_c   4.28044900
_cell_angle_alpha   90.00000000
_cell_angle_beta   90.00000000
_cell_angle_gamma   90.00000000
_symmetry_Int_Tables_number   1
_chemical_formula_structural   H2S
_chemical_formula_sum   'H32 S16'
_cell_volume   798.18457654
_cell_formula_units_Z   16
loop_
 _symmetry_equiv_pos_site_id
 _symmetry_equiv_pos_as_xyz
  1  'x, y, z'
loop_
 _atom_site_type_symbol
 _atom_site_label
 _atom_site_symmetry_multiplicity
 _atom_site_fract_x
 _atom_site_fract_y
 _atom_site_fract_z
 _atom_site_occupancy
  H  H0  1  0.13149600  0.81037400  0.64783700  1
  H  H1  1  0.86850400  0.18962600  0.64783700  1
  H  H2  1  0.81037400  0.86850400  0.14783700  1
  H  H3  1  0.18962600  0.13149600  0.14783700  1
  H  H4  1  0.06038000  0.89384300  0.34723800  1
  H  H5  1  0.93962000  0.10615700  0.34723800  1
  H  H6  1  0.89384300  0.93962000  0.84723800  1
  H  H7  1  0.10615700  0.06038000  0.84723800  1
  H  H8  1  0.12874100  0.31074800  0.64684100  1
  H  H9  1  0.87125900  0.68925200  0.64684100  1
  H  H10  1  0.31074800  0.87125900  0.14684100  1
  H  H11  1  0.68925200  0.12874100  0.14684100  1
  H  H12  1  0.05718200  0.39497600  0.34994000  1
  H  H13  1  0.94281800  0.60502400  0.34994000  1
  H  H14  1  0.39497600  0.94281800  0.84994000  1
  H  H15  1  0.60502400  0.05718200  0.84994000  1
  H  H16  1  0.63164300  0.81287100  0.64138000  1
  H  H17  1  0.36835700  0.18712900  0.64138000  1
  H  H18  1  0.81287100  0.36835700  0.14138000  1
  H  H19  1  0.18712900  0.63164300  0.14138000  1
  H  H20  1  0.56039200  0.89506500  0.34323200  1
  H  H21  1  0.43960800  0.10493500  0.34323200  1
  H  H22  1  0.89506500  0.43960800  0.84323200  1
  H  H23  1  0.10493500  0.56039200  0.84323200  1
  H  H24  1  0.62898000  0.31274300  0.35893600  1
  H  H25  1  0.37102000  0.68725700  0.35893600  1
  H  H26  1  0.31274300  0.37102000  0.85893600  1
  H  H27  1  0.68725700  0.62898000  0.85893600  1
  H  H28  1  0.55762700  0.39583200  0.65410300  1
  H  H29  1  0.44237300  0.60416800  0.65410300  1
  H  H30  1  0.39583200  0.44237300  0.15410300  1
  H  H31  1  0.60416800  0.55762700  0.15410300  1
  S  S32  1  0.14642700  0.89792500  0.50628900  1
  S  S33  1  0.85357300  0.10207500  0.50628900  1
  S  S34  1  0.89792500  0.85357300  0.00628900  1
  S  S35  1  0.10207500  0.14642700  0.00628900  1
  S  S36  1  0.14443200  0.39781100  0.50301800  1
  S  S37  1  0.85556800  0.60218900  0.50301800  1
  S  S38  1  0.39781100  0.85556800  0.00301800  1
  S  S39  1  0.60218900  0.14443200  0.00301800  1
  S  S40  1  0.64523700  0.90181300  0.50869100  1
  S  S41  1  0.35476300  0.09818700  0.50869100  1
  S  S42  1  0.90181300  0.35476300  0.00869100  1
  S  S43  1  0.09818700  0.64523700  0.00869100  1
  S  S44  1  0.64332200  0.40151900  0.49249500  1
  S  S45  1  0.35667800  0.59848100  0.49249500  1
  S  S46  1  0.40151900  0.35667800  0.99249500  1
  S  S47  1  0.59848100  0.64332200  0.99249500  1
