# generated using pymatgen
data_Bi5O4F7
_symmetry_space_group_name_H-M   'P 1'
_cell_length_a   5.77797400
_cell_length_b   28.80794600
_cell_length_c   11.69791300
_cell_angle_alpha   90.00000000
_cell_angle_beta   90.00000000
_cell_angle_gamma   90.00000000
_symmetry_Int_Tables_number   1
_chemical_formula_structural   Bi5O4F7
_chemical_formula_sum   'Bi40 O32 F56'
_cell_volume   1947.13590247
_cell_formula_units_Z   8
loop_
 _symmetry_equiv_pos_site_id
 _symmetry_equiv_pos_as_xyz
  1  'x, y, z'
loop_
 _atom_site_type_symbol
 _atom_site_label
 _atom_site_symmetry_multiplicity
 _atom_site_fract_x
 _atom_site_fract_y
 _atom_site_fract_z
 _atom_site_occupancy
  Bi  Bi0  1  0.75097400  0.95086000  0.39318600  1
  Bi  Bi1  1  0.75784450  0.54969250  0.39545300  1
  Bi  Bi2  1  0.77683750  0.75020950  0.38633500  1
  Bi  Bi3  1  0.18000550  0.85091950  0.39740800  1
  Bi  Bi4  1  0.21350150  0.64765550  0.39287500  1
  Bi  Bi5  1  0.71350150  0.85234450  0.60712500  1
  Bi  Bi6  1  0.68000550  0.64908050  0.60259200  1
  Bi  Bi7  1  0.27683750  0.74979050  0.61366500  1
  Bi  Bi8  1  0.25097400  0.54914000  0.60681400  1
  Bi  Bi9  1  0.25784450  0.95030750  0.60454700  1
  Bi  Bi10  1  0.75097400  0.54914000  0.89318600  1
  Bi  Bi11  1  0.75784450  0.95030750  0.89545300  1
  Bi  Bi12  1  0.77683750  0.74979050  0.88633500  1
  Bi  Bi13  1  0.21350150  0.85234450  0.89287500  1
  Bi  Bi14  1  0.18000550  0.64908050  0.89740800  1
  Bi  Bi15  1  0.68000550  0.85091950  0.10259200  1
  Bi  Bi16  1  0.71350150  0.64765550  0.10712500  1
  Bi  Bi17  1  0.27683750  0.75020950  0.11366500  1
  Bi  Bi18  1  0.25784450  0.54969250  0.10454700  1
  Bi  Bi19  1  0.25097400  0.95086000  0.10681400  1
  Bi  Bi20  1  0.25097400  0.45086000  0.39318600  1
  Bi  Bi21  1  0.25784450  0.04969250  0.39545300  1
  Bi  Bi22  1  0.27683750  0.25020950  0.38633500  1
  Bi  Bi23  1  0.68000550  0.35091950  0.39740800  1
  Bi  Bi24  1  0.71350150  0.14765550  0.39287500  1
  Bi  Bi25  1  0.21350150  0.35234450  0.60712500  1
  Bi  Bi26  1  0.18000550  0.14908050  0.60259200  1
  Bi  Bi27  1  0.77683750  0.24979050  0.61366500  1
  Bi  Bi28  1  0.75097400  0.04914000  0.60681400  1
  Bi  Bi29  1  0.75784450  0.45030750  0.60454700  1
  Bi  Bi30  1  0.25097400  0.04914000  0.89318600  1
  Bi  Bi31  1  0.25784450  0.45030750  0.89545300  1
  Bi  Bi32  1  0.27683750  0.24979050  0.88633500  1
  Bi  Bi33  1  0.71350150  0.35234450  0.89287500  1
  Bi  Bi34  1  0.68000550  0.14908050  0.89740800  1
  Bi  Bi35  1  0.18000550  0.35091950  0.10259200  1
  Bi  Bi36  1  0.21350150  0.14765550  0.10712500  1
  Bi  Bi37  1  0.77683750  0.25020950  0.11366500  1
  Bi  Bi38  1  0.75784450  0.04969250  0.10454700  1
  Bi  Bi39  1  0.75097400  0.45086000  0.10681400  1
  O  O40  1  0.46776300  0.60048100  0.48981400  1
  O  O41  1  0.47241350  0.89757950  0.49442600  1
  O  O42  1  0.48881700  0.70212600  0.48783700  1
  O  O43  1  0.50361200  0.00000000  0.50000000  1
  O  O44  1  0.00097400  0.00000000  0.50000000  1
  O  O45  1  0.98881700  0.79787400  0.51216300  1
  O  O46  1  0.97241350  0.60242050  0.50557400  1
  O  O47  1  0.96776300  0.89951900  0.51018600  1
  O  O48  1  0.46776300  0.89951900  0.98981400  1
  O  O49  1  0.47241350  0.60242050  0.99442600  1
  O  O50  1  0.48881700  0.79787400  0.98783700  1
  O  O51  1  0.50097400  0.00000000  0.00000000  1
  O  O52  1  0.00361200  0.00000000  0.00000000  1
  O  O53  1  0.98881700  0.70212600  0.01216300  1
  O  O54  1  0.96776300  0.60048100  0.01018600  1
  O  O55  1  0.97241350  0.89757950  0.00557400  1
  O  O56  1  0.96776300  0.10048100  0.48981400  1
  O  O57  1  0.97241350  0.39757950  0.49442600  1
  O  O58  1  0.98881700  0.20212600  0.48783700  1
  O  O59  1  0.00361200  0.50000000  0.50000000  1
  O  O60  1  0.50097400  0.50000000  0.50000000  1
  O  O61  1  0.48881700  0.29787400  0.51216300  1
  O  O62  1  0.47241350  0.10242050  0.50557400  1
  O  O63  1  0.46776300  0.39951900  0.51018600  1
  O  O64  1  0.96776300  0.39951900  0.98981400  1
  O  O65  1  0.97241350  0.10242050  0.99442600  1
  O  O66  1  0.98881700  0.29787400  0.98783700  1
  O  O67  1  0.00097400  0.50000000  0.00000000  1
  O  O68  1  0.50361200  0.50000000  0.00000000  1
  O  O69  1  0.48881700  0.20212600  0.01216300  1
  O  O70  1  0.46776300  0.10048100  0.01018600  1
  O  O71  1  0.47241350  0.39757950  0.00557400  1
  F  F72  1  0.91480200  0.99985600  0.24806300  1
  F  F73  1  0.41480200  0.99985600  0.25193700  1
  F  F74  1  0.09699950  0.58669450  0.27849700  1
  F  F75  1  0.07728350  0.91420150  0.28467700  1
  F  F76  1  0.84330950  0.67203250  0.30977900  1
  F  F77  1  0.82626350  0.82864750  0.30631600  1
  F  F78  1  0.14564800  0.74950200  0.31059400  1
  F  F79  1  0.49077600  0.79915400  0.48172900  1
  F  F80  1  0.99077600  0.70084600  0.51827100  1
  F  F81  1  0.64564800  0.75049800  0.68940600  1
  F  F82  1  0.32626350  0.67135250  0.69368400  1
  F  F83  1  0.34330950  0.82796750  0.69022100  1
  F  F84  1  0.57728350  0.58579850  0.71532300  1
  F  F85  1  0.59699950  0.91330550  0.72150300  1
  F  F86  1  0.41480200  0.50014400  0.75193700  1
  F  F87  1  0.91480200  0.50014400  0.74806300  1
  F  F88  1  0.09699950  0.91330550  0.77849700  1
  F  F89  1  0.07728350  0.58579850  0.78467700  1
  F  F90  1  0.82626350  0.67135250  0.80631600  1
  F  F91  1  0.84330950  0.82796750  0.80977900  1
  F  F92  1  0.14564800  0.75049800  0.81059400  1
  F  F93  1  0.49077600  0.70084600  0.98172900  1
  F  F94  1  0.99077600  0.79915400  0.01827100  1
  F  F95  1  0.64564800  0.74950200  0.18940600  1
  F  F96  1  0.34330950  0.67203250  0.19022100  1
  F  F97  1  0.32626350  0.82864750  0.19368400  1
  F  F98  1  0.57728350  0.91420150  0.21532300  1
  F  F99  1  0.59699950  0.58669450  0.22150300  1
  F  F100  1  0.41480200  0.49985600  0.24806300  1
  F  F101  1  0.91480200  0.49985600  0.25193700  1
  F  F102  1  0.59699950  0.08669450  0.27849700  1
  F  F103  1  0.57728350  0.41420150  0.28467700  1
  F  F104  1  0.34330950  0.17203250  0.30977900  1
  F  F105  1  0.32626350  0.32864750  0.30631600  1
  F  F106  1  0.64564800  0.24950200  0.31059400  1
  F  F107  1  0.99077600  0.29915400  0.48172900  1
  F  F108  1  0.49077600  0.20084600  0.51827100  1
  F  F109  1  0.14564800  0.25049800  0.68940600  1
  F  F110  1  0.82626350  0.17135250  0.69368400  1
  F  F111  1  0.84330950  0.32796750  0.69022100  1
  F  F112  1  0.07728350  0.08579850  0.71532300  1
  F  F113  1  0.09699950  0.41330550  0.72150300  1
  F  F114  1  0.91480200  0.00014400  0.75193700  1
  F  F115  1  0.41480200  0.00014400  0.74806300  1
  F  F116  1  0.59699950  0.41330550  0.77849700  1
  F  F117  1  0.57728350  0.08579850  0.78467700  1
  F  F118  1  0.32626350  0.17135250  0.80631600  1
  F  F119  1  0.34330950  0.32796750  0.80977900  1
  F  F120  1  0.64564800  0.25049800  0.81059400  1
  F  F121  1  0.99077600  0.20084600  0.98172900  1
  F  F122  1  0.49077600  0.29915400  0.01827100  1
  F  F123  1  0.14564800  0.24950200  0.18940600  1
  F  F124  1  0.84330950  0.17203250  0.19022100  1
  F  F125  1  0.82626350  0.32864750  0.19368400  1
  F  F126  1  0.07728350  0.41420150  0.21532300  1
  F  F127  1  0.09699950  0.08669450  0.22150300  1
