# generated using pymatgen
data_Ba2LaI7
_symmetry_space_group_name_H-M   'P 1'
_cell_length_a   18.49187600
_cell_length_b   9.29315800
_cell_length_c   11.73407310
_cell_angle_alpha   90.00000000
_cell_angle_beta   123.14460520
_cell_angle_gamma   90.00000000
_symmetry_Int_Tables_number   1
_chemical_formula_structural   Ba2LaI7
_chemical_formula_sum   'Ba8 La4 I28'
_cell_volume   1688.38198004
_cell_formula_units_Z   4
loop_
 _symmetry_equiv_pos_site_id
 _symmetry_equiv_pos_as_xyz
  1  'x, y, z'
loop_
 _atom_site_type_symbol
 _atom_site_label
 _atom_site_symmetry_multiplicity
 _atom_site_fract_x
 _atom_site_fract_y
 _atom_site_fract_z
 _atom_site_occupancy
  Ba  Ba0  1  0.69875050  0.00581150  0.30665800  1
  Ba  Ba1  1  0.80124950  0.50581150  0.19334200  1
  Ba  Ba2  1  0.19875050  0.49418850  0.80665800  1
  Ba  Ba3  1  0.30124950  0.99418850  0.69334200  1
  Ba  Ba4  1  0.19875050  0.50581150  0.30665800  1
  Ba  Ba5  1  0.30124950  0.00581150  0.19334200  1
  Ba  Ba6  1  0.69875050  0.99418850  0.80665800  1
  Ba  Ba7  1  0.80124950  0.49418850  0.69334200  1
  La  La8  1  0.00000000  0.98661000  0.75000000  1
  La  La9  1  0.00000000  0.01339000  0.25000000  1
  La  La10  1  0.50000000  0.48661000  0.75000000  1
  La  La11  1  0.50000000  0.51339000  0.25000000  1
  I  I12  1  0.58795950  0.34345750  0.07895300  1
  I  I13  1  0.69672350  0.62247450  0.35248900  1
  I  I14  1  0.87041450  0.24740450  0.53813400  1
  I  I15  1  0.00000000  0.61919900  0.75000000  1
  I  I16  1  0.80327650  0.12247450  0.14751100  1
  I  I17  1  0.91204050  0.84345750  0.42104700  1
  I  I18  1  0.12958550  0.24740450  0.96186600  1
  I  I19  1  0.87041450  0.75259550  0.03813400  1
  I  I20  1  0.08795950  0.15654250  0.57895300  1
  I  I21  1  0.19672350  0.87752550  0.85248900  1
  I  I22  1  0.00000000  0.38080100  0.25000000  1
  I  I23  1  0.12958550  0.75259550  0.46186600  1
  I  I24  1  0.30327650  0.37752550  0.64751100  1
  I  I25  1  0.41204050  0.65654250  0.92104700  1
  I  I26  1  0.08795950  0.84345750  0.07895300  1
  I  I27  1  0.19672350  0.12247450  0.35248900  1
  I  I28  1  0.37041450  0.74740450  0.53813400  1
  I  I29  1  0.50000000  0.11919900  0.75000000  1
  I  I30  1  0.30327650  0.62247450  0.14751100  1
  I  I31  1  0.41204050  0.34345750  0.42104700  1
  I  I32  1  0.62958550  0.74740450  0.96186600  1
  I  I33  1  0.37041450  0.25259550  0.03813400  1
  I  I34  1  0.58795950  0.65654250  0.57895300  1
  I  I35  1  0.69672350  0.37752550  0.85248900  1
  I  I36  1  0.50000000  0.88080100  0.25000000  1
  I  I37  1  0.62958550  0.25259550  0.46186600  1
  I  I38  1  0.80327650  0.87752550  0.64751100  1
  I  I39  1  0.91204050  0.15654250  0.92104700  1
