# generated using pymatgen
data_NaBiCSO7
_symmetry_space_group_name_H-M   'P 1'
_cell_length_a   5.72711600
_cell_length_b   7.07063300
_cell_length_c   9.42468679
_cell_angle_alpha   90.00000000
_cell_angle_beta   90.52707925
_cell_angle_gamma   90.00000000
_symmetry_Int_Tables_number   1
_chemical_formula_structural   NaBiCSO7
_chemical_formula_sum   'Na2 Bi2 C2 S2 O14'
_cell_volume   381.63027903
_cell_formula_units_Z   2
loop_
 _symmetry_equiv_pos_site_id
 _symmetry_equiv_pos_as_xyz
  1  'x, y, z'
loop_
 _atom_site_type_symbol
 _atom_site_label
 _atom_site_symmetry_multiplicity
 _atom_site_fract_x
 _atom_site_fract_y
 _atom_site_fract_z
 _atom_site_occupancy
  Na  Na0  1  0.24665900  0.50813800  0.20615300  1
  Na  Na1  1  0.75334100  0.00813800  0.79384700  1
  Bi  Bi2  1  0.78014800  0.23619500  0.35088800  1
  Bi  Bi3  1  0.21985200  0.73619500  0.64911200  1
  C  C4  1  0.72161300  0.26562500  0.07083200  1
  C  C5  1  0.27838700  0.76562500  0.92916800  1
  S  S6  1  0.72199100  0.74045600  0.41455500  1
  S  S7  1  0.27800900  0.24045600  0.58544500  1
  O  O8  1  0.30581800  0.74886500  0.05773400  1
  O  O9  1  0.93297800  0.26349700  0.13614700  1
  O  O10  1  0.54397900  0.28212900  0.16314000  1
  O  O11  1  0.78996500  0.90469400  0.32487800  1
  O  O12  1  0.84215000  0.57188600  0.35170700  1
  O  O13  1  0.19677900  0.26887000  0.43480600  1
  O  O14  1  0.46554000  0.71179500  0.41500700  1
  O  O15  1  0.53446000  0.21179500  0.58499300  1
  O  O16  1  0.80322100  0.76887000  0.56519400  1
  O  O17  1  0.15785000  0.07188600  0.64829300  1
  O  O18  1  0.21003500  0.40469400  0.67512200  1
  O  O19  1  0.45602100  0.78212900  0.83686000  1
  O  O20  1  0.06702200  0.76349700  0.86385300  1
  O  O21  1  0.69418200  0.24886500  0.94226600  1
