# generated using pymatgen
data_NaMnPCO7
_symmetry_space_group_name_H-M   'P 1'
_cell_length_a   8.17771400
_cell_length_b   8.20352471
_cell_length_c   10.25111619
_cell_angle_alpha   108.94228643
_cell_angle_beta   106.65469348
_cell_angle_gamma   99.96267595
_symmetry_Int_Tables_number   1
_chemical_formula_structural   NaMnPCO7
_chemical_formula_sum   'Na4 Mn4 P4 C4 O28'
_cell_volume   595.71502330
_cell_formula_units_Z   4
loop_
 _symmetry_equiv_pos_site_id
 _symmetry_equiv_pos_as_xyz
  1  'x, y, z'
loop_
 _atom_site_type_symbol
 _atom_site_label
 _atom_site_symmetry_multiplicity
 _atom_site_fract_x
 _atom_site_fract_y
 _atom_site_fract_z
 _atom_site_occupancy
  Na  Na0  1  0.25741700  0.26121100  0.76707400  1
  Na  Na1  1  0.50724200  0.01023800  0.76734600  1
  Na  Na2  1  0.73279400  0.75462200  0.23897300  1
  Na  Na3  1  0.22399300  0.24821300  0.23690000  1
  Mn  Mn4  1  0.81206900  0.06258500  0.65721900  1
  Mn  Mn5  1  0.31193700  0.56232400  0.65712700  1
  Mn  Mn6  1  0.69683300  0.43495400  0.34726100  1
  Mn  Mn7  1  0.19153700  0.92783100  0.33691000  1
  P  P8  1  0.05175400  0.80086100  0.56964500  1
  P  P9  1  0.54398900  0.29283700  0.56381900  1
  P  P10  1  0.45537800  0.69987400  0.43249400  1
  P  P11  1  0.95517900  0.20028500  0.43271000  1
  C  C12  1  0.96492300  0.22964400  0.92296800  1
  C  C13  1  0.46982000  0.72286000  0.92313700  1
  C  C14  1  0.53235800  0.28062800  0.08316600  1
  C  C15  1  0.02684000  0.77339700  0.07091600  1
  O  O16  1  0.94074400  0.69657000  0.93788800  1
  O  O17  1  0.44258200  0.20215600  0.94794900  1
  O  O18  1  0.32769600  0.58080900  0.86013400  1
  O  O19  1  0.82211600  0.08829200  0.86051200  1
  O  O20  1  0.00555700  0.27110800  0.81878500  1
  O  O21  1  0.51258300  0.76340000  0.81943200  1
  O  O22  1  0.17176000  0.72831400  0.66919000  1
  O  O23  1  0.98144800  0.92663100  0.67535500  1
  O  O24  1  0.65084000  0.21001500  0.66328500  1
  O  O25  1  0.46318900  0.40560800  0.66925100  1
  O  O26  1  0.59904200  0.85112800  0.57345600  1
  O  O27  1  0.66524200  0.41438800  0.51993400  1
  O  O28  1  0.17361200  0.92260300  0.52327100  1
  O  O29  1  0.10340500  0.34696500  0.57343700  1
  O  O30  1  0.90108400  0.65459800  0.43037700  1
  O  O31  1  0.33864200  0.57286400  0.47723700  1
  O  O32  1  0.83609900  0.07540400  0.47745900  1
  O  O33  1  0.39522900  0.14823500  0.42248300  1
  O  O34  1  0.33870400  0.77074000  0.32976800  1
  O  O35  1  0.53889000  0.58679800  0.33049100  1
  O  O36  1  0.84302100  0.27876900  0.33393200  1
  O  O37  1  0.03090600  0.08172000  0.32674200  1
  O  O38  1  0.49175500  0.23627400  0.18534200  1
  O  O39  1  0.98680600  0.72941700  0.17509700  1
  O  O40  1  0.67742400  0.41707300  0.14313600  1
  O  O41  1  0.17292200  0.91310300  0.13503100  1
  O  O42  1  0.05094700  0.31002500  0.05645600  1
  O  O43  1  0.55159300  0.80672600  0.05690800  1
