# generated using pymatgen
data_Li9Mn3(WO4)7
_symmetry_space_group_name_H-M   'P 1'
_cell_length_a   12.14504137
_cell_length_b   12.14504137
_cell_length_c   14.89072784
_cell_angle_alpha   90.00000000
_cell_angle_beta   90.00000000
_cell_angle_gamma   120.00000000
_symmetry_Int_Tables_number   1
_chemical_formula_structural   Li9Mn3(WO4)7
_chemical_formula_sum   'Li27 Mn9 W21 O84'
_cell_volume   1902.14909290
_cell_formula_units_Z   3
loop_
 _symmetry_equiv_pos_site_id
 _symmetry_equiv_pos_as_xyz
  1  'x, y, z'
loop_
 _atom_site_type_symbol
 _atom_site_label
 _atom_site_symmetry_multiplicity
 _atom_site_fract_x
 _atom_site_fract_y
 _atom_site_fract_z
 _atom_site_occupancy
  Li  Li0  1  0.72401500  0.73187900  0.63575700  1
  Li  Li1  1  0.00786400  0.73187900  0.63575700  1
  Li  Li2  1  0.72401500  0.99213600  0.63575700  1
  Li  Li3  1  0.26812100  0.99213600  0.63575700  1
  Li  Li4  1  0.82604733  0.91302367  0.26709767  1
  Li  Li5  1  0.08697633  0.91302367  0.26709767  1
  Li  Li6  1  0.00786400  0.27598500  0.63575700  1
  Li  Li7  1  0.26812100  0.27598500  0.63575700  1
  Li  Li8  1  0.08697633  0.17395267  0.26709767  1
  Li  Li9  1  0.39068167  0.06521233  0.96909033  1
  Li  Li10  1  0.67453067  0.06521233  0.96909033  1
  Li  Li11  1  0.39068167  0.32546933  0.96909033  1
  Li  Li12  1  0.93478767  0.32546933  0.96909033  1
  Li  Li13  1  0.49271400  0.24635700  0.60043100  1
  Li  Li14  1  0.75364300  0.24635700  0.60043100  1
  Li  Li15  1  0.67453067  0.60931833  0.96909033  1
  Li  Li16  1  0.93478767  0.60931833  0.96909033  1
  Li  Li17  1  0.75364300  0.50728600  0.60043100  1
  Li  Li18  1  0.05734833  0.39854567  0.30242367  1
  Li  Li19  1  0.34119733  0.39854567  0.30242367  1
  Li  Li20  1  0.05734833  0.65880267  0.30242367  1
  Li  Li21  1  0.60145433  0.65880267  0.30242367  1
  Li  Li22  1  0.15938067  0.57969033  0.93376433  1
  Li  Li23  1  0.42030967  0.57969033  0.93376433  1
  Li  Li24  1  0.34119733  0.94265167  0.30242367  1
  Li  Li25  1  0.60145433  0.94265167  0.30242367  1
  Li  Li26  1  0.42030967  0.84061933  0.93376433  1
  Mn  Mn27  1  0.63612067  0.81806033  0.45851633  1
  Mn  Mn28  1  0.18193967  0.81806033  0.45851633  1
  Mn  Mn29  1  0.18193967  0.36387933  0.45851633  1
  Mn  Mn30  1  0.30278733  0.15139367  0.79184967  1
  Mn  Mn31  1  0.84860633  0.15139367  0.79184967  1
  Mn  Mn32  1  0.84860633  0.69721267  0.79184967  1
  Mn  Mn33  1  0.96945400  0.48472700  0.12518300  1
  Mn  Mn34  1  0.51527300  0.48472700  0.12518300  1
  Mn  Mn35  1  0.51527300  0.03054600  0.12518300  1
  W  W36  1  0.90579267  0.81158533  0.45272833  1
  W  W37  1  0.00000000  0.00000000  0.64196100  1
  W  W38  1  0.90579267  0.09420733  0.45272833  1
  W  W39  1  0.18841467  0.09420733  0.45272833  1
  W  W40  1  0.83557367  0.16442633  0.16771533  1
  W  W41  1  0.32885267  0.16442633  0.16771533  1
  W  W42  1  0.83557367  0.67114733  0.16771533  1
  W  W43  1  0.57245933  0.14491867  0.78606167  1
  W  W44  1  0.66666667  0.33333333  0.97529433  1
  W  W45  1  0.57245933  0.42754067  0.78606167  1
  W  W46  1  0.85508133  0.42754067  0.78606167  1
  W  W47  1  0.50224033  0.49775967  0.50104867  1
  W  W48  1  0.99551933  0.49775967  0.50104867  1
  W  W49  1  0.50224033  0.00448067  0.50104867  1
  W  W50  1  0.23912600  0.47825200  0.11939500  1
  W  W51  1  0.33333333  0.66666667  0.30862767  1
  W  W52  1  0.23912600  0.76087400  0.11939500  1
  W  W53  1  0.52174800  0.76087400  0.11939500  1
  W  W54  1  0.16890700  0.83109300  0.83438200  1
  W  W55  1  0.66218600  0.83109300  0.83438200  1
  W  W56  1  0.16890700  0.33781400  0.83438200  1
  O  O57  1  0.84418100  0.68836200  0.53817100  1
  O  O58  1  0.91786433  0.83572867  0.69416167  1
  O  O59  1  0.58487567  0.66158733  0.54276433  1
  O  O60  1  0.07671167  0.66158733  0.54276433  1
  O  O61  1  0.66652600  0.83326300  0.71314500  1
  O  O62  1  0.16673700  0.83326300  0.71314500  1
  O  O63  1  0.58487567  0.92328833  0.54276433  1
  O  O64  1  0.33841267  0.92328833  0.54276433  1
  O  O65  1  0.85159467  0.92579733  0.53402033  1
  O  O66  1  0.07420267  0.92579733  0.53402033  1
  O  O67  1  0.76431200  0.76709900  0.38244400  1
  O  O68  1  0.00278700  0.76709900  0.38244400  1
  O  O69  1  0.91786433  0.08213567  0.69416167  1
  O  O70  1  0.16427133  0.08213567  0.69416167  1
  O  O71  1  0.76431200  0.99721300  0.38244400  1
  O  O72  1  0.23290100  0.99721300  0.38244400  1
  O  O73  1  0.84418100  0.15581900  0.53817100  1
  O  O74  1  0.31163800  0.15581900  0.53817100  1
  O  O75  1  0.00000000  0.00000000  0.39245900  1
  O  O76  1  0.07420267  0.14840533  0.53402033  1
  O  O77  1  0.91618433  0.83236867  0.20770767  1
  O  O78  1  0.16673700  0.33347400  0.71314500  1
  O  O79  1  0.91618433  0.08381567  0.20770767  1
  O  O80  1  0.16763133  0.08381567  0.20770767  1
  O  O81  1  0.07671167  0.41512433  0.54276433  1
  O  O82  1  0.33841267  0.41512433  0.54276433  1
  O  O83  1  0.00278700  0.23568800  0.38244400  1
  O  O84  1  0.23290100  0.23568800  0.38244400  1
  O  O85  1  0.51084767  0.02169533  0.87150433  1
  O  O86  1  0.58453100  0.16906200  0.02749500  1
  O  O87  1  0.25154233  0.99492067  0.87609767  1
  O  O88  1  0.74337833  0.99492067  0.87609767  1
  O  O89  1  0.33319267  0.16659633  0.04647833  1
  O  O90  1  0.83340367  0.16659633  0.04647833  1
  O  O91  1  0.25154233  0.25662167  0.87609767  1
  O  O92  1  0.00507933  0.25662167  0.87609767  1
  O  O93  1  0.51826133  0.25913067  0.86735367  1
  O  O94  1  0.74086933  0.25913067  0.86735367  1
  O  O95  1  0.43097867  0.10043233  0.71577733  1
  O  O96  1  0.66945367  0.10043233  0.71577733  1
  O  O97  1  0.58453100  0.41546900  0.02749500  1
  O  O98  1  0.83093800  0.41546900  0.02749500  1
  O  O99  1  0.43097867  0.33054633  0.71577733  1
  O  O100  1  0.89956767  0.33054633  0.71577733  1
  O  O101  1  0.51084767  0.48915233  0.87150433  1
  O  O102  1  0.97830467  0.48915233  0.87150433  1
  O  O103  1  0.66666667  0.33333333  0.72579233  1
  O  O104  1  0.74086933  0.48173867  0.86735367  1
  O  O105  1  0.58285100  0.16570200  0.54104100  1
  O  O106  1  0.83340367  0.66680733  0.04647833  1
  O  O107  1  0.58285100  0.41714900  0.54104100  1
  O  O108  1  0.83429800  0.41714900  0.54104100  1
  O  O109  1  0.74337833  0.74845767  0.87609767  1
  O  O110  1  0.00507933  0.74845767  0.87609767  1
  O  O111  1  0.66945367  0.56902133  0.71577733  1
  O  O112  1  0.89956767  0.56902133  0.71577733  1
  O  O113  1  0.17751433  0.35502867  0.20483767  1
  O  O114  1  0.25119767  0.50239533  0.36082833  1
  O  O115  1  0.91820900  0.32825400  0.20943100  1
  O  O116  1  0.41004500  0.32825400  0.20943100  1
  O  O117  1  0.99985933  0.49992967  0.37981167  1
  O  O118  1  0.50007033  0.49992967  0.37981167  1
  O  O119  1  0.91820900  0.58995500  0.20943100  1
  O  O120  1  0.67174600  0.58995500  0.20943100  1
  O  O121  1  0.18492800  0.59246400  0.20068700  1
  O  O122  1  0.40753600  0.59246400  0.20068700  1
  O  O123  1  0.09764533  0.43376567  0.04911067  1
  O  O124  1  0.33612033  0.43376567  0.04911067  1
  O  O125  1  0.25119767  0.74880233  0.36082833  1
  O  O126  1  0.49760467  0.74880233  0.36082833  1
  O  O127  1  0.09764533  0.66387967  0.04911067  1
  O  O128  1  0.56623433  0.66387967  0.04911067  1
  O  O129  1  0.17751433  0.82248567  0.20483767  1
  O  O130  1  0.64497133  0.82248567  0.20483767  1
  O  O131  1  0.33333333  0.66666667  0.05912567  1
  O  O132  1  0.40753600  0.81507200  0.20068700  1
  O  O133  1  0.24951767  0.49903533  0.87437433  1
  O  O134  1  0.50007033  0.00014067  0.37981167  1
  O  O135  1  0.24951767  0.75048233  0.87437433  1
  O  O136  1  0.50096467  0.75048233  0.87437433  1
  O  O137  1  0.41004500  0.08179100  0.20943100  1
  O  O138  1  0.67174600  0.08179100  0.20943100  1
  O  O139  1  0.33612033  0.90235467  0.04911067  1
  O  O140  1  0.56623433  0.90235467  0.04911067  1
