# generated using pymatgen
data_Li2VF6
_symmetry_space_group_name_H-M   'P 1'
_cell_length_a   8.56498330
_cell_length_b   8.70751132
_cell_length_c   10.21038714
_cell_angle_alpha   86.23158639
_cell_angle_beta   85.60554808
_cell_angle_gamma   61.78229408
_symmetry_Int_Tables_number   1
_chemical_formula_structural   Li2VF6
_chemical_formula_sum   'Li12 V6 F36'
_cell_volume   668.64061849
_cell_formula_units_Z   6
loop_
 _symmetry_equiv_pos_site_id
 _symmetry_equiv_pos_as_xyz
  1  'x, y, z'
loop_
 _atom_site_type_symbol
 _atom_site_label
 _atom_site_symmetry_multiplicity
 _atom_site_fract_x
 _atom_site_fract_y
 _atom_site_fract_z
 _atom_site_occupancy
  Li  Li0  1  0.30178000  0.99112400  0.72452900  1
  Li  Li1  1  0.94710300  0.65393200  0.43347300  1
  Li  Li2  1  0.89182800  0.45024900  0.95715800  1
  Li  Li3  1  0.35877900  0.67018400  0.96787800  1
  Li  Li4  1  0.19750200  0.79920100  0.25590600  1
  Li  Li5  1  0.00684000  0.71554500  0.77619200  1
  Li  Li6  1  0.66504500  0.37786700  0.46721300  1
  Li  Li7  1  0.63514000  0.32336300  0.03105500  1
  Li  Li8  1  0.54337800  0.10444700  0.54617800  1
  Li  Li9  1  0.05674300  0.34338300  0.56634600  1
  Li  Li10  1  0.69955200  0.00541300  0.26850100  1
  Li  Li11  1  0.35523000  0.04969200  0.06494600  1
  V  V12  1  0.00083900  0.00129700  0.50202400  1
  V  V13  1  0.66467800  0.66293900  0.70942700  1
  V  V14  1  0.99057700  0.00674600  0.99375100  1
  V  V15  1  0.66169500  0.66613100  0.20729600  1
  V  V16  1  0.33830300  0.33528700  0.79476300  1
  V  V17  1  0.33458500  0.33943800  0.29103200  1
  F  F18  1  0.92841700  0.91831500  0.65238500  1
  F  F19  1  0.93367700  0.93317600  0.15748500  1
  F  F20  1  0.57154300  0.89094500  0.62847600  1
  F  F21  1  0.57897700  0.89104100  0.12141100  1
  F  F22  1  0.77423000  0.72938100  0.82685100  1
  F  F23  1  0.75095900  0.76302500  0.32880000  1
  F  F24  1  0.21467700  0.93837800  0.57676100  1
  F  F25  1  0.89086600  0.58258700  0.60531100  1
  F  F26  1  0.44388400  0.75556500  0.80919200  1
  F  F27  1  0.23063800  0.90938800  0.06569200  1
  F  F28  1  0.86997700  0.58569300  0.10832100  1
  F  F29  1  0.44142800  0.74510600  0.29024200  1
  F  F30  1  0.59313900  0.57765300  0.58308400  1
  F  F31  1  0.08432400  0.77929000  0.92589400  1
  F  F32  1  0.75260200  0.45265900  0.81102300  1
  F  F33  1  0.58370500  0.57156500  0.07158800  1
  F  F34  1  0.07668600  0.77736900  0.42642700  1
  F  F35  1  0.73886900  0.45998300  0.31083500  1
  F  F36  1  0.24171800  0.54882000  0.70201400  1
  F  F37  1  0.91034300  0.23684000  0.55195300  1
  F  F38  1  0.42272300  0.42438800  0.92252600  1
  F  F39  1  0.25636700  0.56054100  0.20602400  1
  F  F40  1  0.90709300  0.23881200  0.04969600  1
  F  F41  1  0.43494600  0.40191800  0.41848700  1
  F  F42  1  0.54368000  0.25578900  0.68908500  1
  F  F43  1  0.11159800  0.42118700  0.87914700  1
  F  F44  1  0.76307700  0.08536400  0.94460000  1
  F  F45  1  0.55899700  0.24382200  0.19146100  1
  F  F46  1  0.11707300  0.41991600  0.39707000  1
  F  F47  1  0.76118000  0.08160000  0.43930600  1
  F  F48  1  0.26163000  0.23092600  0.66433400  1
  F  F49  1  0.25013800  0.25668600  0.16999400  1
  F  F50  1  0.39565600  0.12761700  0.89254300  1
  F  F51  1  0.43175100  0.11811400  0.38389500  1
  F  F52  1  0.08549100  0.06753800  0.84524400  1
  F  F53  1  0.07607800  0.05285500  0.34281000  1
