# generated using pymatgen
data_Li2Zr2O5
_symmetry_space_group_name_H-M   'P 1'
_cell_length_a   9.11154400
_cell_length_b   6.62011800
_cell_length_c   7.60798662
_cell_angle_alpha   90.00000000
_cell_angle_beta   112.55998824
_cell_angle_gamma   90.00000000
_symmetry_Int_Tables_number   1
_chemical_formula_structural   Li2Zr2O5
_chemical_formula_sum   'Li8 Zr8 O20'
_cell_volume   423.79338162
_cell_formula_units_Z   4
loop_
 _symmetry_equiv_pos_site_id
 _symmetry_equiv_pos_as_xyz
  1  'x, y, z'
loop_
 _atom_site_type_symbol
 _atom_site_label
 _atom_site_symmetry_multiplicity
 _atom_site_fract_x
 _atom_site_fract_y
 _atom_site_fract_z
 _atom_site_occupancy
  Li  Li0  1  0.01684800  0.20170700  0.50071800  1
  Li  Li1  1  0.01684800  0.79829300  0.00071800  1
  Li  Li2  1  0.98315200  0.20170700  0.99928200  1
  Li  Li3  1  0.98315200  0.79829300  0.49928200  1
  Li  Li4  1  0.51684800  0.70170700  0.50071800  1
  Li  Li5  1  0.51684800  0.29829300  0.00071800  1
  Li  Li6  1  0.48315200  0.70170700  0.99928200  1
  Li  Li7  1  0.48315200  0.29829300  0.49928200  1
  Zr  Zr8  1  0.24905600  0.52794300  0.62087000  1
  Zr  Zr9  1  0.24905600  0.47205700  0.12087000  1
  Zr  Zr10  1  0.75094400  0.52794300  0.87913000  1
  Zr  Zr11  1  0.75094400  0.47205700  0.37913000  1
  Zr  Zr12  1  0.74905600  0.02794300  0.62087000  1
  Zr  Zr13  1  0.74905600  0.97205700  0.12087000  1
  Zr  Zr14  1  0.25094400  0.02794300  0.87913000  1
  Zr  Zr15  1  0.25094400  0.97205700  0.37913000  1
  O  O16  1  0.25000000  0.75000000  0.00000000  1
  O  O17  1  0.71541900  0.35469100  0.62834000  1
  O  O18  1  0.71541900  0.64530900  0.12834000  1
  O  O19  1  0.00000000  0.06194300  0.75000000  1
  O  O20  1  0.00000000  0.50000000  0.50000000  1
  O  O21  1  0.00000000  0.93805700  0.25000000  1
  O  O22  1  0.00000000  0.50000000  0.00000000  1
  O  O23  1  0.28458100  0.35469100  0.87166000  1
  O  O24  1  0.28458100  0.64530900  0.37166000  1
  O  O25  1  0.75000000  0.75000000  0.50000000  1
  O  O26  1  0.75000000  0.25000000  0.00000000  1
  O  O27  1  0.21541900  0.85469100  0.62834000  1
  O  O28  1  0.21541900  0.14530900  0.12834000  1
  O  O29  1  0.50000000  0.56194300  0.75000000  1
  O  O30  1  0.50000000  0.00000000  0.50000000  1
  O  O31  1  0.50000000  0.43805700  0.25000000  1
  O  O32  1  0.50000000  0.00000000  0.00000000  1
  O  O33  1  0.78458100  0.85469100  0.87166000  1
  O  O34  1  0.78458100  0.14530900  0.37166000  1
  O  O35  1  0.25000000  0.25000000  0.50000000  1
