# generated using pymatgen
data_LiMnPO4
_symmetry_space_group_name_H-M   'P 1'
_cell_length_a   8.70420742
_cell_length_b   5.15236516
_cell_length_c   8.65109831
_cell_angle_alpha   90.00000000
_cell_angle_beta   107.56015418
_cell_angle_gamma   90.00000000
_symmetry_Int_Tables_number   1
_chemical_formula_structural   LiMnPO4
_chemical_formula_sum   'Li4 Mn4 P4 O16'
_cell_volume   369.89851567
_cell_formula_units_Z   4
loop_
 _symmetry_equiv_pos_site_id
 _symmetry_equiv_pos_as_xyz
  1  'x, y, z'
loop_
 _atom_site_type_symbol
 _atom_site_label
 _atom_site_symmetry_multiplicity
 _atom_site_fract_x
 _atom_site_fract_y
 _atom_site_fract_z
 _atom_site_occupancy
  Li  Li0  1  0.74639750  0.81373350  0.49657550  1
  Li  Li1  1  0.74639750  0.18626650  0.99657550  1
  Li  Li2  1  0.24639750  0.31373350  0.49657550  1
  Li  Li3  1  0.24639750  0.68626650  0.99657550  1
  Mn  Mn4  1  0.50135050  0.69535250  0.75190550  1
  Mn  Mn5  1  0.00135050  0.80464750  0.25190550  1
  Mn  Mn6  1  0.00135050  0.19535250  0.75190550  1
  Mn  Mn7  1  0.50135050  0.30464750  0.25190550  1
  P  P8  1  0.87456400  0.69865800  0.87411250  1
  P  P9  1  0.37456400  0.80134200  0.37411250  1
  P  P10  1  0.37456400  0.19865800  0.87411250  1
  P  P11  1  0.87456400  0.30134200  0.37411250  1
  O  O12  1  0.84461950  0.40165850  0.84893500  1
  O  O13  1  0.84461950  0.59834150  0.34893500  1
  O  O14  1  0.72423150  0.82192350  0.90716300  1
  O  O15  1  0.72423150  0.17807650  0.40716300  1
  O  O16  1  0.90298650  0.81968250  0.72000450  1
  O  O17  1  0.40298650  0.68031750  0.22000450  1
  O  O18  1  0.52646575  0.74293325  0.52056250  1
  O  O19  1  0.02646575  0.75706675  0.02056250  1
  O  O20  1  0.34461950  0.90165850  0.84893500  1
  O  O21  1  0.34461950  0.09834150  0.34893500  1
  O  O22  1  0.22423150  0.32192350  0.90716300  1
  O  O23  1  0.22423150  0.67807650  0.40716300  1
  O  O24  1  0.40298650  0.31968250  0.72000450  1
  O  O25  1  0.90298650  0.18031750  0.22000450  1
  O  O26  1  0.02646575  0.24293325  0.52056250  1
  O  O27  1  0.52646575  0.25706675  0.02056250  1
