# generated using pymatgen
data_KLi2FeO3
_symmetry_space_group_name_H-M   'P 1'
_cell_length_a   8.80953456
_cell_length_b   6.56978722
_cell_length_c   6.15100213
_cell_angle_alpha   90.00000000
_cell_angle_beta   90.11020545
_cell_angle_gamma   90.00000000
_symmetry_Int_Tables_number   1
_chemical_formula_structural   KLi2FeO3
_chemical_formula_sum   'K4 Li8 Fe4 O12'
_cell_volume   355.99946194
_cell_formula_units_Z   4
loop_
 _symmetry_equiv_pos_site_id
 _symmetry_equiv_pos_as_xyz
  1  'x, y, z'
loop_
 _atom_site_type_symbol
 _atom_site_label
 _atom_site_symmetry_multiplicity
 _atom_site_fract_x
 _atom_site_fract_y
 _atom_site_fract_z
 _atom_site_occupancy
  K  K0  1  0.00462500  0.32334000  0.74632600  1
  K  K1  1  0.00462500  0.67666000  0.24632600  1
  K  K2  1  0.50462500  0.82334000  0.74632600  1
  K  K3  1  0.50462500  0.17666000  0.24632600  1
  Li  Li4  1  0.27744600  0.50419500  0.49751000  1
  Li  Li5  1  0.27744600  0.49580500  0.99751000  1
  Li  Li6  1  0.73636200  0.50294400  0.50136700  1
  Li  Li7  1  0.73636200  0.49705600  0.00136700  1
  Li  Li8  1  0.77744600  0.00419500  0.49751000  1
  Li  Li9  1  0.77744600  0.99580500  0.99751000  1
  Li  Li10  1  0.23636200  0.00294400  0.50136700  1
  Li  Li11  1  0.23636200  0.99705600  0.00136700  1
  Fe  Fe12  1  0.00707800  0.81578100  0.74972000  1
  Fe  Fe13  1  0.00707800  0.18421900  0.24972000  1
  Fe  Fe14  1  0.50707800  0.31578100  0.74972000  1
  Fe  Fe15  1  0.50707800  0.68421900  0.24972000  1
  O  O16  1  0.50740500  0.50112300  0.99897900  1
  O  O17  1  0.50740500  0.49887700  0.49897900  1
  O  O18  1  0.83094350  0.34234550  0.25458300  1
  O  O19  1  0.18601950  0.34014650  0.25054700  1
  O  O20  1  0.18601950  0.65985350  0.75054700  1
  O  O21  1  0.83094350  0.65765450  0.75458300  1
  O  O22  1  0.00740500  0.00112300  0.99897900  1
  O  O23  1  0.00740500  0.99887700  0.49897900  1
  O  O24  1  0.33094350  0.84234550  0.25458300  1
  O  O25  1  0.68601950  0.84014650  0.25054700  1
  O  O26  1  0.68601950  0.15985350  0.75054700  1
  O  O27  1  0.33094350  0.15765450  0.75458300  1
