# generated using pymatgen
data_Li7Cr3Fe(PO4)6
_symmetry_space_group_name_H-M   'P 1'
_cell_length_a   8.85529595
_cell_length_b   8.85529595
_cell_length_c   21.18835345
_cell_angle_alpha   90.00000000
_cell_angle_beta   90.00000000
_cell_angle_gamma   120.00000000
_symmetry_Int_Tables_number   1
_chemical_formula_structural   Li7Cr3Fe(PO4)6
_chemical_formula_sum   'Li21 Cr9 Fe3 P18 O72'
_cell_volume   1438.91122465
_cell_formula_units_Z   3
loop_
 _symmetry_equiv_pos_site_id
 _symmetry_equiv_pos_as_xyz
  1  'x, y, z'
loop_
 _atom_site_type_symbol
 _atom_site_label
 _atom_site_symmetry_multiplicity
 _atom_site_fract_x
 _atom_site_fract_y
 _atom_site_fract_z
 _atom_site_occupancy
  Li  Li0  1  0.10136700  0.71874500  0.11101700  1
  Li  Li1  1  0.28125500  0.38262200  0.11101700  1
  Li  Li2  1  0.00669300  0.41778100  0.23134300  1
  Li  Li3  1  0.33333333  0.66666667  0.64830267  1
  Li  Li4  1  0.61737800  0.89863300  0.11101700  1
  Li  Li5  1  0.41108800  0.99330700  0.23134300  1
  Li  Li6  1  0.58221900  0.58891200  0.23134300  1
  Li  Li7  1  0.76803367  0.05207833  0.44435033  1
  Li  Li8  1  0.94792167  0.71595533  0.44435033  1
  Li  Li9  1  0.67335967  0.75111433  0.56467633  1
  Li  Li10  1  0.00000000  0.00000000  0.98163600  1
  Li  Li11  1  0.28404467  0.23196633  0.44435033  1
  Li  Li12  1  0.07775467  0.32664033  0.56467633  1
  Li  Li13  1  0.24888567  0.92224533  0.56467633  1
  Li  Li14  1  0.43470033  0.38541167  0.77768367  1
  Li  Li15  1  0.61458833  0.04928867  0.77768367  1
  Li  Li16  1  0.34002633  0.08444767  0.89800967  1
  Li  Li17  1  0.66666667  0.33333333  0.31496933  1
  Li  Li18  1  0.95071133  0.56529967  0.77768367  1
  Li  Li19  1  0.74442133  0.65997367  0.89800967  1
  Li  Li20  1  0.91555233  0.25557867  0.89800967  1
  Cr  Cr21  1  0.33333333  0.66666667  0.80871067  1
  Cr  Cr22  1  0.33333333  0.66666667  0.31121267  1
  Cr  Cr23  1  0.33333333  0.66666667  0.02129167  1
  Cr  Cr24  1  0.00000000  0.00000000  0.14204400  1
  Cr  Cr25  1  0.00000000  0.00000000  0.64454600  1
  Cr  Cr26  1  0.00000000  0.00000000  0.35462500  1
  Cr  Cr27  1  0.66666667  0.33333333  0.47537733  1
  Cr  Cr28  1  0.66666667  0.33333333  0.97787933  1
  Cr  Cr29  1  0.66666667  0.33333333  0.68795833  1
  Fe  Fe30  1  0.33333333  0.66666667  0.51510767  1
  Fe  Fe31  1  0.00000000  0.00000000  0.84844100  1
  Fe  Fe32  1  0.66666667  0.33333333  0.18177433  1
  P  P33  1  0.96348900  0.33415000  0.08253200  1
  P  P34  1  0.37066100  0.03651100  0.08253200  1
  P  P35  1  0.66585000  0.62933900  0.08253200  1
  P  P36  1  0.00064667  0.70914033  0.25082933  1
  P  P37  1  0.29085967  0.29150633  0.25082933  1
  P  P38  1  0.70849367  0.99935333  0.25082933  1
  P  P39  1  0.63015567  0.66748333  0.41586533  1
  P  P40  1  0.03732767  0.36984433  0.41586533  1
  P  P41  1  0.33251667  0.96267233  0.41586533  1
  P  P42  1  0.66731333  0.04247367  0.58416267  1
  P  P43  1  0.95752633  0.62483967  0.58416267  1
  P  P44  1  0.37516033  0.33268667  0.58416267  1
  P  P45  1  0.29682233  0.00081667  0.74919867  1
  P  P46  1  0.70399433  0.70317767  0.74919867  1
  P  P47  1  0.99918333  0.29600567  0.74919867  1
  P  P48  1  0.33398000  0.37580700  0.91749600  1
  P  P49  1  0.62419300  0.95817300  0.91749600  1
  P  P50  1  0.04182700  0.66602000  0.91749600  1
  O  O51  1  0.13126933  0.48279667  0.35867967  1
  O  O52  1  0.35152733  0.86873067  0.35867967  1
  O  O53  1  0.51720333  0.64847267  0.35867967  1
  O  O54  1  0.99638933  0.17676067  0.08218767  1
  O  O55  1  0.14813033  0.50277167  0.08152967  1
  O  O56  1  0.88918400  0.35508500  0.14548800  1
  O  O57  1  0.18037133  0.00361067  0.08218767  1
  O  O58  1  0.35464133  0.85186967  0.08152967  1
  O  O59  1  0.49722833  0.64535867  0.08152967  1
  O  O60  1  0.02204367  0.80879333  0.18738633  1
  O  O61  1  0.83625600  0.52532200  0.25096800  1
  O  O62  1  0.19120667  0.21325033  0.18738633  1
  O  O63  1  0.46590100  0.11081600  0.14548800  1
  O  O64  1  0.82323933  0.81962867  0.08218767  1
  O  O65  1  0.64491500  0.53409900  0.14548800  1
  O  O66  1  0.16236200  0.68176800  0.25066100  1
  O  O67  1  0.31823200  0.48059400  0.25066100  1
  O  O68  1  0.47467800  0.31093400  0.25096800  1
  O  O69  1  0.78674967  0.97795633  0.18738633  1
  O  O70  1  0.51940600  0.83763800  0.25066100  1
  O  O71  1  0.68906600  0.16374400  0.25096800  1
  O  O72  1  0.14781200  0.67458400  0.97491900  1
  O  O73  1  0.32541600  0.47322800  0.97491900  1
  O  O74  1  0.52677200  0.85218800  0.97491900  1
  O  O75  1  0.79793600  0.81613000  0.69201300  1
  O  O76  1  0.01819400  0.20206400  0.69201300  1
  O  O77  1  0.18387000  0.98180600  0.69201300  1
  O  O78  1  0.66305600  0.51009400  0.41552100  1
  O  O79  1  0.81479700  0.83610500  0.41486300  1
  O  O80  1  0.55585067  0.68841833  0.47882133  1
  O  O81  1  0.84703800  0.33694400  0.41552100  1
  O  O82  1  0.02130800  0.18520300  0.41486300  1
  O  O83  1  0.16389500  0.97869200  0.41486300  1
  O  O84  1  0.68871033  0.14212667  0.52071967  1
  O  O85  1  0.50292267  0.85865533  0.58430133  1
  O  O86  1  0.85787333  0.54658367  0.52071967  1
  O  O87  1  0.13256767  0.44414933  0.47882133  1
  O  O88  1  0.48990600  0.15296200  0.41552100  1
  O  O89  1  0.31158167  0.86743233  0.47882133  1
  O  O90  1  0.82902867  0.01510133  0.58399433  1
  O  O91  1  0.98489867  0.81392733  0.58399433  1
  O  O92  1  0.14134467  0.64426733  0.58430133  1
  O  O93  1  0.45341633  0.31128967  0.52071967  1
  O  O94  1  0.18607267  0.17097133  0.58399433  1
  O  O95  1  0.35573267  0.49707733  0.58430133  1
  O  O96  1  0.81447867  0.00791733  0.30825233  1
  O  O97  1  0.99208267  0.80656133  0.30825233  1
  O  O98  1  0.19343867  0.18552133  0.30825233  1
  O  O99  1  0.46460267  0.14946333  0.02534633  1
  O  O100  1  0.68486067  0.53539733  0.02534633  1
  O  O101  1  0.85053667  0.31513933  0.02534633  1
  O  O102  1  0.32972267  0.84342733  0.74885433  1
  O  O103  1  0.48146367  0.16943833  0.74819633  1
  O  O104  1  0.22251733  0.02175167  0.81215467  1
  O  O105  1  0.51370467  0.67027733  0.74885433  1
  O  O106  1  0.68797467  0.51853633  0.74819633  1
  O  O107  1  0.83056167  0.31202533  0.74819633  1
  O  O108  1  0.35537700  0.47546000  0.85405300  1
  O  O109  1  0.16958933  0.19198867  0.91763467  1
  O  O110  1  0.52454000  0.87991700  0.85405300  1
  O  O111  1  0.79923433  0.77748267  0.81215467  1
  O  O112  1  0.15657267  0.48629533  0.74885433  1
  O  O113  1  0.97824833  0.20076567  0.81215467  1
  O  O114  1  0.49569533  0.34843467  0.91732767  1
  O  O115  1  0.65156533  0.14726067  0.91732767  1
  O  O116  1  0.80801133  0.97760067  0.91763467  1
  O  O117  1  0.12008300  0.64462300  0.85405300  1
  O  O118  1  0.85273933  0.50430467  0.91732767  1
  O  O119  1  0.02239933  0.83041067  0.91763467  1
  O  O120  1  0.48114533  0.34125067  0.64158567  1
  O  O121  1  0.65874933  0.13989467  0.64158567  1
  O  O122  1  0.86010533  0.51885467  0.64158567  1
