# generated using pymatgen
data_Fe15O16
_symmetry_space_group_name_H-M   'P 1'
_cell_length_a   6.24710300
_cell_length_b   6.26532232
_cell_length_c   8.76823809
_cell_angle_alpha   90.37687825
_cell_angle_beta   90.44855667
_cell_angle_gamma   90.08758079
_symmetry_Int_Tables_number   1
_chemical_formula_structural   Fe15O16
_chemical_formula_sum   'Fe15 O16'
_cell_volume   343.17146743
_cell_formula_units_Z   1
loop_
 _symmetry_equiv_pos_site_id
 _symmetry_equiv_pos_as_xyz
  1  'x, y, z'
loop_
 _atom_site_type_symbol
 _atom_site_label
 _atom_site_symmetry_multiplicity
 _atom_site_fract_x
 _atom_site_fract_y
 _atom_site_fract_z
 _atom_site_occupancy
  Fe  Fe0  1  0.68059500  0.25970800  0.26357600  1
  Fe  Fe1  1  0.03951100  0.21210200  0.12704800  1
  Fe  Fe2  1  0.48994300  0.49648400  0.50298900  1
  Fe  Fe3  1  0.98964800  0.56887400  0.99160400  1
  Fe  Fe4  1  0.75201600  0.75399100  0.25054600  1
  Fe  Fe5  1  0.24829600  0.76163500  0.75074800  1
  Fe  Fe6  1  0.50614600  0.99656900  0.00299400  1
  Fe  Fe7  1  0.48979200  0.99985500  0.49690700  1
  Fe  Fe8  1  0.00221200  0.00690100  0.49908700  1
  Fe  Fe9  1  0.24542900  0.24943200  0.75200300  1
  Fe  Fe10  1  0.75687500  0.24635300  0.75623400  1
  Fe  Fe11  1  0.00108200  0.49519900  0.49350200  1
  Fe  Fe12  1  0.49851600  0.50170500  0.99769900  1
  Fe  Fe13  1  0.75584500  0.76099000  0.74806500  1
  Fe  Fe14  1  0.25632700  0.74723300  0.25172000  1
  O  O15  1  0.99837700  0.48773500  0.23366100  1
  O  O16  1  0.74082900  0.72599800  0.50077800  1
  O  O17  1  0.00631500  0.96759500  0.25400200  1
  O  O18  1  0.49979900  0.01424900  0.74192300  1
  O  O19  1  0.75543300  0.24828600  0.49115800  1
  O  O20  1  0.28599700  0.25055800  0.99766000  1
  O  O21  1  0.75214800  0.26449700  0.01605300  1
  O  O22  1  0.50412300  0.52870200  0.23569300  1
  O  O23  1  0.51655000  0.50375500  0.76405400  1
  O  O24  1  0.27057100  0.73056000  0.99215900  1
  O  O25  1  0.23883800  0.75008200  0.50916500  1
  O  O26  1  0.71601000  0.74149900  0.99834100  1
  O  O27  1  0.50624000  0.99199100  0.25699300  1
  O  O28  1  0.98827900  0.99683400  0.74089500  1
  O  O29  1  0.25290800  0.26749700  0.50965000  1
  O  O30  1  0.00168300  0.49130100  0.76282300  1
