# generated using pymatgen
data_Ga3NO3
_symmetry_space_group_name_H-M   'P 1'
_cell_length_a   8.12794600
_cell_length_b   6.40986100
_cell_length_c   8.22971347
_cell_angle_alpha   90.00000000
_cell_angle_beta   119.29744253
_cell_angle_gamma   90.00000000
_symmetry_Int_Tables_number   1
_chemical_formula_structural   Ga3NO3
_chemical_formula_sum   'Ga12 N4 O12'
_cell_volume   373.91767819
_cell_formula_units_Z   4
loop_
 _symmetry_equiv_pos_site_id
 _symmetry_equiv_pos_as_xyz
  1  'x, y, z'
loop_
 _atom_site_type_symbol
 _atom_site_label
 _atom_site_symmetry_multiplicity
 _atom_site_fract_x
 _atom_site_fract_y
 _atom_site_fract_z
 _atom_site_occupancy
  Ga  Ga0  1  0.40346900  0.00000000  0.16249200  1
  Ga  Ga1  1  0.41070300  0.50000000  0.17400000  1
  Ga  Ga2  1  0.82535700  0.00000000  0.22767100  1
  Ga  Ga3  1  0.83459200  0.50000000  0.22160800  1
  Ga  Ga4  1  0.77065000  0.00000000  0.59924900  1
  Ga  Ga5  1  0.75890100  0.50000000  0.59057100  1
  Ga  Ga6  1  0.24123000  0.25751400  0.40587400  1
  Ga  Ga7  1  0.24123000  0.74248600  0.40587400  1
  Ga  Ga8  1  0.16610800  0.24297400  0.76060600  1
  Ga  Ga9  1  0.16610800  0.75702600  0.76060600  1
  Ga  Ga10  1  0.60028400  0.75017900  0.84206700  1
  Ga  Ga11  1  0.60028400  0.24982100  0.84206700  1
  N  N12  1  0.30486700  0.50000000  0.32812700  1
  N  N13  1  0.02822000  0.00000000  0.70376600  1
  N  N14  1  0.66663200  0.00000000  0.97229600  1
  N  N15  1  0.66861400  0.50000000  0.96992300  1
  O  O16  1  0.33378000  0.25161200  0.02769700  1
  O  O17  1  0.33378000  0.74838800  0.02769700  1
  O  O18  1  0.67698700  0.50000000  0.33483800  1
  O  O19  1  0.66083500  0.00000000  0.33437300  1
  O  O20  1  0.97475200  0.24756200  0.32033000  1
  O  O21  1  0.97475200  0.75243800  0.32033000  1
  O  O22  1  0.68374400  0.74915300  0.65377400  1
  O  O23  1  0.68374400  0.25084700  0.65377400  1
  O  O24  1  0.29327900  0.00000000  0.32206600  1
  O  O25  1  0.03009600  0.50000000  0.70839400  1
  O  O26  1  0.33340300  0.74925700  0.66486400  1
  O  O27  1  0.33340300  0.25074300  0.66486400  1
