# generated using pymatgen
data_Ta2BeO6
_symmetry_space_group_name_H-M   'P 1'
_cell_length_a   4.94265100
_cell_length_b   7.43095000
_cell_length_c   11.53034900
_cell_angle_alpha   90.00000000
_cell_angle_beta   90.00000000
_cell_angle_gamma   90.00000000
_symmetry_Int_Tables_number   1
_chemical_formula_structural   Ta2BeO6
_chemical_formula_sum   'Ta8 Be4 O24'
_cell_volume   423.49348921
_cell_formula_units_Z   4
loop_
 _symmetry_equiv_pos_site_id
 _symmetry_equiv_pos_as_xyz
  1  'x, y, z'
loop_
 _atom_site_type_symbol
 _atom_site_label
 _atom_site_symmetry_multiplicity
 _atom_site_fract_x
 _atom_site_fract_y
 _atom_site_fract_z
 _atom_site_occupancy
  Ta  Ta0  1  0.10552200  0.49646100  0.86703300  1
  Ta  Ta1  1  0.10552200  0.00353900  0.86703300  1
  Ta  Ta2  1  0.60552200  0.99646100  0.63296700  1
  Ta  Ta3  1  0.60552200  0.50353900  0.63296700  1
  Ta  Ta4  1  0.39447800  0.49646100  0.36703300  1
  Ta  Ta5  1  0.39447800  0.00353900  0.36703300  1
  Ta  Ta6  1  0.89447800  0.99646100  0.13296700  1
  Ta  Ta7  1  0.89447800  0.50353900  0.13296700  1
  Be  Be8  1  0.40080700  0.25000000  0.06147900  1
  Be  Be9  1  0.90080700  0.75000000  0.43852100  1
  Be  Be10  1  0.09919300  0.25000000  0.56147900  1
  Be  Be11  1  0.59919300  0.75000000  0.93852100  1
  O  O12  1  0.77191700  0.57567900  0.96554600  1
  O  O13  1  0.77191700  0.92432100  0.96554600  1
  O  O14  1  0.29576200  0.75000000  0.89669600  1
  O  O15  1  0.98798200  0.25000000  0.85946300  1
  O  O16  1  0.40623200  0.06594600  0.76881600  1
  O  O17  1  0.40623200  0.43405400  0.76881600  1
  O  O18  1  0.90623200  0.93405400  0.73118400  1
  O  O19  1  0.90623200  0.56594600  0.73118400  1
  O  O20  1  0.48798200  0.75000000  0.64053700  1
  O  O21  1  0.79576200  0.25000000  0.60330400  1
  O  O22  1  0.27191700  0.07567900  0.53445400  1
  O  O23  1  0.27191700  0.42432100  0.53445400  1
  O  O24  1  0.72808300  0.57567900  0.46554600  1
  O  O25  1  0.72808300  0.92432100  0.46554600  1
  O  O26  1  0.20423800  0.75000000  0.39669600  1
  O  O27  1  0.51201800  0.25000000  0.35946300  1
  O  O28  1  0.09376800  0.06594600  0.26881600  1
  O  O29  1  0.09376800  0.43405400  0.26881600  1
  O  O30  1  0.59376800  0.56594600  0.23118400  1
  O  O31  1  0.59376800  0.93405400  0.23118400  1
  O  O32  1  0.01201800  0.75000000  0.14053700  1
  O  O33  1  0.70423800  0.25000000  0.10330400  1
  O  O34  1  0.22808300  0.07567900  0.03445400  1
  O  O35  1  0.22808300  0.42432100  0.03445400  1
