# generated using pymatgen
data_Li2MnF4
_symmetry_space_group_name_H-M   'P 1'
_cell_length_a   14.50774954
_cell_length_b   14.50774954
_cell_length_c   9.80729182
_cell_angle_alpha   90.00000000
_cell_angle_beta   90.00000000
_cell_angle_gamma   120.00000000
_symmetry_Int_Tables_number   1
_chemical_formula_structural   Li2MnF4
_chemical_formula_sum   'Li36 Mn18 F72'
_cell_volume   1787.63903075
_cell_formula_units_Z   18
loop_
 _symmetry_equiv_pos_site_id
 _symmetry_equiv_pos_as_xyz
  1  'x, y, z'
loop_
 _atom_site_type_symbol
 _atom_site_label
 _atom_site_symmetry_multiplicity
 _atom_site_fract_x
 _atom_site_fract_y
 _atom_site_fract_z
 _atom_site_occupancy
  Li  Li0  1  0.50439100  0.63397000  0.57737200  1
  Li  Li1  1  0.87042100  0.50439100  0.42262800  1
  Li  Li2  1  0.76635433  0.81361067  0.58849767  1
  Li  Li3  1  0.63397000  0.12957900  0.42262800  1
  Li  Li4  1  0.95274367  0.76635433  0.41150233  1
  Li  Li5  1  0.81361067  0.04725633  0.41150233  1
  Li  Li6  1  0.18638933  0.95274367  0.58849767  1
  Li  Li7  1  0.04725633  0.23364567  0.58849767  1
  Li  Li8  1  0.36603000  0.87042100  0.57737200  1
  Li  Li9  1  0.23364567  0.18638933  0.41150233  1
  Li  Li10  1  0.12957900  0.49560900  0.57737200  1
  Li  Li11  1  0.49560900  0.36603000  0.42262800  1
  Li  Li12  1  0.17105767  0.96730333  0.91070533  1
  Li  Li13  1  0.53708767  0.83772433  0.75596133  1
  Li  Li14  1  0.43302100  0.14694400  0.92183100  1
  Li  Li15  1  0.30063667  0.46291233  0.75596133  1
  Li  Li16  1  0.61941033  0.09968767  0.74483567  1
  Li  Li17  1  0.48027733  0.38058967  0.74483567  1
  Li  Li18  1  0.85305600  0.28607700  0.92183100  1
  Li  Li19  1  0.71392300  0.56697900  0.92183100  1
  Li  Li20  1  0.03269667  0.20375433  0.91070533  1
  Li  Li21  1  0.90031233  0.51972267  0.74483567  1
  Li  Li22  1  0.79624567  0.82894233  0.91070533  1
  Li  Li23  1  0.16227567  0.69936333  0.75596133  1
  Li  Li24  1  0.83772433  0.30063667  0.24403867  1
  Li  Li25  1  0.20375433  0.17105767  0.08929467  1
  Li  Li26  1  0.09968767  0.48027733  0.25516433  1
  Li  Li27  1  0.96730333  0.79624567  0.08929467  1
  Li  Li28  1  0.28607700  0.43302100  0.07816900  1
  Li  Li29  1  0.14694400  0.71392300  0.07816900  1
  Li  Li30  1  0.51972267  0.61941033  0.25516433  1
  Li  Li31  1  0.38058967  0.90031233  0.25516433  1
  Li  Li32  1  0.69936333  0.53708767  0.24403867  1
  Li  Li33  1  0.56697900  0.85305600  0.07816900  1
  Li  Li34  1  0.46291233  0.16227567  0.24403867  1
  Li  Li35  1  0.82894233  0.03269667  0.08929467  1
  Mn  Mn36  1  0.04372067  0.24050833  0.25006833  1
  Mn  Mn37  1  0.24050833  0.19678767  0.74993167  1
  Mn  Mn38  1  0.80321233  0.04372067  0.74993167  1
  Mn  Mn39  1  0.19678767  0.95627933  0.25006833  1
  Mn  Mn40  1  0.75949167  0.80321233  0.25006833  1
  Mn  Mn41  1  0.95627933  0.75949167  0.74993167  1
  Mn  Mn42  1  0.71038733  0.57384167  0.58340167  1
  Mn  Mn43  1  0.90717500  0.53012100  0.08326500  1
  Mn  Mn44  1  0.46987900  0.37705400  0.08326500  1
  Mn  Mn45  1  0.86345433  0.28961267  0.58340167  1
  Mn  Mn46  1  0.42615833  0.13654567  0.58340167  1
  Mn  Mn47  1  0.62294600  0.09282500  0.08326500  1
  Mn  Mn48  1  0.37705400  0.90717500  0.91673500  1
  Mn  Mn49  1  0.57384167  0.86345433  0.41659833  1
  Mn  Mn50  1  0.13654567  0.71038733  0.41659833  1
  Mn  Mn51  1  0.53012100  0.62294600  0.91673500  1
  Mn  Mn52  1  0.09282500  0.46987900  0.91673500  1
  Mn  Mn53  1  0.28961267  0.42615833  0.41659833  1
  F  F54  1  0.75882333  0.53497067  0.41361267  1
  F  F55  1  0.65147933  0.67348967  0.58887067  1
  F  F56  1  0.53497067  0.77614733  0.58638733  1
  F  F57  1  0.67348967  0.02201033  0.41112933  1
  F  F58  1  0.75745467  0.88690933  0.42560333  1
  F  F59  1  0.79437433  0.89705167  0.74284067  1
  F  F60  1  0.89732267  0.79437433  0.25715933  1
  F  F61  1  0.97798967  0.65147933  0.41112933  1
  F  F62  1  0.87054533  0.75745467  0.57439667  1
  F  F63  1  0.88690933  0.12945467  0.57439667  1
  F  F64  1  0.22385267  0.75882333  0.58638733  1
  F  F65  1  0.89705167  0.10267733  0.25715933  1
  F  F66  1  0.10294833  0.89732267  0.74284067  1
  F  F67  1  0.77614733  0.24117667  0.41361267  1
  F  F68  1  0.11309067  0.87054533  0.42560333  1
  F  F69  1  0.12945467  0.24254533  0.42560333  1
  F  F70  1  0.02201033  0.34852067  0.58887067  1
  F  F71  1  0.10267733  0.20562567  0.74284067  1
  F  F72  1  0.20562567  0.10294833  0.25715933  1
  F  F73  1  0.24254533  0.11309067  0.57439667  1
  F  F74  1  0.32651033  0.97798967  0.58887067  1
  F  F75  1  0.46502933  0.22385267  0.41361267  1
  F  F76  1  0.34852067  0.32651033  0.41112933  1
  F  F77  1  0.24117667  0.46502933  0.58638733  1
  F  F78  1  0.42549000  0.86830400  0.74694600  1
  F  F79  1  0.31814600  0.00682300  0.92220400  1
  F  F80  1  0.20163733  0.10948067  0.91972067  1
  F  F81  1  0.34015633  0.35534367  0.74446267  1
  F  F82  1  0.42412133  0.22024267  0.75893667  1
  F  F83  1  0.46104100  0.23038500  0.07617400  1
  F  F84  1  0.56398933  0.12770767  0.59049267  1
  F  F85  1  0.64465633  0.98481267  0.74446267  1
  F  F86  1  0.53721200  0.09078800  0.90773000  1
  F  F87  1  0.55357600  0.46278800  0.90773000  1
  F  F88  1  0.89051933  0.09215667  0.91972067  1
  F  F89  1  0.56371833  0.43601067  0.59049267  1
  F  F90  1  0.76961500  0.23065600  0.07617400  1
  F  F91  1  0.44281400  0.57451000  0.74694600  1
  F  F92  1  0.77975733  0.20387867  0.75893667  1
  F  F93  1  0.79612133  0.57587867  0.75893667  1
  F  F94  1  0.68867700  0.68185400  0.92220400  1
  F  F95  1  0.76934400  0.53895900  0.07617400  1
  F  F96  1  0.87229233  0.43628167  0.59049267  1
  F  F97  1  0.90921200  0.44642400  0.90773000  1
  F  F98  1  0.99317700  0.31132300  0.92220400  1
  F  F99  1  0.13169600  0.55718600  0.74694600  1
  F  F100  1  0.01518733  0.65984367  0.74446267  1
  F  F101  1  0.90784333  0.79836267  0.91972067  1
  F  F102  1  0.09215667  0.20163733  0.08027933  1
  F  F103  1  0.98481267  0.34015633  0.25553733  1
  F  F104  1  0.86830400  0.44281400  0.25305400  1
  F  F105  1  0.00682300  0.68867700  0.07779600  1
  F  F106  1  0.09078800  0.55357600  0.09227000  1
  F  F107  1  0.12770767  0.56371833  0.40950733  1
  F  F108  1  0.23065600  0.46104100  0.92382600  1
  F  F109  1  0.31132300  0.31814600  0.07779600  1
  F  F110  1  0.20387867  0.42412133  0.24106333  1
  F  F111  1  0.22024267  0.79612133  0.24106333  1
  F  F112  1  0.55718600  0.42549000  0.25305400  1
  F  F113  1  0.23038500  0.76934400  0.92382600  1
  F  F114  1  0.43628167  0.56398933  0.40950733  1
  F  F115  1  0.10948067  0.90784333  0.08027933  1
  F  F116  1  0.44642400  0.53721200  0.09227000  1
  F  F117  1  0.46278800  0.90921200  0.09227000  1
  F  F118  1  0.35534367  0.01518733  0.25553733  1
  F  F119  1  0.43601067  0.87229233  0.40950733  1
  F  F120  1  0.53895900  0.76961500  0.92382600  1
  F  F121  1  0.57587867  0.77975733  0.24106333  1
  F  F122  1  0.65984367  0.64465633  0.25553733  1
  F  F123  1  0.79836267  0.89051933  0.08027933  1
  F  F124  1  0.68185400  0.99317700  0.07779600  1
  F  F125  1  0.57451000  0.13169600  0.25305400  1
