# generated using pymatgen
data_Mn2Cu5P4(HO9)2
_symmetry_space_group_name_H-M   'P 1'
_cell_length_a   5.42871000
_cell_length_b   7.63339925
_cell_length_c   8.98285340
_cell_angle_alpha   108.49260436
_cell_angle_beta   95.60999878
_cell_angle_gamma   101.85769221
_symmetry_Int_Tables_number   1
_chemical_formula_structural   Mn2Cu5P4(HO9)2
_chemical_formula_sum   'Mn2 Cu5 P4 H2 O18'
_cell_volume   340.12562152
_cell_formula_units_Z   1
loop_
 _symmetry_equiv_pos_site_id
 _symmetry_equiv_pos_as_xyz
  1  'x, y, z'
loop_
 _atom_site_type_symbol
 _atom_site_label
 _atom_site_symmetry_multiplicity
 _atom_site_fract_x
 _atom_site_fract_y
 _atom_site_fract_z
 _atom_site_occupancy
  Mn  Mn0  1  0.45197200  0.71068800  0.01979500  1
  Mn  Mn1  1  0.54802800  0.28931200  0.98020500  1
  Cu  Cu2  1  0.00000000  0.00000000  0.00000000  1
  Cu  Cu3  1  0.27214300  0.10543200  0.50348800  1
  Cu  Cu4  1  0.72785700  0.89456800  0.49651200  1
  Cu  Cu5  1  0.23963800  0.46998800  0.38218500  1
  Cu  Cu6  1  0.76036200  0.53001200  0.61781500  1
  P  P7  1  0.99831000  0.28795700  0.80293800  1
  P  P8  1  0.00169000  0.71204300  0.19706200  1
  P  P9  1  0.34025100  0.84404400  0.73602000  1
  P  P10  1  0.65974900  0.15595600  0.26398000  1
  H  H11  1  0.33381800  0.44288100  0.65363200  1
  H  H12  1  0.66618200  0.55711900  0.34636800  1
  O  O13  1  0.39322100  0.38076700  0.55462600  1
  O  O14  1  0.60677900  0.61923300  0.44537400  1
  O  O15  1  0.17877000  0.58523100  0.22039200  1
  O  O16  1  0.82123000  0.41476900  0.77960800  1
  O  O17  1  0.46804400  0.94850200  0.62913600  1
  O  O18  1  0.53195600  0.05149800  0.37086400  1
  O  O19  1  0.11774300  0.80545000  0.07877200  1
  O  O20  1  0.88225700  0.19455000  0.92122800  1
  O  O21  1  0.27684500  0.40689700  0.87785900  1
  O  O22  1  0.72315500  0.59310300  0.12214100  1
  O  O23  1  0.46904800  0.24890900  0.19597000  1
  O  O24  1  0.53095200  0.75109100  0.80403000  1
  O  O25  1  0.99293000  0.86809100  0.35684200  1
  O  O26  1  0.00707000  0.13190900  0.64315800  1
  O  O27  1  0.27927300  0.00531700  0.87522900  1
  O  O28  1  0.72072700  0.99468300  0.12477100  1
  O  O29  1  0.09664800  0.69169300  0.63758200  1
  O  O30  1  0.90335200  0.30830700  0.36241800  1
