# generated using pymatgen
data_SbO2F
_symmetry_space_group_name_H-M   'P 1'
_cell_length_a   9.28829400
_cell_length_b   4.98893800
_cell_length_c   5.31640227
_cell_angle_alpha   90.00000000
_cell_angle_beta   121.01598679
_cell_angle_gamma   90.00000000
_symmetry_Int_Tables_number   1
_chemical_formula_structural   SbO2F
_chemical_formula_sum   'Sb4 O8 F4'
_cell_volume   211.13228901
_cell_formula_units_Z   4
loop_
 _symmetry_equiv_pos_site_id
 _symmetry_equiv_pos_as_xyz
  1  'x, y, z'
loop_
 _atom_site_type_symbol
 _atom_site_label
 _atom_site_symmetry_multiplicity
 _atom_site_fract_x
 _atom_site_fract_y
 _atom_site_fract_z
 _atom_site_occupancy
  Sb  Sb0  1  0.25000000  0.25000000  0.50000000  1
  Sb  Sb1  1  0.25000000  0.75000000  0.00000000  1
  Sb  Sb2  1  0.75000000  0.75000000  0.50000000  1
  Sb  Sb3  1  0.75000000  0.25000000  0.00000000  1
  O  O4  1  0.31350800  0.42836100  0.24479100  1
  O  O5  1  0.18649200  0.92836100  0.25520900  1
  O  O6  1  0.31350800  0.57163900  0.74479100  1
  O  O7  1  0.18649200  0.07163900  0.75520900  1
  O  O8  1  0.81350800  0.92836100  0.24479100  1
  O  O9  1  0.68649200  0.42836100  0.25520900  1
  O  O10  1  0.81350800  0.07163900  0.74479100  1
  O  O11  1  0.68649200  0.57163900  0.75520900  1
  F  F12  1  0.00000000  0.61621200  0.75000000  1
  F  F13  1  0.00000000  0.38378800  0.25000000  1
  F  F14  1  0.50000000  0.11621200  0.75000000  1
  F  F15  1  0.50000000  0.88378800  0.25000000  1
