# generated using pymatgen
data_BaNb3NO7
_symmetry_space_group_name_H-M   'P 1'
_cell_length_a   21.23528400
_cell_length_b   3.88873200
_cell_length_c   9.12912202
_cell_angle_alpha   90.00000000
_cell_angle_beta   90.49957567
_cell_angle_gamma   90.00000000
_symmetry_Int_Tables_number   1
_chemical_formula_structural   BaNb3NO7
_chemical_formula_sum   'Ba4 Nb12 N4 O28'
_cell_volume   753.83898002
_cell_formula_units_Z   4
loop_
 _symmetry_equiv_pos_site_id
 _symmetry_equiv_pos_as_xyz
  1  'x, y, z'
loop_
 _atom_site_type_symbol
 _atom_site_label
 _atom_site_symmetry_multiplicity
 _atom_site_fract_x
 _atom_site_fract_y
 _atom_site_fract_z
 _atom_site_occupancy
  Ba  Ba0  1  0.99107600  0.00000000  0.24951700  1
  Ba  Ba1  1  0.52081400  0.50000000  0.75629300  1
  Ba  Ba2  1  0.49107600  0.50000000  0.24951700  1
  Ba  Ba3  1  0.02081400  0.00000000  0.75629300  1
  Nb  Nb4  1  0.63203500  0.00000000  0.05125500  1
  Nb  Nb5  1  0.74094300  0.50000000  0.24349800  1
  Nb  Nb6  1  0.63466900  0.00000000  0.44347600  1
  Nb  Nb7  1  0.86826100  0.50000000  0.55372200  1
  Nb  Nb8  1  0.75863700  0.00000000  0.75556200  1
  Nb  Nb9  1  0.86938800  0.50000000  0.93689800  1
  Nb  Nb10  1  0.13203500  0.50000000  0.05125500  1
  Nb  Nb11  1  0.24094300  0.00000000  0.24349800  1
  Nb  Nb12  1  0.13466900  0.50000000  0.44347600  1
  Nb  Nb13  1  0.36826100  0.00000000  0.55372200  1
  Nb  Nb14  1  0.25863700  0.50000000  0.75556200  1
  Nb  Nb15  1  0.36938800  0.00000000  0.93689800  1
  N  N16  1  0.70386200  0.00000000  0.90320500  1
  N  N17  1  0.56292300  0.00000000  0.93526800  1
  N  N18  1  0.20386200  0.50000000  0.90320500  1
  N  N19  1  0.06292300  0.50000000  0.93526800  1
  O  O20  1  0.93398900  0.50000000  0.06869500  1
  O  O21  1  0.65606000  0.50000000  0.10456500  1
  O  O22  1  0.79847900  0.50000000  0.09218400  1
  O  O23  1  0.71785100  0.00000000  0.25760100  1
  O  O24  1  0.58241900  0.00000000  0.25876900  1
  O  O25  1  0.79815200  0.50000000  0.40374800  1
  O  O26  1  0.65523100  0.50000000  0.40714300  1
  O  O27  1  0.93624800  0.50000000  0.43237500  1
  O  O28  1  0.56717500  0.00000000  0.56726500  1
  O  O29  1  0.85283100  0.00000000  0.58233800  1
  O  O30  1  0.70554100  0.00000000  0.58670600  1
  O  O31  1  0.79217300  0.50000000  0.74725000  1
  O  O32  1  0.91933500  0.50000000  0.75091300  1
  O  O33  1  0.84927800  0.00000000  0.90738700  1
  O  O34  1  0.43398900  0.00000000  0.06869500  1
  O  O35  1  0.15606000  0.00000000  0.10456500  1
  O  O36  1  0.29847900  0.00000000  0.09218400  1
  O  O37  1  0.21785100  0.50000000  0.25760100  1
  O  O38  1  0.08241900  0.50000000  0.25876900  1
  O  O39  1  0.29815200  0.00000000  0.40374800  1
  O  O40  1  0.15523100  0.00000000  0.40714300  1
  O  O41  1  0.43624800  0.00000000  0.43237500  1
  O  O42  1  0.06717500  0.50000000  0.56726500  1
  O  O43  1  0.35283100  0.50000000  0.58233800  1
  O  O44  1  0.20554100  0.50000000  0.58670600  1
  O  O45  1  0.29217300  0.00000000  0.74725000  1
  O  O46  1  0.41933500  0.00000000  0.75091300  1
  O  O47  1  0.34927800  0.50000000  0.90738700  1
