# generated using pymatgen
data_Na5LiNi2P2(CO7)2
_symmetry_space_group_name_H-M   'P 1'
_cell_length_a   5.16975586
_cell_length_b   6.62175843
_cell_length_c   8.81633044
_cell_angle_alpha   90.37209489
_cell_angle_beta   91.45231761
_cell_angle_gamma   90.07825433
_symmetry_Int_Tables_number   1
_chemical_formula_structural   Na5LiNi2P2(CO7)2
_chemical_formula_sum   'Na5 Li1 Ni2 P2 C2 O14'
_cell_volume   301.70466512
_cell_formula_units_Z   1
loop_
 _symmetry_equiv_pos_site_id
 _symmetry_equiv_pos_as_xyz
  1  'x, y, z'
loop_
 _atom_site_type_symbol
 _atom_site_label
 _atom_site_symmetry_multiplicity
 _atom_site_fract_x
 _atom_site_fract_y
 _atom_site_fract_z
 _atom_site_occupancy
  Na  Na0  1  0.23164850  0.76016450  0.08215450  1
  Na  Na1  1  0.74460050  0.50829600  0.26863400  1
  Na  Na2  1  0.25266700  0.49088250  0.73087350  1
  Na  Na3  1  0.25346750  0.00572350  0.73256750  1
  Na  Na4  1  0.77537500  0.24606750  0.91739550  1
  Li  Li5  1  0.77012450  0.98363750  0.28805550  1
  Ni  Ni6  1  0.21469900  0.24381500  0.34586400  1
  Ni  Ni7  1  0.77960800  0.75192600  0.64964200  1
  P  P8  1  0.28206250  0.75294450  0.41366650  1
  P  P9  1  0.70655900  0.24485450  0.57899650  1
  C  C10  1  0.28901850  0.24703150  0.06430650  1
  C  C11  1  0.72115350  0.75833050  0.94121450  1
  O  O12  1  0.70332550  0.77117750  0.08690150  1
  O  O13  1  0.05913800  0.25491250  0.12156950  1
  O  O14  1  0.48708150  0.23412150  0.15819050  1
  O  O15  1  0.17525700  0.93126050  0.31624550  1
  O  O16  1  0.22493600  0.55911150  0.31784150  1
  O  O17  1  0.84012000  0.23499100  0.42384500  1
  O  O18  1  0.58261650  0.77547300  0.43947000  1
  O  O19  1  0.40717450  0.24250350  0.55087350  1
  O  O20  1  0.15117300  0.74700900  0.56907200  1
  O  O21  1  0.78254950  0.43781350  0.67216350  1
  O  O22  1  0.78646800  0.06390450  0.68249650  1
  O  O23  1  0.51616850  0.75207900  0.85192800  1
  O  O24  1  0.94568200  0.75083050  0.87682850  1
  O  O25  1  0.31732600  0.25113350  0.91920250  1
