# generated using pymatgen
data_Ba2YI7
_symmetry_space_group_name_H-M   'P 1'
_cell_length_a   8.38660200
_cell_length_b   18.83387500
_cell_length_c   15.63044737
_cell_angle_alpha   90.00000000
_cell_angle_beta   119.15231672
_cell_angle_gamma   90.00000000
_symmetry_Int_Tables_number   1
_chemical_formula_structural   Ba2YI7
_chemical_formula_sum   'Ba8 Y4 I28'
_cell_volume   2156.12732550
_cell_formula_units_Z   4
loop_
 _symmetry_equiv_pos_site_id
 _symmetry_equiv_pos_as_xyz
  1  'x, y, z'
loop_
 _atom_site_type_symbol
 _atom_site_label
 _atom_site_symmetry_multiplicity
 _atom_site_fract_x
 _atom_site_fract_y
 _atom_site_fract_z
 _atom_site_occupancy
  Ba  Ba0  1  0.00864600  0.02562500  0.68675800  1
  Ba  Ba1  1  0.78931100  0.27001300  0.53228200  1
  Ba  Ba2  1  0.21068900  0.77001300  0.96771800  1
  Ba  Ba3  1  0.99135400  0.52562500  0.81324200  1
  Ba  Ba4  1  0.00864600  0.47437500  0.18675800  1
  Ba  Ba5  1  0.78931100  0.22998700  0.03228200  1
  Ba  Ba6  1  0.21068900  0.72998700  0.46771800  1
  Ba  Ba7  1  0.99135400  0.97437500  0.31324200  1
  Y  Y8  1  0.41799300  0.34068200  0.14875700  1
  Y  Y9  1  0.58200700  0.84068200  0.35124300  1
  Y  Y10  1  0.41799300  0.15931800  0.64875700  1
  Y  Y11  1  0.58200700  0.65931800  0.85124300  1
  I  I12  1  0.19445700  0.21024300  0.74254400  1
  I  I13  1  0.40439100  0.19861400  0.05885700  1
  I  I14  1  0.41532500  0.60359100  0.97495900  1
  I  I15  1  0.55058200  0.98539900  0.26170200  1
  I  I16  1  0.79281800  0.31084000  0.31623900  1
  I  I17  1  0.96737600  0.88401200  0.52109800  1
  I  I18  1  0.93132300  0.43292000  0.61939200  1
  I  I19  1  0.06867700  0.93292000  0.88060800  1
  I  I20  1  0.03262400  0.38401200  0.97890200  1
  I  I21  1  0.20718200  0.81084000  0.18376100  1
  I  I22  1  0.58467500  0.10359100  0.52504100  1
  I  I23  1  0.44941800  0.48539900  0.23829800  1
  I  I24  1  0.80554300  0.71024300  0.75745600  1
  I  I25  1  0.59560900  0.69861400  0.44114300  1
  I  I26  1  0.40439100  0.30138600  0.55885700  1
  I  I27  1  0.19445700  0.28975700  0.24254400  1
  I  I28  1  0.55058200  0.51460100  0.76170200  1
  I  I29  1  0.41532500  0.89640900  0.47495900  1
  I  I30  1  0.79281800  0.18916000  0.81623900  1
  I  I31  1  0.96737600  0.61598800  0.02109800  1
  I  I32  1  0.93132300  0.06708000  0.11939200  1
  I  I33  1  0.06867700  0.56708000  0.38060800  1
  I  I34  1  0.03262400  0.11598800  0.47890200  1
  I  I35  1  0.20718200  0.68916000  0.68376100  1
  I  I36  1  0.44941800  0.01460100  0.73829800  1
  I  I37  1  0.58467500  0.39640900  0.02504100  1
  I  I38  1  0.59560900  0.80138600  0.94114300  1
  I  I39  1  0.80554300  0.78975700  0.25745600  1
