# generated using pymatgen
data_PrBiO4
_symmetry_space_group_name_H-M   'P 1'
_cell_length_a   5.68529200
_cell_length_b   5.75566200
_cell_length_c   10.98335100
_cell_angle_alpha   90.00000000
_cell_angle_beta   90.00000000
_cell_angle_gamma   90.00000000
_symmetry_Int_Tables_number   1
_chemical_formula_structural   PrBiO4
_chemical_formula_sum   'Pr4 Bi4 O16'
_cell_volume   359.40401147
_cell_formula_units_Z   4
loop_
 _symmetry_equiv_pos_site_id
 _symmetry_equiv_pos_as_xyz
  1  'x, y, z'
loop_
 _atom_site_type_symbol
 _atom_site_label
 _atom_site_symmetry_multiplicity
 _atom_site_fract_x
 _atom_site_fract_y
 _atom_site_fract_z
 _atom_site_occupancy
  Pr  Pr0  1  0.19319400  0.75000000  0.25000000  1
  Pr  Pr1  1  0.30680600  0.75000000  0.75000000  1
  Pr  Pr2  1  0.69319400  0.25000000  0.25000000  1
  Pr  Pr3  1  0.80680600  0.25000000  0.75000000  1
  Bi  Bi4  1  0.25000000  0.20217900  0.00000000  1
  Bi  Bi5  1  0.25000000  0.29782100  0.50000000  1
  Bi  Bi6  1  0.75000000  0.70217900  0.50000000  1
  Bi  Bi7  1  0.75000000  0.79782100  0.00000000  1
  O  O8  1  0.98201300  0.44987100  0.38336800  1
  O  O9  1  0.98201300  0.05012900  0.11663200  1
  O  O10  1  0.12072000  0.42934700  0.87020100  1
  O  O11  1  0.12072000  0.07065300  0.62979900  1
  O  O12  1  0.37928000  0.07065300  0.37020100  1
  O  O13  1  0.37928000  0.42934700  0.12979900  1
  O  O14  1  0.51798700  0.05012900  0.88336800  1
  O  O15  1  0.51798700  0.44987100  0.61663200  1
  O  O16  1  0.48201300  0.55012900  0.38336800  1
  O  O17  1  0.48201300  0.94987100  0.11663200  1
  O  O18  1  0.62072000  0.57065300  0.87020100  1
  O  O19  1  0.62072000  0.92934700  0.62979900  1
  O  O20  1  0.87928000  0.92934700  0.37020100  1
  O  O21  1  0.87928000  0.57065300  0.12979900  1
  O  O22  1  0.01798700  0.94987100  0.88336800  1
  O  O23  1  0.01798700  0.55012900  0.61663200  1
