# generated using pymatgen
data_IClO
_symmetry_space_group_name_H-M   'P 1'
_cell_length_a   15.87919364
_cell_length_b   15.87919364
_cell_length_c   6.79667491
_cell_angle_alpha   90.00000000
_cell_angle_beta   90.00000000
_cell_angle_gamma   120.00000000
_symmetry_Int_Tables_number   1
_chemical_formula_structural   IClO
_chemical_formula_sum   'I18 Cl18 O18'
_cell_volume   1484.17126650
_cell_formula_units_Z   18
loop_
 _symmetry_equiv_pos_site_id
 _symmetry_equiv_pos_as_xyz
  1  'x, y, z'
loop_
 _atom_site_type_symbol
 _atom_site_label
 _atom_site_symmetry_multiplicity
 _atom_site_fract_x
 _atom_site_fract_y
 _atom_site_fract_z
 _atom_site_occupancy
  I  I0  1  0.93454100  0.20582200  0.48162900  1
  I  I1  1  0.72871900  0.93454100  0.51837100  1
  I  I2  1  0.53915533  0.93794767  0.18503767  1
  I  I3  1  0.12751133  0.39538567  0.14829567  1
  I  I4  1  0.93794767  0.39879233  0.81496233  1
  I  I5  1  0.73212567  0.12751133  0.85170433  1
  I  I6  1  0.60120767  0.53915533  0.81496233  1
  I  I7  1  0.39538567  0.26787433  0.85170433  1
  I  I8  1  0.20582200  0.27128100  0.51837100  1
  I  I9  1  0.79417800  0.72871900  0.48162900  1
  I  I10  1  0.60461433  0.73212567  0.14829567  1
  I  I11  1  0.39879233  0.46084467  0.18503767  1
  I  I12  1  0.26787433  0.87248867  0.14829567  1
  I  I13  1  0.06205233  0.60120767  0.18503767  1
  I  I14  1  0.87248867  0.60461433  0.85170433  1
  I  I15  1  0.46084467  0.06205233  0.81496233  1
  I  I16  1  0.27128100  0.06545900  0.48162900  1
  I  I17  1  0.06545900  0.79417800  0.51837100  1
  Cl  Cl18  1  0.81840933  0.93212367  0.80611067  1
  Cl  Cl19  1  0.93212367  0.11371433  0.19388933  1
  Cl  Cl20  1  0.44704767  0.84825733  0.47277733  1
  Cl  Cl21  1  0.21961900  0.48507600  0.86055600  1
  Cl  Cl22  1  0.73454300  0.21961900  0.13944400  1
  Cl  Cl23  1  0.84825733  0.40120967  0.52722267  1
  Cl  Cl24  1  0.48507600  0.26545700  0.13944400  1
  Cl  Cl25  1  0.59879033  0.44704767  0.52722267  1
  Cl  Cl26  1  0.11371433  0.18159067  0.80611067  1
  Cl  Cl27  1  0.88628567  0.81840933  0.19388933  1
  Cl  Cl28  1  0.40120967  0.55295233  0.47277733  1
  Cl  Cl29  1  0.51492400  0.73454300  0.86055600  1
  Cl  Cl30  1  0.15174267  0.59879033  0.47277733  1
  Cl  Cl31  1  0.26545700  0.78038100  0.86055600  1
  Cl  Cl32  1  0.78038100  0.51492400  0.13944400  1
  Cl  Cl33  1  0.55295233  0.15174267  0.52722267  1
  Cl  Cl34  1  0.06787633  0.88628567  0.80611067  1
  Cl  Cl35  1  0.18159067  0.06787633  0.19388933  1
  O  O36  1  0.75748200  0.06896500  0.55467100  1
  O  O37  1  0.06896500  0.31148300  0.44532900  1
  O  O38  1  0.02185033  0.42414867  0.11199567  1
  O  O39  1  0.64481633  0.90918467  0.22133767  1
  O  O40  1  0.59770167  0.02185033  0.88800433  1
  O  O41  1  0.90918467  0.26436833  0.77866233  1
  O  O42  1  0.42414867  0.40229833  0.88800433  1
  O  O43  1  0.73563167  0.64481633  0.77866233  1
  O  O44  1  0.68851700  0.75748200  0.44532900  1
  O  O45  1  0.31148300  0.24251800  0.55467100  1
  O  O46  1  0.26436833  0.35518367  0.22133767  1
  O  O47  1  0.57585133  0.59770167  0.11199567  1
  O  O48  1  0.09081533  0.73563167  0.22133767  1
  O  O49  1  0.40229833  0.97814967  0.11199567  1
  O  O50  1  0.35518367  0.09081533  0.77866233  1
  O  O51  1  0.97814967  0.57585133  0.88800433  1
  O  O52  1  0.93103500  0.68851700  0.55467100  1
  O  O53  1  0.24251800  0.93103500  0.44532900  1
