# generated using pymatgen
data_V2OF5
_symmetry_space_group_name_H-M   'P 1'
_cell_length_a   6.91710200
_cell_length_b   6.91766200
_cell_length_c   17.62887323
_cell_angle_alpha   90.00000000
_cell_angle_beta   90.12835346
_cell_angle_gamma   90.00000000
_symmetry_Int_Tables_number   1
_chemical_formula_structural   V2OF5
_chemical_formula_sum   'V16 O8 F40'
_cell_volume   843.54252899
_cell_formula_units_Z   8
loop_
 _symmetry_equiv_pos_site_id
 _symmetry_equiv_pos_as_xyz
  1  'x, y, z'
loop_
 _atom_site_type_symbol
 _atom_site_label
 _atom_site_symmetry_multiplicity
 _atom_site_fract_x
 _atom_site_fract_y
 _atom_site_fract_z
 _atom_site_occupancy
  V  V0  1  0.00906600  0.99993500  0.84468800  1
  V  V1  1  0.50064050  0.51391450  0.66392900  1
  V  V2  1  0.00906600  0.00006500  0.34468800  1
  V  V3  1  0.48636850  0.99948150  0.91393700  1
  V  V4  1  0.50080650  0.99095950  0.59462500  1
  V  V5  1  0.48636850  0.00051850  0.41393700  1
  V  V6  1  0.50080650  0.00904050  0.09462500  1
  V  V7  1  0.50064050  0.48608550  0.16392900  1
  V  V8  1  0.50906600  0.49993500  0.84468800  1
  V  V9  1  0.00064050  0.01391450  0.66392900  1
  V  V10  1  0.50906600  0.50006500  0.34468800  1
  V  V11  1  0.98636850  0.49948150  0.91393700  1
  V  V12  1  0.00080650  0.49095950  0.59462500  1
  V  V13  1  0.98636850  0.50051850  0.41393700  1
  V  V14  1  0.00080650  0.50904050  0.09462500  1
  V  V15  1  0.00064050  0.98608550  0.16392900  1
  O  O16  1  0.20341200  0.00004200  0.90331900  1
  O  O17  1  0.20341200  0.99995800  0.40331900  1
  O  O18  1  0.50156850  0.79660050  0.65331400  1
  O  O19  1  0.50156850  0.20339950  0.15331400  1
  O  O20  1  0.70341200  0.50004200  0.90331900  1
  O  O21  1  0.70341200  0.49995800  0.40331900  1
  O  O22  1  0.00156850  0.29660050  0.65331400  1
  O  O23  1  0.00156850  0.70339950  0.15331400  1
  F  F24  1  0.17780800  0.00062400  0.75163000  1
  F  F25  1  0.21567600  0.00194600  0.58990000  1
  F  F26  1  0.17780800  0.99937600  0.25163000  1
  F  F27  1  0.21567600  0.99805400  0.08990000  1
  F  F28  1  0.49774900  0.78565800  0.83986700  1
  F  F29  1  0.50063100  0.82248800  0.50163200  1
  F  F30  1  0.50149050  0.78086150  0.15729500  1
  F  F31  1  0.49823400  0.78575700  0.33983700  1
  F  F32  1  0.49909600  0.82791000  0.00336000  1
  F  F33  1  0.50063100  0.17751200  0.00163200  1
  F  F34  1  0.49909600  0.17209000  0.50336000  1
  F  F35  1  0.49823400  0.21424300  0.83983700  1
  F  F36  1  0.50149050  0.21913850  0.65729500  1
  F  F37  1  0.49774900  0.21434200  0.33986700  1
  F  F38  1  0.78128400  0.99980100  0.90726700  1
  F  F39  1  0.78689450  0.00206450  0.58972900  1
  F  F40  1  0.78128400  0.00019900  0.40726700  1
  F  F41  1  0.82843600  0.00075700  0.75334100  1
  F  F42  1  0.82843600  0.99924300  0.25334100  1
  F  F43  1  0.78689450  0.99793550  0.08972900  1
  F  F44  1  0.67780800  0.50062400  0.75163000  1
  F  F45  1  0.71567600  0.50194600  0.58990000  1
  F  F46  1  0.67780800  0.49937600  0.25163000  1
  F  F47  1  0.71567600  0.49805400  0.08990000  1
  F  F48  1  0.99774900  0.28565800  0.83986700  1
  F  F49  1  0.00063100  0.32248800  0.50163200  1
  F  F50  1  0.00149050  0.28086150  0.15729500  1
  F  F51  1  0.99823400  0.28575700  0.33983700  1
  F  F52  1  0.99909600  0.32791000  0.00336000  1
  F  F53  1  0.00063100  0.67751200  0.00163200  1
  F  F54  1  0.99909600  0.67209000  0.50336000  1
  F  F55  1  0.99823400  0.71424300  0.83983700  1
  F  F56  1  0.00149050  0.71913850  0.65729500  1
  F  F57  1  0.99774900  0.71434200  0.33986700  1
  F  F58  1  0.28128400  0.49980100  0.90726700  1
  F  F59  1  0.28689450  0.50206450  0.58972900  1
  F  F60  1  0.28128400  0.50019900  0.40726700  1
  F  F61  1  0.32843600  0.50075700  0.75334100  1
  F  F62  1  0.32843600  0.49924300  0.25334100  1
  F  F63  1  0.28689450  0.49793550  0.08972900  1
