# generated using pymatgen
data_Li2V(PO4)2
_symmetry_space_group_name_H-M   'P 1'
_cell_length_a   5.18241198
_cell_length_b   7.81005954
_cell_length_c   9.27626806
_cell_angle_alpha   90.00000000
_cell_angle_beta   123.53917312
_cell_angle_gamma   90.00000000
_symmetry_Int_Tables_number   1
_chemical_formula_structural   Li2V(PO4)2
_chemical_formula_sum   'Li4 V2 P4 O16'
_cell_volume   312.94605545
_cell_formula_units_Z   2
loop_
 _symmetry_equiv_pos_site_id
 _symmetry_equiv_pos_as_xyz
  1  'x, y, z'
loop_
 _atom_site_type_symbol
 _atom_site_label
 _atom_site_symmetry_multiplicity
 _atom_site_fract_x
 _atom_site_fract_y
 _atom_site_fract_z
 _atom_site_occupancy
  Li  Li0  1  0.55618825  0.64657500  0.07496300  1
  Li  Li1  1  0.44381175  0.14657500  0.42503700  1
  Li  Li2  1  0.55618825  0.85342500  0.57496300  1
  Li  Li3  1  0.44381175  0.35342500  0.92503700  1
  V  V4  1  0.50000000  0.00000000  0.00000000  1
  V  V5  1  0.50000000  0.50000000  0.50000000  1
  P  P6  1  0.19304025  0.80580500  0.19975850  1
  P  P7  1  0.80695975  0.30580500  0.30024150  1
  P  P8  1  0.19304025  0.69419500  0.69975850  1
  P  P9  1  0.80695975  0.19419500  0.80024150  1
  O  O10  1  0.68996175  0.16758450  0.92233750  1
  O  O11  1  0.31003825  0.66758450  0.57766250  1
  O  O12  1  0.68996175  0.33241550  0.42233750  1
  O  O13  1  0.31003825  0.83241550  0.07766250  1
  O  O14  1  0.83209525  0.82381100  0.08685550  1
  O  O15  1  0.16790475  0.32381100  0.41314450  1
  O  O16  1  0.83209525  0.67618900  0.58685550  1
  O  O17  1  0.16790475  0.17618900  0.91314450  1
  O  O18  1  0.66556225  0.43271300  0.15573750  1
  O  O19  1  0.33443775  0.93271300  0.34426250  1
  O  O20  1  0.66556225  0.06728700  0.65573750  1
  O  O21  1  0.33443775  0.56728700  0.84426250  1
  O  O22  1  0.27839425  0.61750000  0.27368650  1
  O  O23  1  0.72160575  0.11750000  0.22631350  1
  O  O24  1  0.27839425  0.88250000  0.77368650  1
  O  O25  1  0.72160575  0.38250000  0.72631350  1
