# generated using pymatgen
data_La2H22S6N6O23
_symmetry_space_group_name_H-M   'P 1'
_cell_length_a   20.71918600
_cell_length_b   9.41903000
_cell_length_c   14.27475151
_cell_angle_alpha   90.00000000
_cell_angle_beta   115.57556952
_cell_angle_gamma   90.00000000
_symmetry_Int_Tables_number   1
_chemical_formula_structural   La2H22S6N6O23
_chemical_formula_sum   'La8 H88 S24 N24 O92'
_cell_volume   2512.82356384
_cell_formula_units_Z   4
loop_
 _symmetry_equiv_pos_site_id
 _symmetry_equiv_pos_as_xyz
  1  'x, y, z'
loop_
 _atom_site_type_symbol
 _atom_site_label
 _atom_site_symmetry_multiplicity
 _atom_site_fract_x
 _atom_site_fract_y
 _atom_site_fract_z
 _atom_site_occupancy
  La  La0  1  0.22740200  0.96768900  0.39100700  1
  La  La1  1  0.22740200  0.03231100  0.89100700  1
  La  La2  1  0.27259800  0.46768900  0.10899300  1
  La  La3  1  0.27259800  0.53231100  0.60899300  1
  La  La4  1  0.72740200  0.46768900  0.39100700  1
  La  La5  1  0.72740200  0.53231100  0.89100700  1
  La  La6  1  0.77259800  0.96768900  0.10899300  1
  La  La7  1  0.77259800  0.03231100  0.60899300  1
  H  H8  1  0.06109650  0.41490350  0.40416400  1
  H  H9  1  0.43414000  0.46242500  0.26389500  1
  H  H10  1  0.41365550  0.10812250  0.23721000  1
  H  H11  1  0.10647350  0.34098650  0.34386300  1
  H  H12  1  0.02821300  0.13454000  0.30663400  1
  H  H13  1  0.47178700  0.63454000  0.19336600  1
  H  H14  1  0.39352650  0.84098650  0.15613700  1
  H  H15  1  0.40858450  0.56615250  0.47516000  1
  H  H16  1  0.08634450  0.60812250  0.26279000  1
  H  H17  1  0.06586000  0.96242500  0.23610500  1
  H  H18  1  0.47255800  0.67979000  0.47837800  1
  H  H19  1  0.20365600  0.26730000  0.28501900  1
  H  H20  1  0.43890350  0.91490350  0.09583600  1
  H  H21  1  0.13808950  0.18285850  0.20490000  1
  H  H22  1  0.10036150  0.86276450  0.17691000  1
  H  H23  1  0.10422900  0.56711700  0.16115700  1
  H  H24  1  0.39577100  0.06711700  0.33884300  1
  H  H25  1  0.39963850  0.36276450  0.32309000  1
  H  H26  1  0.36191050  0.68285850  0.29510000  1
  H  H27  1  0.40858450  0.43384750  0.97516000  1
  H  H28  1  0.29634400  0.76730000  0.21498100  1
  H  H29  1  0.02744200  0.17979000  0.02162200  1
  H  H30  1  0.47255800  0.32021000  0.97837800  1
  H  H31  1  0.20365600  0.73270000  0.78501900  1
  H  H32  1  0.09141550  0.06615250  0.02484000  1
  H  H33  1  0.13808950  0.81714150  0.70490000  1
  H  H34  1  0.10036150  0.13723550  0.67691000  1
  H  H35  1  0.10422900  0.43288300  0.66115700  1
  H  H36  1  0.39577100  0.93288300  0.83884300  1
  H  H37  1  0.39963850  0.63723550  0.82309000  1
  H  H38  1  0.36191050  0.31714150  0.79510000  1
  H  H39  1  0.06109650  0.58509650  0.90416400  1
  H  H40  1  0.29634400  0.23270000  0.71498100  1
  H  H41  1  0.02744200  0.82021000  0.52162200  1
  H  H42  1  0.43414000  0.53757500  0.76389500  1
  H  H43  1  0.41365550  0.89187750  0.73721000  1
  H  H44  1  0.09141550  0.93384750  0.52484000  1
  H  H45  1  0.10647350  0.65901350  0.84386300  1
  H  H46  1  0.02821300  0.86546000  0.80663400  1
  H  H47  1  0.47178700  0.36546000  0.69336600  1
  H  H48  1  0.39352650  0.15901350  0.65613700  1
  H  H49  1  0.08634450  0.39187750  0.76279000  1
  H  H50  1  0.06586000  0.03757500  0.73610500  1
  H  H51  1  0.43890350  0.08509650  0.59583600  1
  H  H52  1  0.56109650  0.91490350  0.40416400  1
  H  H53  1  0.93414000  0.96242500  0.26389500  1
  H  H54  1  0.91365550  0.60812250  0.23721000  1
  H  H55  1  0.60647350  0.84098650  0.34386300  1
  H  H56  1  0.52821300  0.63454000  0.30663400  1
  H  H57  1  0.97178700  0.13454000  0.19336600  1
  H  H58  1  0.89352650  0.34098650  0.15613700  1
  H  H59  1  0.90858450  0.06615250  0.47516000  1
  H  H60  1  0.58634450  0.10812250  0.26279000  1
  H  H61  1  0.56586000  0.46242500  0.23610500  1
  H  H62  1  0.97255800  0.17979000  0.47837800  1
  H  H63  1  0.70365600  0.76730000  0.28501900  1
  H  H64  1  0.93890350  0.41490350  0.09583600  1
  H  H65  1  0.63808950  0.68285850  0.20490000  1
  H  H66  1  0.60036150  0.36276450  0.17691000  1
  H  H67  1  0.60422900  0.06711700  0.16115700  1
  H  H68  1  0.89577100  0.56711700  0.33884300  1
  H  H69  1  0.89963850  0.86276450  0.32309000  1
  H  H70  1  0.86191050  0.18285850  0.29510000  1
  H  H71  1  0.90858450  0.93384750  0.97516000  1
  H  H72  1  0.79634400  0.26730000  0.21498100  1
  H  H73  1  0.52744200  0.67979000  0.02162200  1
  H  H74  1  0.97255800  0.82021000  0.97837800  1
  H  H75  1  0.70365600  0.23270000  0.78501900  1
  H  H76  1  0.59141550  0.56615250  0.02484000  1
  H  H77  1  0.63808950  0.31714150  0.70490000  1
  H  H78  1  0.60036150  0.63723550  0.67691000  1
  H  H79  1  0.60422900  0.93288300  0.66115700  1
  H  H80  1  0.89577100  0.43288300  0.83884300  1
  H  H81  1  0.89963850  0.13723550  0.82309000  1
  H  H82  1  0.86191050  0.81714150  0.79510000  1
  H  H83  1  0.56109650  0.08509650  0.90416400  1
  H  H84  1  0.79634400  0.73270000  0.71498100  1
  H  H85  1  0.52744200  0.32021000  0.52162200  1
  H  H86  1  0.93414000  0.03757500  0.76389500  1
  H  H87  1  0.91365550  0.39187750  0.73721000  1
  H  H88  1  0.59141550  0.43384750  0.52484000  1
  H  H89  1  0.60647350  0.15901350  0.84386300  1
  H  H90  1  0.52821300  0.36546000  0.80663400  1
  H  H91  1  0.97178700  0.86546000  0.69336600  1
  H  H92  1  0.89352650  0.65901350  0.65613700  1
  H  H93  1  0.58634450  0.89187750  0.76279000  1
  H  H94  1  0.56586000  0.53757500  0.73610500  1
  H  H95  1  0.93890350  0.58509650  0.59583600  1
  S  S96  1  0.12806800  0.23240200  0.49391000  1
  S  S97  1  0.10780150  0.71777450  0.47725500  1
  S  S98  1  0.20320500  0.57061000  0.31063900  1
  S  S99  1  0.39219850  0.21777450  0.02274500  1
  S  S100  1  0.37193200  0.73240200  0.00609000  1
  S  S101  1  0.29679500  0.07061000  0.18936100  1
  S  S102  1  0.20320500  0.42939000  0.81063900  1
  S  S103  1  0.12806800  0.76759800  0.99391000  1
  S  S104  1  0.10780150  0.28222550  0.97725500  1
  S  S105  1  0.29679500  0.92939000  0.68936100  1
  S  S106  1  0.39219850  0.78222550  0.52274500  1
  S  S107  1  0.37193200  0.26759800  0.50609000  1
  S  S108  1  0.62806800  0.73240200  0.49391000  1
  S  S109  1  0.60780150  0.21777450  0.47725500  1
  S  S110  1  0.70320500  0.07061000  0.31063900  1
  S  S111  1  0.89219850  0.71777450  0.02274500  1
  S  S112  1  0.87193200  0.23240200  0.00609000  1
  S  S113  1  0.79679500  0.57061000  0.18936100  1
  S  S114  1  0.70320500  0.92939000  0.81063900  1
  S  S115  1  0.62806800  0.26759800  0.99391000  1
  S  S116  1  0.60780150  0.78222550  0.97725500  1
  S  S117  1  0.79679500  0.42939000  0.68936100  1
  S  S118  1  0.89219850  0.28222550  0.52274500  1
  S  S119  1  0.87193200  0.76759800  0.50609000  1
  N  N120  1  0.38305800  0.04726300  0.26233200  1
  N  N121  1  0.07782800  0.32045500  0.38608900  1
  N  N122  1  0.41857350  0.66648550  0.45653800  1
  N  N123  1  0.42217200  0.82045500  0.11391100  1
  N  N124  1  0.11694200  0.54726300  0.23766800  1
  N  N125  1  0.41857350  0.33351450  0.95653800  1
  N  N126  1  0.08142650  0.16648550  0.04346200  1
  N  N127  1  0.38305800  0.95273700  0.76233200  1
  N  N128  1  0.07782800  0.67954500  0.88608900  1
  N  N129  1  0.08142650  0.83351450  0.54346200  1
  N  N130  1  0.42217200  0.17954500  0.61391100  1
  N  N131  1  0.11694200  0.45273700  0.73766800  1
  N  N132  1  0.88305800  0.54726300  0.26233200  1
  N  N133  1  0.57782800  0.82045500  0.38608900  1
  N  N134  1  0.91857350  0.16648550  0.45653800  1
  N  N135  1  0.92217200  0.32045500  0.11391100  1
  N  N136  1  0.61694200  0.04726300  0.23766800  1
  N  N137  1  0.91857350  0.83351450  0.95653800  1
  N  N138  1  0.58142650  0.66648550  0.04346200  1
  N  N139  1  0.88305800  0.45273700  0.76233200  1
  N  N140  1  0.57782800  0.17954500  0.88608900  1
  N  N141  1  0.58142650  0.33351450  0.54346200  1
  N  N142  1  0.92217200  0.67954500  0.61391100  1
  N  N143  1  0.61694200  0.95273700  0.73766800  1
  O  O144  1  0.14149250  0.09541550  0.45548600  1
  O  O145  1  0.16346900  0.79492000  0.45965100  1
  O  O146  1  0.04637450  0.67335850  0.38336400  1
  O  O147  1  0.38952400  0.41872500  0.26008000  1
  O  O148  1  0.21313000  0.51780000  0.41261400  1
  O  O149  1  0.00000000  0.06848800  0.25000000  1
  O  O150  1  0.30482300  0.19218700  0.44312100  1
  O  O151  1  0.36001300  0.90243400  0.45051300  1
  O  O152  1  0.41821100  0.28164700  0.45242400  1
  O  O153  1  0.22497700  0.72006500  0.31357800  1
  O  O154  1  0.16784850  0.19607450  0.28024400  1
  O  O155  1  0.11047600  0.91872500  0.23992000  1
  O  O156  1  0.45362550  0.17335850  0.11663600  1
  O  O157  1  0.33653100  0.29492000  0.04034900  1
  O  O158  1  0.35850750  0.59541550  0.04451400  1
  O  O159  1  0.23855500  0.47994500  0.26263400  1
  O  O160  1  0.21313000  0.48220000  0.91261400  1
  O  O161  1  0.26144500  0.97994500  0.23736600  1
  O  O162  1  0.30482300  0.80781300  0.94312100  1
  O  O163  1  0.36001300  0.09756600  0.95051300  1
  O  O164  1  0.33215150  0.69607450  0.21975600  1
  O  O165  1  0.27502300  0.22006500  0.18642200  1
  O  O166  1  0.41821100  0.71835300  0.95242400  1
  O  O167  1  0.08178900  0.78164700  0.04757600  1
  O  O168  1  0.22497700  0.27993500  0.81357800  1
  O  O169  1  0.16784850  0.80392550  0.78024400  1
  O  O170  1  0.13998700  0.40243400  0.04948700  1
  O  O171  1  0.19517700  0.69218700  0.05687900  1
  O  O172  1  0.23855500  0.52005500  0.76263400  1
  O  O173  1  0.28687000  0.01780000  0.08738600  1
  O  O174  1  0.26144500  0.02005500  0.73736600  1
  O  O175  1  0.14149250  0.90458450  0.95548600  1
  O  O176  1  0.16346900  0.20508000  0.95965100  1
  O  O177  1  0.04637450  0.32664150  0.88336400  1
  O  O178  1  0.38952400  0.58127500  0.76008000  1
  O  O179  1  0.33215150  0.30392550  0.71975600  1
  O  O180  1  0.27502300  0.77993500  0.68642200  1
  O  O181  1  0.08178900  0.21835300  0.54757600  1
  O  O182  1  0.13998700  0.59756600  0.54948700  1
  O  O183  1  0.19517700  0.30781300  0.55687900  1
  O  O184  1  0.00000000  0.93151200  0.75000000  1
  O  O185  1  0.28687000  0.98220000  0.58738600  1
  O  O186  1  0.11047600  0.08127500  0.73992000  1
  O  O187  1  0.45362550  0.82664150  0.61663600  1
  O  O188  1  0.33653100  0.70508000  0.54034900  1
  O  O189  1  0.35850750  0.40458450  0.54451400  1
  O  O190  1  0.64149250  0.59541550  0.45548600  1
  O  O191  1  0.66346900  0.29492000  0.45965100  1
  O  O192  1  0.54637450  0.17335850  0.38336400  1
  O  O193  1  0.88952400  0.91872500  0.26008000  1
  O  O194  1  0.71313000  0.01780000  0.41261400  1
  O  O195  1  0.50000000  0.56848800  0.25000000  1
  O  O196  1  0.80482300  0.69218700  0.44312100  1
  O  O197  1  0.86001300  0.40243400  0.45051300  1
  O  O198  1  0.91821100  0.78164700  0.45242400  1
  O  O199  1  0.72497700  0.22006500  0.31357800  1
  O  O200  1  0.66784850  0.69607450  0.28024400  1
  O  O201  1  0.61047600  0.41872500  0.23992000  1
  O  O202  1  0.95362550  0.67335850  0.11663600  1
  O  O203  1  0.83653100  0.79492000  0.04034900  1
  O  O204  1  0.85850750  0.09541550  0.04451400  1
  O  O205  1  0.73855500  0.97994500  0.26263400  1
  O  O206  1  0.71313000  0.98220000  0.91261400  1
  O  O207  1  0.76144500  0.47994500  0.23736600  1
  O  O208  1  0.80482300  0.30781300  0.94312100  1
  O  O209  1  0.86001300  0.59756600  0.95051300  1
  O  O210  1  0.83215150  0.19607450  0.21975600  1
  O  O211  1  0.77502300  0.72006500  0.18642200  1
  O  O212  1  0.91821100  0.21835300  0.95242400  1
  O  O213  1  0.58178900  0.28164700  0.04757600  1
  O  O214  1  0.72497700  0.77993500  0.81357800  1
  O  O215  1  0.66784850  0.30392550  0.78024400  1
  O  O216  1  0.63998700  0.90243400  0.04948700  1
  O  O217  1  0.69517700  0.19218700  0.05687900  1
  O  O218  1  0.73855500  0.02005500  0.76263400  1
  O  O219  1  0.78687000  0.51780000  0.08738600  1
  O  O220  1  0.76144500  0.52005500  0.73736600  1
  O  O221  1  0.64149250  0.40458450  0.95548600  1
  O  O222  1  0.66346900  0.70508000  0.95965100  1
  O  O223  1  0.54637450  0.82664150  0.88336400  1
  O  O224  1  0.88952400  0.08127500  0.76008000  1
  O  O225  1  0.83215150  0.80392550  0.71975600  1
  O  O226  1  0.77502300  0.27993500  0.68642200  1
  O  O227  1  0.58178900  0.71835300  0.54757600  1
  O  O228  1  0.63998700  0.09756600  0.54948700  1
  O  O229  1  0.69517700  0.80781300  0.55687900  1
  O  O230  1  0.50000000  0.43151200  0.75000000  1
  O  O231  1  0.78687000  0.48220000  0.58738600  1
  O  O232  1  0.61047600  0.58127500  0.73992000  1
  O  O233  1  0.95362550  0.32664150  0.61663600  1
  O  O234  1  0.83653100  0.20508000  0.54034900  1
  O  O235  1  0.85850750  0.90458450  0.54451400  1
