# generated using pymatgen
data_Ba4In2O7
_symmetry_space_group_name_H-M   'P 1'
_cell_length_a   6.02922000
_cell_length_b   29.09709600
_cell_length_c   6.04465500
_cell_angle_alpha   90.00000000
_cell_angle_beta   90.00000000
_cell_angle_gamma   90.00000000
_symmetry_Int_Tables_number   1
_chemical_formula_structural   Ba4In2O7
_chemical_formula_sum   'Ba16 In8 O28'
_cell_volume   1060.43071025
_cell_formula_units_Z   4
loop_
 _symmetry_equiv_pos_site_id
 _symmetry_equiv_pos_as_xyz
  1  'x, y, z'
loop_
 _atom_site_type_symbol
 _atom_site_label
 _atom_site_symmetry_multiplicity
 _atom_site_fract_x
 _atom_site_fract_y
 _atom_site_fract_z
 _atom_site_occupancy
  Ba  Ba0  1  0.50000000  0.67960400  0.75000000  1
  Ba  Ba1  1  0.50000000  0.55051700  0.75000000  1
  Ba  Ba2  1  0.00000000  0.82039600  0.25000000  1
  Ba  Ba3  1  0.00000000  0.94948300  0.25000000  1
  Ba  Ba4  1  0.50000000  0.81932200  0.75000000  1
  Ba  Ba5  1  0.50000000  0.95243000  0.75000000  1
  Ba  Ba6  1  0.00000000  0.54757000  0.25000000  1
  Ba  Ba7  1  0.00000000  0.68067800  0.25000000  1
  Ba  Ba8  1  0.00000000  0.17960400  0.75000000  1
  Ba  Ba9  1  0.00000000  0.05051700  0.75000000  1
  Ba  Ba10  1  0.50000000  0.32039600  0.25000000  1
  Ba  Ba11  1  0.50000000  0.44948300  0.25000000  1
  Ba  Ba12  1  0.00000000  0.31932200  0.75000000  1
  Ba  Ba13  1  0.00000000  0.45243000  0.75000000  1
  Ba  Ba14  1  0.50000000  0.04757000  0.25000000  1
  Ba  Ba15  1  0.50000000  0.18067800  0.25000000  1
  In  In16  1  0.00000000  0.89205700  0.75000000  1
  In  In17  1  0.00000000  0.62011700  0.75000000  1
  In  In18  1  0.50000000  0.60794300  0.25000000  1
  In  In19  1  0.50000000  0.87988300  0.25000000  1
  In  In20  1  0.50000000  0.39205700  0.75000000  1
  In  In21  1  0.50000000  0.12011700  0.75000000  1
  In  In22  1  0.00000000  0.10794300  0.25000000  1
  In  In23  1  0.00000000  0.37988300  0.25000000  1
  O  O24  1  0.75836500  0.87423400  0.50799600  1
  O  O25  1  0.00000000  0.96391800  0.75000000  1
  O  O26  1  0.75836500  0.87423400  0.99200400  1
  O  O27  1  0.50000000  0.53608200  0.25000000  1
  O  O28  1  0.24163500  0.87423400  0.50799600  1
  O  O29  1  0.00000000  0.54326900  0.75000000  1
  O  O30  1  0.74163500  0.62576600  0.49200400  1
  O  O31  1  0.00000000  0.69721800  0.75000000  1
  O  O32  1  0.24163500  0.87423400  0.99200400  1
  O  O33  1  0.74163500  0.62576600  0.00799600  1
  O  O34  1  0.25836500  0.62576600  0.49200400  1
  O  O35  1  0.50000000  0.95673100  0.25000000  1
  O  O36  1  0.50000000  0.80278200  0.25000000  1
  O  O37  1  0.25836500  0.62576600  0.00799600  1
  O  O38  1  0.25836500  0.37423400  0.50799600  1
  O  O39  1  0.50000000  0.46391800  0.75000000  1
  O  O40  1  0.25836500  0.37423400  0.99200400  1
  O  O41  1  0.00000000  0.03608200  0.25000000  1
  O  O42  1  0.74163500  0.37423400  0.50799600  1
  O  O43  1  0.50000000  0.04326900  0.75000000  1
  O  O44  1  0.24163500  0.12576600  0.49200400  1
  O  O45  1  0.50000000  0.19721800  0.75000000  1
  O  O46  1  0.74163500  0.37423400  0.99200400  1
  O  O47  1  0.24163500  0.12576600  0.00799600  1
  O  O48  1  0.75836500  0.12576600  0.49200400  1
  O  O49  1  0.00000000  0.45673100  0.25000000  1
  O  O50  1  0.00000000  0.30278200  0.25000000  1
  O  O51  1  0.75836500  0.12576600  0.00799600  1
