# generated using pymatgen
data_Li5V2Ni3O10
_symmetry_space_group_name_H-M   'P 1'
_cell_length_a   5.10197956
_cell_length_b   7.77124706
_cell_length_c   10.22098245
_cell_angle_alpha   71.18571061
_cell_angle_beta   79.54391506
_cell_angle_gamma   71.59519918
_symmetry_Int_Tables_number   1
_chemical_formula_structural   Li5V2Ni3O10
_chemical_formula_sum   'Li10 V4 Ni6 O20'
_cell_volume   362.54068725
_cell_formula_units_Z   2
loop_
 _symmetry_equiv_pos_site_id
 _symmetry_equiv_pos_as_xyz
  1  'x, y, z'
loop_
 _atom_site_type_symbol
 _atom_site_label
 _atom_site_symmetry_multiplicity
 _atom_site_fract_x
 _atom_site_fract_y
 _atom_site_fract_z
 _atom_site_occupancy
  Li  Li0  1  0.00082200  0.00170000  0.24804350  1
  Li  Li1  1  0.99917800  0.99830000  0.75195650  1
  Li  Li2  1  0.28665500  0.89966100  0.50064550  1
  Li  Li3  1  0.28859600  0.89667600  0.99971450  1
  Li  Li4  1  0.71140400  0.10332400  0.00028550  1
  Li  Li5  1  0.71334500  0.10033900  0.49935450  1
  Li  Li6  1  0.10415400  0.29355900  0.00504250  1
  Li  Li7  1  0.08833400  0.30429900  0.50216650  1
  Li  Li8  1  0.91166600  0.69570100  0.49783350  1
  Li  Li9  1  0.89584600  0.70644100  0.99495750  1
  V  V10  1  0.39992500  0.19089500  0.25907950  1
  V  V11  1  0.39658500  0.19774500  0.75682250  1
  V  V12  1  0.60341500  0.80225500  0.24317750  1
  V  V13  1  0.60007500  0.80910500  0.74092050  1
  Ni  Ni14  1  0.50000000  0.50000000  0.50000000  1
  Ni  Ni15  1  0.80337700  0.39969900  0.24758650  1
  Ni  Ni16  1  0.19662300  0.60030100  0.75241350  1
  Ni  Ni17  1  0.50000000  0.50000000  0.00000000  1
  Ni  Ni18  1  0.80412800  0.39881800  0.74857050  1
  Ni  Ni19  1  0.19587200  0.60118200  0.25142950  1
  O  O20  1  0.45148600  0.34707900  0.86944250  1
  O  O21  1  0.45011300  0.33941200  0.36793550  1
  O  O22  1  0.54988700  0.66058800  0.63206450  1
  O  O23  1  0.54851400  0.65292100  0.13055750  1
  O  O24  1  0.17312300  0.42803400  0.13515950  1
  O  O25  1  0.16507700  0.43850300  0.63117450  1
  O  O26  1  0.83492300  0.56149700  0.36882550  1
  O  O27  1  0.82687700  0.57196600  0.86484050  1
  O  O28  1  0.36370500  0.04997900  0.14085650  1
  O  O29  1  0.37097100  0.03241600  0.63950250  1
  O  O30  1  0.62902900  0.96758400  0.36049750  1
  O  O31  1  0.63629500  0.95002100  0.85914350  1
  O  O32  1  0.28161500  0.74827300  0.36849350  1
  O  O33  1  0.28244300  0.74699500  0.86711050  1
  O  O34  1  0.71755700  0.25300500  0.13288950  1
  O  O35  1  0.71838500  0.25172700  0.63150650  1
  O  O36  1  0.07873900  0.15822200  0.36567850  1
  O  O37  1  0.07806900  0.15730000  0.86508550  1
  O  O38  1  0.92193100  0.84270000  0.13491450  1
  O  O39  1  0.92126100  0.84177800  0.63432150  1
