# generated using pymatgen
data_Li4TiV5O12
_symmetry_space_group_name_H-M   'P 1'
_cell_length_a   5.20933200
_cell_length_b   8.88361200
_cell_length_c   10.24840431
_cell_angle_alpha   90.00000000
_cell_angle_beta   91.17863116
_cell_angle_gamma   90.00000000
_symmetry_Int_Tables_number   1
_chemical_formula_structural   Li4TiV5O12
_chemical_formula_sum   'Li8 Ti2 V10 O24'
_cell_volume   474.17207454
_cell_formula_units_Z   2
loop_
 _symmetry_equiv_pos_site_id
 _symmetry_equiv_pos_as_xyz
  1  'x, y, z'
loop_
 _atom_site_type_symbol
 _atom_site_label
 _atom_site_symmetry_multiplicity
 _atom_site_fract_x
 _atom_site_fract_y
 _atom_site_fract_z
 _atom_site_occupancy
  Li  Li0  1  0.39302400  0.74733300  0.24957300  1
  Li  Li1  1  0.60697600  0.74733300  0.75042700  1
  Li  Li2  1  0.39302400  0.25266700  0.24957300  1
  Li  Li3  1  0.60697600  0.25266700  0.75042700  1
  Li  Li4  1  0.89302400  0.24733300  0.24957300  1
  Li  Li5  1  0.10697600  0.24733300  0.75042700  1
  Li  Li6  1  0.89302400  0.75266700  0.24957300  1
  Li  Li7  1  0.10697600  0.75266700  0.75042700  1
  Ti  Ti8  1  0.00000000  0.00000000  0.00000000  1
  Ti  Ti9  1  0.50000000  0.50000000  0.00000000  1
  V  V10  1  0.50000000  0.00000000  0.50000000  1
  V  V11  1  0.50000000  0.65728800  0.50000000  1
  V  V12  1  0.50000000  0.83775600  0.00000000  1
  V  V13  1  0.50000000  0.16224400  0.00000000  1
  V  V14  1  0.50000000  0.34271200  0.50000000  1
  V  V15  1  0.00000000  0.50000000  0.50000000  1
  V  V16  1  0.00000000  0.15728800  0.50000000  1
  V  V17  1  0.00000000  0.33775600  0.00000000  1
  V  V18  1  0.00000000  0.66224400  0.00000000  1
  V  V19  1  0.00000000  0.84271200  0.50000000  1
  O  O20  1  0.34259900  0.66810200  0.89324600  1
  O  O21  1  0.65740100  0.66810200  0.10675400  1
  O  O22  1  0.33578700  0.82651600  0.60610200  1
  O  O23  1  0.66421300  0.82651600  0.39389800  1
  O  O24  1  0.16805400  0.00000000  0.39571500  1
  O  O25  1  0.31905400  0.00000000  0.89908900  1
  O  O26  1  0.68094600  0.00000000  0.10091100  1
  O  O27  1  0.83194600  0.00000000  0.60428500  1
  O  O28  1  0.33578700  0.17348400  0.60610200  1
  O  O29  1  0.66421300  0.17348400  0.39389800  1
  O  O30  1  0.34259900  0.33189800  0.89324600  1
  O  O31  1  0.65740100  0.33189800  0.10675400  1
  O  O32  1  0.84259900  0.16810200  0.89324600  1
  O  O33  1  0.15740100  0.16810200  0.10675400  1
  O  O34  1  0.83578700  0.32651600  0.60610200  1
  O  O35  1  0.16421300  0.32651600  0.39389800  1
  O  O36  1  0.66805400  0.50000000  0.39571500  1
  O  O37  1  0.81905400  0.50000000  0.89908900  1
  O  O38  1  0.18094600  0.50000000  0.10091100  1
  O  O39  1  0.33194600  0.50000000  0.60428500  1
  O  O40  1  0.83578700  0.67348400  0.60610200  1
  O  O41  1  0.16421300  0.67348400  0.39389800  1
  O  O42  1  0.84259900  0.83189800  0.89324600  1
  O  O43  1  0.15740100  0.83189800  0.10675400  1
