# generated using pymatgen
data_Zr2N2O
_symmetry_space_group_name_H-M   'P 1'
_cell_length_a   9.70850400
_cell_length_b   5.53044000
_cell_length_c   10.44656563
_cell_angle_alpha   90.00000000
_cell_angle_beta   108.62572269
_cell_angle_gamma   90.00000000
_symmetry_Int_Tables_number   1
_chemical_formula_structural   Zr2N2O
_chemical_formula_sum   'Zr16 N16 O8'
_cell_volume   531.52304674
_cell_formula_units_Z   8
loop_
 _symmetry_equiv_pos_site_id
 _symmetry_equiv_pos_as_xyz
  1  'x, y, z'
loop_
 _atom_site_type_symbol
 _atom_site_label
 _atom_site_symmetry_multiplicity
 _atom_site_fract_x
 _atom_site_fract_y
 _atom_site_fract_z
 _atom_site_occupancy
  Zr  Zr0  1  0.20076800  0.63401600  0.08821100  1
  Zr  Zr1  1  0.29078750  0.63442750  0.41287000  1
  Zr  Zr2  1  0.43912750  0.64318050  0.83831400  1
  Zr  Zr3  1  0.56087250  0.64318050  0.16168600  1
  Zr  Zr4  1  0.70921250  0.63442750  0.58713000  1
  Zr  Zr5  1  0.55773350  0.12933950  0.66226300  1
  Zr  Zr6  1  0.44226650  0.12933950  0.33773700  1
  Zr  Zr7  1  0.79923200  0.63401600  0.91178900  1
  Zr  Zr8  1  0.70076800  0.13401600  0.08821100  1
  Zr  Zr9  1  0.79078750  0.13442750  0.41287000  1
  Zr  Zr10  1  0.93912750  0.14318050  0.83831400  1
  Zr  Zr11  1  0.06087250  0.14318050  0.16168600  1
  Zr  Zr12  1  0.20921250  0.13442750  0.58713000  1
  Zr  Zr13  1  0.05773350  0.62933950  0.66226300  1
  Zr  Zr14  1  0.94226650  0.62933950  0.33773700  1
  Zr  Zr15  1  0.29923200  0.13401600  0.91178900  1
  N  N16  1  0.84897400  0.26529200  0.99452000  1
  N  N17  1  0.25303500  0.91626600  0.24910100  1
  N  N18  1  0.35247300  0.27262700  0.49726500  1
  N  N19  1  0.64752700  0.27262700  0.50273500  1
  N  N20  1  0.60379400  0.97309600  0.25646000  1
  N  N21  1  0.74696500  0.91626600  0.75089900  1
  N  N22  1  0.15102600  0.26529200  0.00548000  1
  N  N23  1  0.39620600  0.97309600  0.74354000  1
  N  N24  1  0.34897400  0.76529200  0.99452000  1
  N  N25  1  0.75303500  0.41626600  0.24910100  1
  N  N26  1  0.85247300  0.77262700  0.49726500  1
  N  N27  1  0.14752700  0.77262700  0.50273500  1
  N  N28  1  0.10379400  0.47309600  0.25646000  1
  N  N29  1  0.24696500  0.41626600  0.75089900  1
  N  N30  1  0.65102600  0.76529200  0.00548000  1
  N  N31  1  0.89620600  0.47309600  0.74354000  1
  O  O32  1  0.59742400  0.46796200  0.75765400  1
  O  O33  1  0.00000000  0.80945000  0.00000000  1
  O  O34  1  0.40257600  0.46796200  0.24234600  1
  O  O35  1  0.50000000  0.81813800  0.50000000  1
  O  O36  1  0.09742400  0.96796200  0.75765400  1
  O  O37  1  0.50000000  0.30945000  0.00000000  1
  O  O38  1  0.90257600  0.96796200  0.24234600  1
  O  O39  1  0.00000000  0.31813800  0.50000000  1
