# generated using pymatgen
data_Li2Cr3FeO8
_symmetry_space_group_name_H-M   'P 1'
_cell_length_a   5.87955975
_cell_length_b   10.17657347
_cell_length_c   9.53501021
_cell_angle_alpha   90.00000000
_cell_angle_beta   90.83350635
_cell_angle_gamma   90.00000000
_symmetry_Int_Tables_number   1
_chemical_formula_structural   Li2Cr3FeO8
_chemical_formula_sum   'Li8 Cr12 Fe4 O32'
_cell_volume   570.45525732
_cell_formula_units_Z   4
loop_
 _symmetry_equiv_pos_site_id
 _symmetry_equiv_pos_as_xyz
  1  'x, y, z'
loop_
 _atom_site_type_symbol
 _atom_site_label
 _atom_site_symmetry_multiplicity
 _atom_site_fract_x
 _atom_site_fract_y
 _atom_site_fract_z
 _atom_site_occupancy
  Li  Li0  1  0.49764800  0.83408700  0.89501500  1
  Li  Li1  1  0.49988000  0.49978000  0.99715400  1
  Li  Li2  1  0.49988000  0.50022000  0.49715400  1
  Li  Li3  1  0.49764800  0.16591300  0.39501500  1
  Li  Li4  1  0.99764800  0.33408700  0.89501500  1
  Li  Li5  1  0.99988000  0.99978000  0.99715400  1
  Li  Li6  1  0.99988000  0.00022000  0.49715400  1
  Li  Li7  1  0.99764800  0.66591300  0.39501500  1
  Cr  Cr8  1  0.25256500  0.91550500  0.21245400  1
  Cr  Cr9  1  0.74501800  0.91491800  0.21506800  1
  Cr  Cr10  1  0.49929250  0.66879050  0.21246000  1
  Cr  Cr11  1  0.49929250  0.33120950  0.71246000  1
  Cr  Cr12  1  0.25256500  0.08449500  0.71245400  1
  Cr  Cr13  1  0.74501800  0.08508200  0.71506800  1
  Cr  Cr14  1  0.75256500  0.41550500  0.21245400  1
  Cr  Cr15  1  0.24501800  0.41491800  0.21506800  1
  Cr  Cr16  1  0.99929250  0.16879050  0.21246000  1
  Cr  Cr17  1  0.99929250  0.83120950  0.71246000  1
  Cr  Cr18  1  0.75256500  0.58449500  0.71245400  1
  Cr  Cr19  1  0.24501800  0.58508200  0.71506800  1
  Fe  Fe20  1  0.50347700  0.83173900  0.48836900  1
  Fe  Fe21  1  0.50347700  0.16826100  0.98836900  1
  Fe  Fe22  1  0.00347700  0.33173900  0.48836900  1
  Fe  Fe23  1  0.00347700  0.66826100  0.98836900  1
  O  O24  1  0.24350250  0.91808150  0.60652000  1
  O  O25  1  0.49274400  0.97985300  0.33571400  1
  O  O26  1  0.49578050  0.83260350  0.10345200  1
  O  O27  1  0.00373150  0.00062650  0.31260400  1
  O  O28  1  0.00373150  0.99937350  0.81260400  1
  O  O29  1  0.76177750  0.91373050  0.60340300  1
  O  O30  1  0.27833550  0.75864050  0.33207900  1
  O  O31  1  0.71691550  0.75509550  0.33512500  1
  O  O32  1  0.50917950  0.33771450  0.10450200  1
  O  O33  1  0.50917950  0.66228550  0.60450200  1
  O  O34  1  0.27833550  0.24135950  0.83207900  1
  O  O35  1  0.71691550  0.24490450  0.83512500  1
  O  O36  1  0.49578050  0.16739650  0.60345200  1
  O  O37  1  0.24350250  0.08191850  0.10652000  1
  O  O38  1  0.49274400  0.02014700  0.83571400  1
  O  O39  1  0.76177750  0.08626950  0.10340300  1
  O  O40  1  0.74350250  0.41808150  0.60652000  1
  O  O41  1  0.99274400  0.47985300  0.33571400  1
  O  O42  1  0.99578050  0.33260350  0.10345200  1
  O  O43  1  0.50373150  0.50062650  0.31260400  1
  O  O44  1  0.50373150  0.49937350  0.81260400  1
  O  O45  1  0.26177750  0.41373050  0.60340300  1
  O  O46  1  0.77833550  0.25864050  0.33207900  1
  O  O47  1  0.21691550  0.25509550  0.33512500  1
  O  O48  1  0.00917950  0.83771450  0.10450200  1
  O  O49  1  0.00917950  0.16228550  0.60450200  1
  O  O50  1  0.77833550  0.74135950  0.83207900  1
  O  O51  1  0.21691550  0.74490450  0.83512500  1
  O  O52  1  0.99578050  0.66739650  0.60345200  1
  O  O53  1  0.74350250  0.58191850  0.10652000  1
  O  O54  1  0.99274400  0.52014700  0.83571400  1
  O  O55  1  0.26177750  0.58626950  0.10340300  1
