# generated using pymatgen
data_Mn3(PO4)2
_symmetry_space_group_name_H-M   'P 1'
_cell_length_a   6.25483401
_cell_length_b   4.95130307
_cell_length_c   10.71851213
_cell_angle_alpha   90.00000000
_cell_angle_beta   90.33437953
_cell_angle_gamma   90.00000000
_symmetry_Int_Tables_number   1
_chemical_formula_structural   Mn3(PO4)2
_chemical_formula_sum   'Mn6 P4 O16'
_cell_volume   331.94215363
_cell_formula_units_Z   2
loop_
 _symmetry_equiv_pos_site_id
 _symmetry_equiv_pos_as_xyz
  1  'x, y, z'
loop_
 _atom_site_type_symbol
 _atom_site_label
 _atom_site_symmetry_multiplicity
 _atom_site_fract_x
 _atom_site_fract_y
 _atom_site_fract_z
 _atom_site_occupancy
  Mn  Mn0  1  0.50000000  0.50000000  0.00000000  1
  Mn  Mn1  1  0.76505250  0.51167900  0.71752350  1
  Mn  Mn2  1  0.23494750  0.48832100  0.28247650  1
  Mn  Mn3  1  0.50000000  0.00000000  0.50000000  1
  Mn  Mn4  1  0.76505250  0.98832100  0.21752350  1
  Mn  Mn5  1  0.23494750  0.01167900  0.78247650  1
  P  P6  1  0.73850050  0.43148900  0.39888750  1
  P  P7  1  0.73850050  0.06851100  0.89888750  1
  P  P8  1  0.26149950  0.93148900  0.10111250  1
  P  P9  1  0.26149950  0.56851100  0.60111250  1
  O  O10  1  0.92686950  0.32549700  0.31913050  1
  O  O11  1  0.92686950  0.17450300  0.81913050  1
  O  O12  1  0.07313050  0.82549700  0.18086950  1
  O  O13  1  0.07313050  0.67450300  0.68086950  1
  O  O14  1  0.74690550  0.17598800  0.03509550  1
  O  O15  1  0.74690550  0.32401200  0.53509550  1
  O  O16  1  0.25309450  0.67598800  0.46490450  1
  O  O17  1  0.25309450  0.82401200  0.96490450  1
  O  O18  1  0.71987150  0.74209000  0.39241850  1
  O  O19  1  0.71987150  0.75791000  0.89241850  1
  O  O20  1  0.28012850  0.24209000  0.10758150  1
  O  O21  1  0.28012850  0.25791000  0.60758150  1
  O  O22  1  0.53602250  0.28298100  0.33914950  1
  O  O23  1  0.53602250  0.21701900  0.83914950  1
  O  O24  1  0.46397750  0.78298100  0.16085050  1
  O  O25  1  0.46397750  0.71701900  0.66085050  1
