# generated using pymatgen
data_BaCaI4
_symmetry_space_group_name_H-M   'P 1'
_cell_length_a   15.95201400
_cell_length_b   14.31156200
_cell_length_c   13.31726435
_cell_angle_alpha   90.00000000
_cell_angle_beta   115.62518172
_cell_angle_gamma   90.00000000
_symmetry_Int_Tables_number   1
_chemical_formula_structural   BaCaI4
_chemical_formula_sum   'Ba8 Ca8 I32'
_cell_volume   2741.27099517
_cell_formula_units_Z   8
loop_
 _symmetry_equiv_pos_site_id
 _symmetry_equiv_pos_as_xyz
  1  'x, y, z'
loop_
 _atom_site_type_symbol
 _atom_site_label
 _atom_site_symmetry_multiplicity
 _atom_site_fract_x
 _atom_site_fract_y
 _atom_site_fract_z
 _atom_site_occupancy
  Ba  Ba0  1  0.20011900  0.50000000  0.85456300  1
  Ba  Ba1  1  0.00000000  0.29926900  0.50000000  1
  Ba  Ba2  1  0.00000000  0.70073100  0.50000000  1
  Ba  Ba3  1  0.79988100  0.50000000  0.14543700  1
  Ba  Ba4  1  0.70011900  0.00000000  0.85456300  1
  Ba  Ba5  1  0.50000000  0.79926900  0.50000000  1
  Ba  Ba6  1  0.50000000  0.20073100  0.50000000  1
  Ba  Ba7  1  0.29988100  0.00000000  0.14543700  1
  Ca  Ca8  1  0.18250100  0.50000000  0.34113700  1
  Ca  Ca9  1  0.00000000  0.31841100  0.00000000  1
  Ca  Ca10  1  0.00000000  0.68158900  0.00000000  1
  Ca  Ca11  1  0.81749900  0.50000000  0.65886300  1
  Ca  Ca12  1  0.68250100  0.00000000  0.34113700  1
  Ca  Ca13  1  0.50000000  0.81841100  0.00000000  1
  Ca  Ca14  1  0.50000000  0.18158900  0.00000000  1
  Ca  Ca15  1  0.31749900  0.00000000  0.65886300  1
  I  I16  1  0.31998950  0.65647750  0.41167800  1
  I  I17  1  0.31998950  0.34352250  0.41167800  1
  I  I18  1  0.15694600  0.81883100  0.07645100  1
  I  I19  1  0.15694600  0.18116900  0.07645100  1
  I  I20  1  0.14304500  0.50000000  0.08107800  1
  I  I21  1  0.15272400  0.50000000  0.56870900  1
  I  I22  1  0.00634850  0.64757750  0.24402000  1
  I  I23  1  0.00634850  0.35242250  0.24402000  1
  I  I24  1  0.99365150  0.35242250  0.75598000  1
  I  I25  1  0.99365150  0.64757750  0.75598000  1
  I  I26  1  0.84727600  0.50000000  0.43129100  1
  I  I27  1  0.85695500  0.50000000  0.91892200  1
  I  I28  1  0.84305400  0.18116900  0.92354900  1
  I  I29  1  0.84305400  0.81883100  0.92354900  1
  I  I30  1  0.68001050  0.34352250  0.58832200  1
  I  I31  1  0.68001050  0.65647750  0.58832200  1
  I  I32  1  0.81998950  0.15647750  0.41167800  1
  I  I33  1  0.81998950  0.84352250  0.41167800  1
  I  I34  1  0.65694600  0.31883100  0.07645100  1
  I  I35  1  0.65694600  0.68116900  0.07645100  1
  I  I36  1  0.64304500  0.00000000  0.08107800  1
  I  I37  1  0.65272400  0.00000000  0.56870900  1
  I  I38  1  0.50634850  0.14757750  0.24402000  1
  I  I39  1  0.50634850  0.85242250  0.24402000  1
  I  I40  1  0.49365150  0.85242250  0.75598000  1
  I  I41  1  0.49365150  0.14757750  0.75598000  1
  I  I42  1  0.34727600  0.00000000  0.43129100  1
  I  I43  1  0.35695500  0.00000000  0.91892200  1
  I  I44  1  0.34305400  0.68116900  0.92354900  1
  I  I45  1  0.34305400  0.31883100  0.92354900  1
  I  I46  1  0.18001050  0.84352250  0.58832200  1
  I  I47  1  0.18001050  0.15647750  0.58832200  1
