# generated using pymatgen
data_NaTi2(PO4)3
_symmetry_space_group_name_H-M   'P 1'
_cell_length_a   8.58597100
_cell_length_b   8.58785058
_cell_length_c   8.97482040
_cell_angle_alpha   61.64191447
_cell_angle_beta   61.75993560
_cell_angle_gamma   60.31661215
_symmetry_Int_Tables_number   1
_chemical_formula_structural   NaTi2(PO4)3
_chemical_formula_sum   'Na2 Ti4 P6 O24'
_cell_volume   480.79734769
_cell_formula_units_Z   2
loop_
 _symmetry_equiv_pos_site_id
 _symmetry_equiv_pos_as_xyz
  1  'x, y, z'
loop_
 _atom_site_type_symbol
 _atom_site_label
 _atom_site_symmetry_multiplicity
 _atom_site_fract_x
 _atom_site_fract_y
 _atom_site_fract_z
 _atom_site_occupancy
  Na  Na0  1  0.75080200  0.08501300  0.83252800  1
  Na  Na1  1  0.24919800  0.91498700  0.16747200  1
  Ti  Ti2  1  0.15040300  0.14311600  0.56820700  1
  Ti  Ti3  1  0.65377700  0.63536400  0.06234800  1
  Ti  Ti4  1  0.34622300  0.36463600  0.93765200  1
  Ti  Ti5  1  0.84959700  0.85688400  0.43179300  1
  P  P6  1  0.96596700  0.24951400  0.25329900  1
  P  P7  1  0.46540500  0.03161300  0.75071000  1
  P  P8  1  0.75280900  0.46710500  0.74906600  1
  P  P9  1  0.24719100  0.53289500  0.25093400  1
  P  P10  1  0.53459500  0.96838700  0.24929000  1
  P  P11  1  0.03403300  0.75048600  0.74670100  1
  O  O12  1  0.51471100  0.15204500  0.08970700  1
  O  O13  1  0.15469500  0.23991400  0.09691600  1
  O  O14  1  0.91650900  0.08684500  0.27696200  1
  O  O15  1  0.99164600  0.21694500  0.42464800  1
  O  O16  1  0.24264900  0.50794600  0.09332500  1
  O  O17  1  0.91022500  0.27946000  0.72257500  1
  O  O18  1  0.63284500  0.00245400  0.58123500  1
  O  O19  1  0.80942000  0.44224700  0.20656000  1
  O  O20  1  0.46111000  0.18854900  0.79460400  1
  O  O21  1  0.27792500  0.09072800  0.72217300  1
  O  O22  1  0.78286700  0.63302400  0.57981200  1
  O  O23  1  0.56171700  0.45073200  0.79494300  1
  O  O24  1  0.43828300  0.54926800  0.20505700  1
  O  O25  1  0.21713300  0.36697600  0.42018800  1
  O  O26  1  0.72207500  0.90927200  0.27782700  1
  O  O27  1  0.53889000  0.81145100  0.20539600  1
  O  O28  1  0.19058000  0.55775300  0.79344000  1
  O  O29  1  0.36715500  0.99754600  0.41876500  1
  O  O30  1  0.08977500  0.72054000  0.27742500  1
  O  O31  1  0.75735100  0.49205400  0.90667500  1
  O  O32  1  0.00835400  0.78305500  0.57535200  1
  O  O33  1  0.08349100  0.91315500  0.72303800  1
  O  O34  1  0.84530500  0.76008600  0.90308400  1
  O  O35  1  0.48528900  0.84795500  0.91029300  1
