# generated using pymatgen
data_WO2F
_symmetry_space_group_name_H-M   'P 1'
_cell_length_a   9.95797800
_cell_length_b   5.50475800
_cell_length_c   5.50667323
_cell_angle_alpha   90.00000000
_cell_angle_beta   123.44428578
_cell_angle_gamma   90.00000000
_symmetry_Int_Tables_number   1
_chemical_formula_structural   WO2F
_chemical_formula_sum   'W4 O8 F4'
_cell_volume   251.87468059
_cell_formula_units_Z   4
loop_
 _symmetry_equiv_pos_site_id
 _symmetry_equiv_pos_as_xyz
  1  'x, y, z'
loop_
 _atom_site_type_symbol
 _atom_site_label
 _atom_site_symmetry_multiplicity
 _atom_site_fract_x
 _atom_site_fract_y
 _atom_site_fract_z
 _atom_site_occupancy
  W  W0  1  0.25000000  0.75000000  0.50000000  1
  W  W1  1  0.25000000  0.25000000  0.00000000  1
  W  W2  1  0.75000000  0.25000000  0.50000000  1
  W  W3  1  0.75000000  0.75000000  0.00000000  1
  O  O4  1  0.24295850  0.98613050  0.73752800  1
  O  O5  1  0.25704150  0.48613050  0.76247200  1
  O  O6  1  0.24295850  0.01386950  0.23752800  1
  O  O7  1  0.25704150  0.51386950  0.26247200  1
  O  O8  1  0.74295850  0.48613050  0.73752800  1
  O  O9  1  0.75704150  0.98613050  0.76247200  1
  O  O10  1  0.74295850  0.51386950  0.23752800  1
  O  O11  1  0.75704150  0.01386950  0.26247200  1
  F  F12  1  0.00000000  0.73114700  0.25000000  1
  F  F13  1  0.00000000  0.26885300  0.75000000  1
  F  F14  1  0.50000000  0.23114700  0.25000000  1
  F  F15  1  0.50000000  0.76885300  0.75000000  1
