# generated using pymatgen
data_CdFe2Sb2(PO4)6
_symmetry_space_group_name_H-M   'P 1'
_cell_length_a   8.52419379
_cell_length_b   8.52419379
_cell_length_c   22.22199916
_cell_angle_alpha   90.00000000
_cell_angle_beta   90.00000000
_cell_angle_gamma   120.00000000
_symmetry_Int_Tables_number   1
_chemical_formula_structural   CdFe2Sb2(PO4)6
_chemical_formula_sum   'Cd3 Fe6 Sb6 P18 O72'
_cell_volume   1398.36449068
_cell_formula_units_Z   3
loop_
 _symmetry_equiv_pos_site_id
 _symmetry_equiv_pos_as_xyz
  1  'x, y, z'
loop_
 _atom_site_type_symbol
 _atom_site_label
 _atom_site_symmetry_multiplicity
 _atom_site_fract_x
 _atom_site_fract_y
 _atom_site_fract_z
 _atom_site_occupancy
  Cd  Cd0  1  0.00000000  0.00000000  0.00000000  1
  Cd  Cd1  1  0.66666667  0.33333333  0.33333333  1
  Cd  Cd2  1  0.33333333  0.66666667  0.66666667  1
  Fe  Fe3  1  0.00000000  0.00000000  0.14705300  1
  Fe  Fe4  1  0.66666667  0.33333333  0.18628033  1
  Fe  Fe5  1  0.66666667  0.33333333  0.48038633  1
  Fe  Fe6  1  0.33333333  0.66666667  0.51961367  1
  Fe  Fe7  1  0.33333333  0.66666667  0.81371967  1
  Fe  Fe8  1  0.00000000  0.00000000  0.85294700  1
  Sb  Sb9  1  0.33333333  0.66666667  0.31264167  1
  Sb  Sb10  1  0.33333333  0.66666667  0.02069167  1
  Sb  Sb11  1  0.00000000  0.00000000  0.64597500  1
  Sb  Sb12  1  0.00000000  0.00000000  0.35402500  1
  Sb  Sb13  1  0.66666667  0.33333333  0.97930833  1
  Sb  Sb14  1  0.66666667  0.33333333  0.68735833  1
  P  P15  1  0.71264933  0.70908267  0.25026767  1
  P  P16  1  0.29091733  0.00356667  0.25026767  1
  P  P17  1  0.99643333  0.28735067  0.25026767  1
  P  P18  1  0.67023333  0.04598267  0.08306567  1
  P  P19  1  0.37574933  0.32976667  0.08306567  1
  P  P20  1  0.95401733  0.62425067  0.08306567  1
  P  P21  1  0.37931600  0.04241600  0.58360100  1
  P  P22  1  0.95758400  0.33690000  0.58360100  1
  P  P23  1  0.66310000  0.62068400  0.58360100  1
  P  P24  1  0.33690000  0.37931600  0.41639900  1
  P  P25  1  0.04241600  0.66310000  0.41639900  1
  P  P26  1  0.62068400  0.95758400  0.41639900  1
  P  P27  1  0.04598267  0.37574933  0.91693433  1
  P  P28  1  0.62425067  0.67023333  0.91693433  1
  P  P29  1  0.32976667  0.95401733  0.91693433  1
  P  P30  1  0.00356667  0.71264933  0.74973233  1
  P  P31  1  0.70908267  0.99643333  0.74973233  1
  P  P32  1  0.28735067  0.29091733  0.74973233  1
  O  O33  1  0.21806433  0.06753267  0.30460367  1
  O  O34  1  0.40546267  0.52454233  0.07225733  1
  O  O35  1  0.11907967  0.59453733  0.07225733  1
  O  O36  1  0.47545767  0.88092033  0.07225733  1
  O  O37  1  0.00890333  0.20109967  0.19248067  1
  O  O38  1  0.93246733  0.15053167  0.30460367  1
  O  O39  1  0.79890033  0.80780367  0.19248067  1
  O  O40  1  0.84946833  0.78193567  0.30460367  1
  O  O41  1  0.01390767  0.82725833  0.08322533  1
  O  O42  1  0.81335067  0.98609233  0.08322533  1
  O  O43  1  0.17274167  0.18664933  0.08322533  1
  O  O44  1  0.47447033  0.34223667  0.14085267  1
  O  O45  1  0.19219633  0.99109667  0.19248067  1
  O  O46  1  0.49392500  0.14668400  0.25010800  1
  O  O47  1  0.85331600  0.34724100  0.25010800  1
  O  O48  1  0.65275900  0.50607500  0.25010800  1
  O  O49  1  0.81719833  0.55139767  0.02872967  1
  O  O50  1  0.86776633  0.52552967  0.14085267  1
  O  O51  1  0.73419933  0.18280167  0.02872967  1
  O  O52  1  0.65776333  0.13223367  0.14085267  1
  O  O53  1  0.19120900  0.45241300  0.26107600  1
  O  O54  1  0.54758700  0.73879600  0.26107600  1
  O  O55  1  0.26120400  0.80879100  0.26107600  1
  O  O56  1  0.44860233  0.26580067  0.02872967  1
  O  O57  1  0.88473100  0.40086600  0.63793700  1
  O  O58  1  0.07212933  0.85787567  0.40559067  1
  O  O59  1  0.78574633  0.92787067  0.40559067  1
  O  O60  1  0.14212433  0.21425367  0.40559067  1
  O  O61  1  0.67557000  0.53443300  0.52581400  1
  O  O62  1  0.59913400  0.48386500  0.63793700  1
  O  O63  1  0.46556700  0.14113700  0.52581400  1
  O  O64  1  0.51613500  0.11526900  0.63793700  1
  O  O65  1  0.68057433  0.16059167  0.41655867  1
  O  O66  1  0.48001733  0.31942567  0.41655867  1
  O  O67  1  0.83940833  0.51998267  0.41655867  1
  O  O68  1  0.14113700  0.67557000  0.47418600  1
  O  O69  1  0.85886300  0.32443000  0.52581400  1
  O  O70  1  0.16059167  0.48001733  0.58344133  1
  O  O71  1  0.51998267  0.68057433  0.58344133  1
  O  O72  1  0.31942567  0.83940833  0.58344133  1
  O  O73  1  0.48386500  0.88473100  0.36206300  1
  O  O74  1  0.53443300  0.85886300  0.47418600  1
  O  O75  1  0.40086600  0.51613500  0.36206300  1
  O  O76  1  0.32443000  0.46556700  0.47418600  1
  O  O77  1  0.85787567  0.78574633  0.59440933  1
  O  O78  1  0.21425367  0.07212933  0.59440933  1
  O  O79  1  0.92787067  0.14212433  0.59440933  1
  O  O80  1  0.11526900  0.59913400  0.36206300  1
  O  O81  1  0.55139767  0.73419933  0.97127033  1
  O  O82  1  0.73879600  0.19120900  0.73892400  1
  O  O83  1  0.45241300  0.26120400  0.73892400  1
  O  O84  1  0.80879100  0.54758700  0.73892400  1
  O  O85  1  0.34223667  0.86776633  0.85914733  1
  O  O86  1  0.26580067  0.81719833  0.97127033  1
  O  O87  1  0.13223367  0.47447033  0.85914733  1
  O  O88  1  0.18280167  0.44860233  0.97127033  1
  O  O89  1  0.34724100  0.49392500  0.74989200  1
  O  O90  1  0.14668400  0.65275900  0.74989200  1
  O  O91  1  0.50607500  0.85331600  0.74989200  1
  O  O92  1  0.80780367  0.00890333  0.80751933  1
  O  O93  1  0.52552967  0.65776333  0.85914733  1
  O  O94  1  0.82725833  0.81335067  0.91677467  1
  O  O95  1  0.18664933  0.01390767  0.91677467  1
  O  O96  1  0.98609233  0.17274167  0.91677467  1
  O  O97  1  0.15053167  0.21806433  0.69539633  1
  O  O98  1  0.20109967  0.19219633  0.80751933  1
  O  O99  1  0.06753267  0.84946833  0.69539633  1
  O  O100  1  0.99109667  0.79890033  0.80751933  1
  O  O101  1  0.52454233  0.11907967  0.92774267  1
  O  O102  1  0.88092033  0.40546267  0.92774267  1
  O  O103  1  0.59453733  0.47545767  0.92774267  1
  O  O104  1  0.78193567  0.93246733  0.69539633  1
