# generated using pymatgen
data_K2TeH6SeO10
_symmetry_space_group_name_H-M   'P 1'
_cell_length_a   11.75237400
_cell_length_b   6.53223400
_cell_length_c   14.10299599
_cell_angle_alpha   90.00000000
_cell_angle_beta   106.83590474
_cell_angle_gamma   90.00000000
_symmetry_Int_Tables_number   1
_chemical_formula_structural   K2TeH6SeO10
_chemical_formula_sum   'K8 Te4 H24 Se4 O40'
_cell_volume   1036.27104424
_cell_formula_units_Z   4
loop_
 _symmetry_equiv_pos_site_id
 _symmetry_equiv_pos_as_xyz
  1  'x, y, z'
loop_
 _atom_site_type_symbol
 _atom_site_label
 _atom_site_symmetry_multiplicity
 _atom_site_fract_x
 _atom_site_fract_y
 _atom_site_fract_z
 _atom_site_occupancy
  K  K0  1  0.84996150  0.71479750  0.85556800  1
  K  K1  1  0.65003850  0.21479750  0.64443200  1
  K  K2  1  0.15003850  0.28520250  0.14443200  1
  K  K3  1  0.34996150  0.78520250  0.35556800  1
  K  K4  1  0.34996150  0.21479750  0.85556800  1
  K  K5  1  0.15003850  0.71479750  0.64443200  1
  K  K6  1  0.65003850  0.78520250  0.14443200  1
  K  K7  1  0.84996150  0.28520250  0.35556800  1
  Te  Te8  1  0.25000000  0.25000000  0.50000000  1
  Te  Te9  1  0.25000000  0.75000000  0.00000000  1
  Te  Te10  1  0.75000000  0.75000000  0.50000000  1
  Te  Te11  1  0.75000000  0.25000000  0.00000000  1
  H  H12  1  0.40303400  0.52222700  0.56702900  1
  H  H13  1  0.59696600  0.52222700  0.93297100  1
  H  H14  1  0.59696600  0.47777300  0.43297100  1
  H  H15  1  0.40303400  0.47777300  0.06702900  1
  H  H16  1  0.65884650  0.71625950  0.63640400  1
  H  H17  1  0.84115350  0.21625950  0.86359600  1
  H  H18  1  0.34115350  0.28374050  0.36359600  1
  H  H19  1  0.15884650  0.78374050  0.13640400  1
  H  H20  1  0.39220850  0.01269750  0.60900800  1
  H  H21  1  0.60779150  0.01269750  0.89099200  1
  H  H22  1  0.60779150  0.98730250  0.39099200  1
  H  H23  1  0.39220850  0.98730250  0.10900800  1
  H  H24  1  0.90303400  0.02222700  0.56702900  1
  H  H25  1  0.09696600  0.02222700  0.93297100  1
  H  H26  1  0.09696600  0.97777300  0.43297100  1
  H  H27  1  0.90303400  0.97777300  0.06702900  1
  H  H28  1  0.15884650  0.21625950  0.63640400  1
  H  H29  1  0.34115350  0.71625950  0.86359600  1
  H  H30  1  0.84115350  0.78374050  0.36359600  1
  H  H31  1  0.65884650  0.28374050  0.13640400  1
  H  H32  1  0.89220850  0.51269750  0.60900800  1
  H  H33  1  0.10779150  0.51269750  0.89099200  1
  H  H34  1  0.10779150  0.48730250  0.39099200  1
  H  H35  1  0.89220850  0.48730250  0.10900800  1
  Se  Se36  1  0.50000000  0.72083000  0.75000000  1
  Se  Se37  1  0.50000000  0.27917000  0.25000000  1
  Se  Se38  1  0.00000000  0.22083000  0.75000000  1
  Se  Se39  1  0.00000000  0.77917000  0.25000000  1
  O  O40  1  0.59764100  0.88644300  0.44235400  1
  O  O41  1  0.40235900  0.88644300  0.05764600  1
  O  O42  1  0.40235900  0.11355700  0.55764600  1
  O  O43  1  0.59764100  0.11355700  0.94235400  1
  O  O44  1  0.26959550  0.20654150  0.36720300  1
  O  O45  1  0.23040450  0.70654150  0.13279700  1
  O  O46  1  0.73040450  0.79345850  0.63279700  1
  O  O47  1  0.76959550  0.29345850  0.86720300  1
  O  O48  1  0.32999200  0.51468000  0.50855800  1
  O  O49  1  0.67000800  0.51468000  0.99144200  1
  O  O50  1  0.67000800  0.48532000  0.49144200  1
  O  O51  1  0.32999200  0.48532000  0.00855800  1
  O  O52  1  0.38081850  0.86707750  0.70103900  1
  O  O53  1  0.61918150  0.86707750  0.79896100  1
  O  O54  1  0.61918150  0.13292250  0.29896100  1
  O  O55  1  0.38081850  0.13292250  0.20103900  1
  O  O56  1  0.46903750  0.57654850  0.83836300  1
  O  O57  1  0.53096250  0.57654850  0.66163700  1
  O  O58  1  0.53096250  0.42345150  0.16163700  1
  O  O59  1  0.46903750  0.42345150  0.33836300  1
  O  O60  1  0.09764100  0.38644300  0.44235400  1
  O  O61  1  0.90235900  0.38644300  0.05764600  1
  O  O62  1  0.90235900  0.61355700  0.55764600  1
  O  O63  1  0.09764100  0.61355700  0.94235400  1
  O  O64  1  0.76959550  0.70654150  0.36720300  1
  O  O65  1  0.73040450  0.20654150  0.13279700  1
  O  O66  1  0.23040450  0.29345850  0.63279700  1
  O  O67  1  0.26959550  0.79345850  0.86720300  1
  O  O68  1  0.82999200  0.01468000  0.50855800  1
  O  O69  1  0.17000800  0.01468000  0.99144200  1
  O  O70  1  0.17000800  0.98532000  0.49144200  1
  O  O71  1  0.82999200  0.98532000  0.00855800  1
  O  O72  1  0.88081850  0.36707750  0.70103900  1
  O  O73  1  0.11918150  0.36707750  0.79896100  1
  O  O74  1  0.11918150  0.63292250  0.29896100  1
  O  O75  1  0.88081850  0.63292250  0.20103900  1
  O  O76  1  0.96903750  0.07654850  0.83836300  1
  O  O77  1  0.03096250  0.07654850  0.66163700  1
  O  O78  1  0.03096250  0.92345150  0.16163700  1
  O  O79  1  0.96903750  0.92345150  0.33836300  1
