# generated using pymatgen
data_CdSnO3
_symmetry_space_group_name_H-M   'P 1'
_cell_length_a   5.55324995
_cell_length_b   5.55324995
_cell_length_c   15.29381864
_cell_angle_alpha   90.00000000
_cell_angle_beta   90.00000000
_cell_angle_gamma   120.00000000
_symmetry_Int_Tables_number   1
_chemical_formula_structural   CdSnO3
_chemical_formula_sum   'Cd6 Sn6 O18'
_cell_volume   408.45198505
_cell_formula_units_Z   6
loop_
 _symmetry_equiv_pos_site_id
 _symmetry_equiv_pos_as_xyz
  1  'x, y, z'
loop_
 _atom_site_type_symbol
 _atom_site_label
 _atom_site_symmetry_multiplicity
 _atom_site_fract_x
 _atom_site_fract_y
 _atom_site_fract_z
 _atom_site_occupancy
  Cd  Cd0  1  0.33333333  0.66666667  0.30098967  1
  Cd  Cd1  1  0.33333333  0.66666667  0.03234367  1
  Cd  Cd2  1  0.00000000  0.00000000  0.63432300  1
  Cd  Cd3  1  0.00000000  0.00000000  0.36567700  1
  Cd  Cd4  1  0.66666667  0.33333333  0.96765633  1
  Cd  Cd5  1  0.66666667  0.33333333  0.69901033  1
  Sn  Sn6  1  0.66666667  0.33333333  0.17891333  1
  Sn  Sn7  1  0.00000000  0.00000000  0.15442000  1
  Sn  Sn8  1  0.33333333  0.66666667  0.51224667  1
  Sn  Sn9  1  0.66666667  0.33333333  0.48775333  1
  Sn  Sn10  1  0.00000000  0.00000000  0.84558000  1
  Sn  Sn11  1  0.33333333  0.66666667  0.82108667  1
  O  O12  1  0.96903567  0.28219133  0.24304933  1
  O  O13  1  0.94885800  0.64648900  0.09028400  1
  O  O14  1  0.35351100  0.30236900  0.09028400  1
  O  O15  1  0.31315567  0.03096433  0.24304933  1
  O  O16  1  0.71780867  0.68684433  0.24304933  1
  O  O17  1  0.69763100  0.05114200  0.09028400  1
  O  O18  1  0.63570233  0.61552467  0.57638267  1
  O  O19  1  0.61552467  0.97982233  0.42361733  1
  O  O20  1  0.02017767  0.63570233  0.42361733  1
  O  O21  1  0.97982233  0.36429767  0.57638267  1
  O  O22  1  0.38447533  0.02017767  0.57638267  1
  O  O23  1  0.36429767  0.38447533  0.42361733  1
  O  O24  1  0.30236900  0.94885800  0.90971600  1
  O  O25  1  0.28219133  0.31315567  0.75695067  1
  O  O26  1  0.68684433  0.96903567  0.75695067  1
  O  O27  1  0.64648900  0.69763100  0.90971600  1
  O  O28  1  0.05114200  0.35351100  0.90971600  1
  O  O29  1  0.03096433  0.71780867  0.75695067  1
