# generated using pymatgen
data_NaLiO
_symmetry_space_group_name_H-M   'P 1'
_cell_length_a   9.06144000
_cell_length_b   9.06144000
_cell_length_c   4.55744600
_cell_angle_alpha   90.00000000
_cell_angle_beta   90.00000000
_cell_angle_gamma   90.00000000
_symmetry_Int_Tables_number   1
_chemical_formula_structural   NaLiO
_chemical_formula_sum   'Na8 Li8 O8'
_cell_volume   374.21050046
_cell_formula_units_Z   8
loop_
 _symmetry_equiv_pos_site_id
 _symmetry_equiv_pos_as_xyz
  1  'x, y, z'
loop_
 _atom_site_type_symbol
 _atom_site_label
 _atom_site_symmetry_multiplicity
 _atom_site_fract_x
 _atom_site_fract_y
 _atom_site_fract_z
 _atom_site_occupancy
  Na  Na0  1  0.50000000  0.15802900  0.00000000  1
  Na  Na1  1  0.65802900  0.00000000  0.50000000  1
  Na  Na2  1  0.34197100  0.00000000  0.50000000  1
  Na  Na3  1  0.50000000  0.84197100  0.00000000  1
  Na  Na4  1  0.00000000  0.65802900  0.50000000  1
  Na  Na5  1  0.15802900  0.50000000  0.00000000  1
  Na  Na6  1  0.84197100  0.50000000  0.00000000  1
  Na  Na7  1  0.00000000  0.34197100  0.50000000  1
  Li  Li8  1  0.84972600  0.15027400  0.00000000  1
  Li  Li9  1  0.84972600  0.84972600  0.00000000  1
  Li  Li10  1  0.65027400  0.65027400  0.50000000  1
  Li  Li11  1  0.65027400  0.34972600  0.50000000  1
  Li  Li12  1  0.34972600  0.65027400  0.50000000  1
  Li  Li13  1  0.34972600  0.34972600  0.50000000  1
  Li  Li14  1  0.15027400  0.15027400  0.00000000  1
  Li  Li15  1  0.15027400  0.84972600  0.00000000  1
  O  O16  1  0.50000000  0.21870300  0.50000000  1
  O  O17  1  0.71870300  0.00000000  0.00000000  1
  O  O18  1  0.28129700  0.00000000  0.00000000  1
  O  O19  1  0.50000000  0.78129700  0.50000000  1
  O  O20  1  0.00000000  0.71870300  0.00000000  1
  O  O21  1  0.21870300  0.50000000  0.50000000  1
  O  O22  1  0.78129700  0.50000000  0.50000000  1
  O  O23  1  0.00000000  0.28129700  0.00000000  1
