# generated using pymatgen
data_ZnH12C3S4(N3O2)2
_symmetry_space_group_name_H-M   'P 1'
_cell_length_a   7.77474500
_cell_length_b   11.13487600
_cell_length_c   15.65605500
_cell_angle_alpha   90.00000000
_cell_angle_beta   90.00000000
_cell_angle_gamma   90.00000000
_symmetry_Int_Tables_number   1
_chemical_formula_structural   ZnH12C3S4(N3O2)2
_chemical_formula_sum   'Zn4 H48 C12 S16 N24 O16'
_cell_volume   1355.35754290
_cell_formula_units_Z   4
loop_
 _symmetry_equiv_pos_site_id
 _symmetry_equiv_pos_as_xyz
  1  'x, y, z'
loop_
 _atom_site_type_symbol
 _atom_site_label
 _atom_site_symmetry_multiplicity
 _atom_site_fract_x
 _atom_site_fract_y
 _atom_site_fract_z
 _atom_site_occupancy
  Zn  Zn0  1  0.34513000  0.06766300  0.64919900  1
  Zn  Zn1  1  0.34513000  0.43233700  0.14919900  1
  Zn  Zn2  1  0.65487000  0.56766300  0.64919900  1
  Zn  Zn3  1  0.65487000  0.93233700  0.14919900  1
  H  H4  1  0.38344100  0.03620700  0.22848100  1
  H  H5  1  0.13935700  0.03772400  0.93809000  1
  H  H6  1  0.32606200  0.05751800  0.33585400  1
  H  H7  1  0.92150100  0.08387200  0.08154700  1
  H  H8  1  0.70830300  0.11478200  0.92238500  1
  H  H9  1  0.81490000  0.14531600  0.50703500  1
  H  H10  1  0.66102500  0.15074300  0.59078400  1
  H  H11  1  0.29040100  0.15439200  0.94950500  1
  H  H12  1  0.05507600  0.20266400  0.73757200  1
  H  H13  1  0.98641900  0.21283000  0.32566900  1
  H  H14  1  0.03368300  0.21763500  0.10075000  1
  H  H15  1  0.59663400  0.24658100  0.89180800  1
  H  H16  1  0.59663400  0.25341900  0.39180800  1
  H  H17  1  0.03368300  0.28236500  0.60075000  1
  H  H18  1  0.98641900  0.28717000  0.82566900  1
  H  H19  1  0.05507600  0.29733600  0.23757200  1
  H  H20  1  0.29040100  0.34560800  0.44950500  1
  H  H21  1  0.66102500  0.34925700  0.09078400  1
  H  H22  1  0.81490000  0.35468400  0.00703500  1
  H  H23  1  0.70830300  0.38521800  0.42238500  1
  H  H24  1  0.92150100  0.41612800  0.58154700  1
  H  H25  1  0.32606200  0.44248200  0.83585400  1
  H  H26  1  0.13935700  0.46227600  0.43809000  1
  H  H27  1  0.38344100  0.46379300  0.72848100  1
  H  H28  1  0.61655900  0.53620700  0.22848100  1
  H  H29  1  0.86064300  0.53772400  0.93809000  1
  H  H30  1  0.67393800  0.55751800  0.33585400  1
  H  H31  1  0.07849900  0.58387200  0.08154700  1
  H  H32  1  0.29169700  0.61478200  0.92238500  1
  H  H33  1  0.18510000  0.64531600  0.50703500  1
  H  H34  1  0.33897500  0.65074300  0.59078400  1
  H  H35  1  0.70959900  0.65439200  0.94950500  1
  H  H36  1  0.94492400  0.70266400  0.73757200  1
  H  H37  1  0.01358100  0.71283000  0.32566900  1
  H  H38  1  0.96631700  0.71763500  0.10075000  1
  H  H39  1  0.40336600  0.74658100  0.89180800  1
  H  H40  1  0.40336600  0.75341900  0.39180800  1
  H  H41  1  0.96631700  0.78236500  0.60075000  1
  H  H42  1  0.01358100  0.78717000  0.82566900  1
  H  H43  1  0.94492400  0.79733600  0.23757200  1
  H  H44  1  0.70959900  0.84560800  0.44950500  1
  H  H45  1  0.33897500  0.84925700  0.09078400  1
  H  H46  1  0.18510000  0.85468400  0.00703500  1
  H  H47  1  0.29169700  0.88521800  0.42238500  1
  H  H48  1  0.07849900  0.91612800  0.58154700  1
  H  H49  1  0.67393800  0.94248200  0.83585400  1
  H  H50  1  0.86064300  0.96227600  0.43809000  1
  H  H51  1  0.61655900  0.96379300  0.72848100  1
  C  C52  1  0.33439400  0.00619000  0.02331500  1
  C  C53  1  0.60365500  0.11501200  0.80168800  1
  C  C54  1  0.93826500  0.13625000  0.20821300  1
  C  C55  1  0.93826500  0.36375000  0.70821300  1
  C  C56  1  0.60365500  0.38498800  0.30168800  1
  C  C57  1  0.33439400  0.49381000  0.52331500  1
  C  C58  1  0.66560600  0.50619000  0.02331500  1
  C  C59  1  0.39634500  0.61501200  0.80168800  1
  C  C60  1  0.06173500  0.63625000  0.20821300  1
  C  C61  1  0.06173500  0.86375000  0.70821300  1
  C  C62  1  0.39634500  0.88498800  0.30168800  1
  C  C63  1  0.66560600  0.99381000  0.52331500  1
  S  S64  1  0.83208300  0.01572100  0.25425000  1
  S  S65  1  0.49664500  0.07943900  0.07889200  1
  S  S66  1  0.51049300  0.20738400  0.72475800  1
  S  S67  1  0.51049300  0.29261600  0.22475800  1
  S  S68  1  0.49664500  0.42056100  0.57889200  1
  S  S69  1  0.83208300  0.48427900  0.75425000  1
  S  S70  1  0.16791700  0.51572100  0.25425000  1
  S  S71  1  0.50335500  0.57943900  0.07889200  1
  S  S72  1  0.48950700  0.70738400  0.72475800  1
  S  S73  1  0.48950700  0.79261600  0.22475800  1
  S  S74  1  0.50335500  0.92056100  0.57889200  1
  S  S75  1  0.16791700  0.98427900  0.75425000  1
  S  S76  1  0.15713600  0.12850900  0.47726200  1
  S  S77  1  0.15713600  0.37149100  0.97726200  1
  S  S78  1  0.84286400  0.62850900  0.47726200  1
  S  S79  1  0.84286400  0.87149100  0.97726200  1
  N  N80  1  0.64314200  0.00052300  0.78684100  1
  N  N81  1  0.25339200  0.06814700  0.96267800  1
  N  N82  1  0.71341300  0.10654000  0.53990300  1
  N  N83  1  0.95967300  0.14821000  0.12415600  1
  N  N84  1  0.64095400  0.16301600  0.87755300  1
  N  N85  1  0.00001000  0.22038900  0.26073700  1
  N  N86  1  0.00001000  0.27961100  0.76073700  1
  N  N87  1  0.64095400  0.33698400  0.37755300  1
  N  N88  1  0.95967300  0.35179000  0.62415600  1
  N  N89  1  0.71341300  0.39346000  0.03990300  1
  N  N90  1  0.25339200  0.43185300  0.46267800  1
  N  N91  1  0.64314200  0.49947700  0.28684100  1
  N  N92  1  0.35685800  0.50052300  0.78684100  1
  N  N93  1  0.74660800  0.56814700  0.96267800  1
  N  N94  1  0.28658700  0.60654000  0.53990300  1
  N  N95  1  0.04032700  0.64821000  0.12415600  1
  N  N96  1  0.35904600  0.66301600  0.87755300  1
  N  N97  1  0.99999000  0.72038900  0.26073700  1
  N  N98  1  0.99999000  0.77961100  0.76073700  1
  N  N99  1  0.35904600  0.83698400  0.37755300  1
  N  N100  1  0.04032700  0.85179000  0.62415600  1
  N  N101  1  0.28658700  0.89346000  0.03990300  1
  N  N102  1  0.74660800  0.93185300  0.46267800  1
  N  N103  1  0.35685800  0.99947700  0.28684100  1
  O  O104  1  0.87597800  0.00274400  0.97044800  1
  O  O105  1  0.18629700  0.15985300  0.57149100  1
  O  O106  1  0.31095300  0.16430600  0.42744700  1
  O  O107  1  0.00351000  0.19853100  0.44992300  1
  O  O108  1  0.00351000  0.30146900  0.94992300  1
  O  O109  1  0.31095300  0.33569400  0.92744700  1
  O  O110  1  0.18629700  0.34014700  0.07149100  1
  O  O111  1  0.87597800  0.49725600  0.47044800  1
  O  O112  1  0.12402200  0.50274400  0.97044800  1
  O  O113  1  0.81370300  0.65985300  0.57149100  1
  O  O114  1  0.68904700  0.66430600  0.42744700  1
  O  O115  1  0.99649000  0.69853100  0.44992300  1
  O  O116  1  0.99649000  0.80146900  0.94992300  1
  O  O117  1  0.68904700  0.83569400  0.92744700  1
  O  O118  1  0.81370300  0.84014700  0.07149100  1
  O  O119  1  0.12402200  0.99725600  0.47044800  1
