# generated using pymatgen
data_Ti3Cu2Te(PO4)6
_symmetry_space_group_name_H-M   'P 1'
_cell_length_a   8.74317587
_cell_length_b   8.74317587
_cell_length_c   21.49890747
_cell_angle_alpha   90.00000000
_cell_angle_beta   90.00000000
_cell_angle_gamma   120.00000000
_symmetry_Int_Tables_number   1
_chemical_formula_structural   Ti3Cu2Te(PO4)6
_chemical_formula_sum   'Ti9 Cu6 Te3 P18 O72'
_cell_volume   1423.26395518
_cell_formula_units_Z   3
loop_
 _symmetry_equiv_pos_site_id
 _symmetry_equiv_pos_as_xyz
  1  'x, y, z'
loop_
 _atom_site_type_symbol
 _atom_site_label
 _atom_site_symmetry_multiplicity
 _atom_site_fract_x
 _atom_site_fract_y
 _atom_site_fract_z
 _atom_site_occupancy
  Ti  Ti0  1  0.00000000  0.00000000  0.14190800  1
  Ti  Ti1  1  0.33333333  0.66666667  0.02395867  1
  Ti  Ti2  1  0.33333333  0.66666667  0.30872767  1
  Ti  Ti3  1  0.66666667  0.33333333  0.47524133  1
  Ti  Ti4  1  0.00000000  0.00000000  0.35729200  1
  Ti  Ti5  1  0.00000000  0.00000000  0.64206100  1
  Ti  Ti6  1  0.33333333  0.66666667  0.80857467  1
  Ti  Ti7  1  0.66666667  0.33333333  0.69062533  1
  Ti  Ti8  1  0.66666667  0.33333333  0.97539433  1
  Cu  Cu9  1  0.00000000  0.00000000  0.00431600  1
  Cu  Cu10  1  0.33333333  0.66666667  0.16691267  1
  Cu  Cu11  1  0.66666667  0.33333333  0.33764933  1
  Cu  Cu12  1  0.00000000  0.00000000  0.50024600  1
  Cu  Cu13  1  0.33333333  0.66666667  0.67098267  1
  Cu  Cu14  1  0.66666667  0.33333333  0.83357933  1
  Te  Te15  1  0.66666667  0.33333333  0.19057633  1
  Te  Te16  1  0.33333333  0.66666667  0.52390967  1
  Te  Te17  1  0.00000000  0.00000000  0.85724300  1
  P  P18  1  0.28107900  0.28921700  0.25081000  1
  P  P19  1  0.71078300  0.99186200  0.25081000  1
  P  P20  1  0.00813800  0.71892100  0.25081000  1
  P  P21  1  0.66804333  0.63086167  0.08094767  1
  P  P22  1  0.96281833  0.33195667  0.08094767  1
  P  P23  1  0.36913833  0.03718167  0.08094767  1
  P  P24  1  0.94774567  0.62255033  0.58414333  1
  P  P25  1  0.37744967  0.32519533  0.58414333  1
  P  P26  1  0.67480467  0.05225433  0.58414333  1
  P  P27  1  0.33471000  0.96419500  0.41428100  1
  P  P28  1  0.62948500  0.66529000  0.41428100  1
  P  P29  1  0.03580500  0.37051500  0.41428100  1
  P  P30  1  0.61441233  0.95588367  0.91747667  1
  P  P31  1  0.04411633  0.65852867  0.91747667  1
  P  P32  1  0.34147133  0.38558767  0.91747667  1
  P  P33  1  0.00137667  0.29752833  0.74761433  1
  P  P34  1  0.29615167  0.99862333  0.74761433  1
  P  P35  1  0.70247167  0.70384833  0.74761433  1
  O  O36  1  0.01053967  0.82267433  0.30851133  1
  O  O37  1  0.17732567  0.18786533  0.30851133  1
  O  O38  1  0.83629733  0.81644367  0.08023067  1
  O  O39  1  0.81213467  0.98946033  0.30851133  1
  O  O40  1  0.65757767  0.53722533  0.14271833  1
  O  O41  1  0.50364033  0.65354067  0.08067467  1
  O  O42  1  0.98014633  0.16370267  0.08023067  1
  O  O43  1  0.14990033  0.49635967  0.08067467  1
  O  O44  1  0.18351333  0.19015367  0.19084567  1
  O  O45  1  0.34645933  0.85009967  0.08067467  1
  O  O46  1  0.46631233  0.30602767  0.25723867  1
  O  O47  1  0.80984633  0.99335967  0.19084567  1
  O  O48  1  0.87964767  0.34242233  0.14271833  1
  O  O49  1  0.18355633  0.01985367  0.08023067  1
  O  O50  1  0.30235400  0.47668600  0.24872800  1
  O  O51  1  0.46277467  0.12035233  0.14271833  1
  O  O52  1  0.52331400  0.82566800  0.24872800  1
  O  O53  1  0.69397233  0.16028467  0.25723867  1
  O  O54  1  0.17433200  0.69764600  0.24872800  1
  O  O55  1  0.00664033  0.81648667  0.19084567  1
  O  O56  1  0.84857767  0.32476333  0.02494033  1
  O  O57  1  0.83971533  0.53368767  0.25723867  1
  O  O58  1  0.47618567  0.15142233  0.02494033  1
  O  O59  1  0.67523667  0.52381433  0.02494033  1
  O  O60  1  0.67720633  0.15600767  0.64184467  1
  O  O61  1  0.84399233  0.52119867  0.64184467  1
  O  O62  1  0.50296400  0.14977700  0.41356400  1
  O  O63  1  0.47880133  0.32279367  0.64184467  1
  O  O64  1  0.32424433  0.87055867  0.47605167  1
  O  O65  1  0.17030700  0.98687400  0.41400800  1
  O  O66  1  0.64681300  0.49703600  0.41356400  1
  O  O67  1  0.81656700  0.82969300  0.41400800  1
  O  O68  1  0.85018000  0.52348700  0.52417900  1
  O  O69  1  0.01312600  0.18343300  0.41400800  1
  O  O70  1  0.13297900  0.63936100  0.59057200  1
  O  O71  1  0.47651300  0.32669300  0.52417900  1
  O  O72  1  0.54631433  0.67575567  0.47605167  1
  O  O73  1  0.85022300  0.35318700  0.41356400  1
  O  O74  1  0.96902067  0.81001933  0.58206133  1
  O  O75  1  0.12944133  0.45368567  0.47605167  1
  O  O76  1  0.18998067  0.15900133  0.58206133  1
  O  O77  1  0.36063900  0.49361800  0.59057200  1
  O  O78  1  0.84099867  0.03097933  0.58206133  1
  O  O79  1  0.67330700  0.14982000  0.52417900  1
  O  O80  1  0.51524433  0.65809667  0.35827367  1
  O  O81  1  0.50638200  0.86702100  0.59057200  1
  O  O82  1  0.14285233  0.48475567  0.35827367  1
  O  O83  1  0.34190333  0.85714767  0.35827367  1
  O  O84  1  0.34387300  0.48934100  0.97517800  1
  O  O85  1  0.51065900  0.85453200  0.97517800  1
  O  O86  1  0.16963067  0.48311033  0.74689733  1
  O  O87  1  0.14546800  0.65612700  0.97517800  1
  O  O88  1  0.99091100  0.20389200  0.80938500  1
  O  O89  1  0.83697367  0.32020733  0.74734133  1
  O  O90  1  0.31347967  0.83036933  0.74689733  1
  O  O91  1  0.48323367  0.16302633  0.74734133  1
  O  O92  1  0.51684667  0.85682033  0.85751233  1
  O  O93  1  0.67979267  0.51676633  0.74734133  1
  O  O94  1  0.79964567  0.97269433  0.92390533  1
  O  O95  1  0.14317967  0.66002633  0.85751233  1
  O  O96  1  0.21298100  0.00908900  0.80938500  1
  O  O97  1  0.51688967  0.68652033  0.74689733  1
  O  O98  1  0.63568733  0.14335267  0.91539467  1
  O  O99  1  0.79610800  0.78701900  0.80938500  1
  O  O100  1  0.85664733  0.49233467  0.91539467  1
  O  O101  1  0.02730567  0.82695133  0.92390533  1
  O  O102  1  0.50766533  0.36431267  0.91539467  1
  O  O103  1  0.33997367  0.48315333  0.85751233  1
  O  O104  1  0.18191100  0.99143000  0.69160700  1
  O  O105  1  0.17304867  0.20035433  0.92390533  1
  O  O106  1  0.80951900  0.81808900  0.69160700  1
  O  O107  1  0.00857000  0.19048100  0.69160700  1
