# generated using pymatgen
data_Rb3Sn4Au
_symmetry_space_group_name_H-M   'P 1'
_cell_length_a   6.68692900
_cell_length_b   7.32048500
_cell_length_c   14.81804600
_cell_angle_alpha   90.00000000
_cell_angle_beta   90.00000000
_cell_angle_gamma   90.00000000
_symmetry_Int_Tables_number   1
_chemical_formula_structural   Rb3Sn4Au
_chemical_formula_sum   'Rb6 Sn8 Au2'
_cell_volume   725.36651883
_cell_formula_units_Z   2
loop_
 _symmetry_equiv_pos_site_id
 _symmetry_equiv_pos_as_xyz
  1  'x, y, z'
loop_
 _atom_site_type_symbol
 _atom_site_label
 _atom_site_symmetry_multiplicity
 _atom_site_fract_x
 _atom_site_fract_y
 _atom_site_fract_z
 _atom_site_occupancy
  Rb  Rb0  1  0.51281600  0.00000000  0.00000000  1
  Rb  Rb1  1  0.93257400  0.00000000  0.19609700  1
  Rb  Rb2  1  0.93257400  0.00000000  0.80390300  1
  Rb  Rb3  1  0.06742600  0.50000000  0.69609700  1
  Rb  Rb4  1  0.06742600  0.50000000  0.30390300  1
  Rb  Rb5  1  0.48718400  0.50000000  0.50000000  1
  Sn  Sn6  1  0.93589900  0.78870100  0.50000000  1
  Sn  Sn7  1  0.62969000  0.00000000  0.39435400  1
  Sn  Sn8  1  0.62969000  0.00000000  0.60564600  1
  Sn  Sn9  1  0.93589900  0.21129900  0.50000000  1
  Sn  Sn10  1  0.06410100  0.28870100  0.00000000  1
  Sn  Sn11  1  0.37031000  0.50000000  0.89435400  1
  Sn  Sn12  1  0.37031000  0.50000000  0.10564600  1
  Sn  Sn13  1  0.06410100  0.71129900  0.00000000  1
  Au  Au14  1  0.28415600  0.00000000  0.50000000  1
  Au  Au15  1  0.71584400  0.50000000  0.00000000  1
