# generated using pymatgen
data_Li2AgF5
_symmetry_space_group_name_H-M   'P 1'
_cell_length_a   10.28052600
_cell_length_b   5.29125600
_cell_length_c   8.02446540
_cell_angle_alpha   90.00000000
_cell_angle_beta   113.15129976
_cell_angle_gamma   90.00000000
_symmetry_Int_Tables_number   1
_chemical_formula_structural   Li2AgF5
_chemical_formula_sum   'Li8 Ag4 F20'
_cell_volume   401.35410724
_cell_formula_units_Z   4
loop_
 _symmetry_equiv_pos_site_id
 _symmetry_equiv_pos_as_xyz
  1  'x, y, z'
loop_
 _atom_site_type_symbol
 _atom_site_label
 _atom_site_symmetry_multiplicity
 _atom_site_fract_x
 _atom_site_fract_y
 _atom_site_fract_z
 _atom_site_occupancy
  Li  Li0  1  0.13316500  0.48888000  0.73726100  1
  Li  Li1  1  0.13316500  0.51112000  0.23726100  1
  Li  Li2  1  0.36683500  0.98888000  0.76273900  1
  Li  Li3  1  0.36683500  0.01112000  0.26273900  1
  Li  Li4  1  0.63316500  0.98888000  0.73726100  1
  Li  Li5  1  0.63316500  0.01112000  0.23726100  1
  Li  Li6  1  0.86683500  0.48888000  0.76273900  1
  Li  Li7  1  0.86683500  0.51112000  0.26273900  1
  Ag  Ag8  1  0.00000000  0.00000000  0.00000000  1
  Ag  Ag9  1  0.00000000  0.00000000  0.50000000  1
  Ag  Ag10  1  0.50000000  0.50000000  0.00000000  1
  Ag  Ag11  1  0.50000000  0.50000000  0.50000000  1
  F  F12  1  0.09043600  0.31094500  0.95782500  1
  F  F13  1  0.31541200  0.33822300  0.34286400  1
  F  F14  1  0.31541200  0.66177700  0.84286400  1
  F  F15  1  0.09043600  0.68905500  0.45782500  1
  F  F16  1  0.00000000  0.72636700  0.75000000  1
  F  F17  1  0.00000000  0.27363300  0.25000000  1
  F  F18  1  0.40956400  0.81094500  0.54217500  1
  F  F19  1  0.18458800  0.83822300  0.15713600  1
  F  F20  1  0.18458800  0.16177700  0.65713600  1
  F  F21  1  0.40956400  0.18905500  0.04217500  1
  F  F22  1  0.59043600  0.81094500  0.95782500  1
  F  F23  1  0.81541200  0.83822300  0.34286400  1
  F  F24  1  0.81541200  0.16177700  0.84286400  1
  F  F25  1  0.59043600  0.18905500  0.45782500  1
  F  F26  1  0.50000000  0.22636700  0.75000000  1
  F  F27  1  0.50000000  0.77363300  0.25000000  1
  F  F28  1  0.90956400  0.31094500  0.54217500  1
  F  F29  1  0.68458800  0.33822300  0.15713600  1
  F  F30  1  0.68458800  0.66177700  0.65713600  1
  F  F31  1  0.90956400  0.68905500  0.04217500  1
