# generated using pymatgen
data_LiMnF3
_symmetry_space_group_name_H-M   'P 1'
_cell_length_a   11.92916600
_cell_length_b   7.83057600
_cell_length_c   6.17613078
_cell_angle_alpha   90.00000000
_cell_angle_beta   119.18442068
_cell_angle_gamma   90.00000000
_symmetry_Int_Tables_number   1
_chemical_formula_structural   LiMnF3
_chemical_formula_sum   'Li8 Mn8 F24'
_cell_volume   503.68814459
_cell_formula_units_Z   8
loop_
 _symmetry_equiv_pos_site_id
 _symmetry_equiv_pos_as_xyz
  1  'x, y, z'
loop_
 _atom_site_type_symbol
 _atom_site_label
 _atom_site_symmetry_multiplicity
 _atom_site_fract_x
 _atom_site_fract_y
 _atom_site_fract_z
 _atom_site_occupancy
  Li  Li0  1  0.47825200  0.71672500  0.79219000  1
  Li  Li1  1  0.52029100  0.27903600  0.77776200  1
  Li  Li2  1  0.47825200  0.28327500  0.29219000  1
  Li  Li3  1  0.52029100  0.72096400  0.27776200  1
  Li  Li4  1  0.97825200  0.21672500  0.79219000  1
  Li  Li5  1  0.02029100  0.77903600  0.77776200  1
  Li  Li6  1  0.97825200  0.78327500  0.29219000  1
  Li  Li7  1  0.02029100  0.22096400  0.27776200  1
  Mn  Mn8  1  0.74538350  0.05783750  0.36268000  1
  Mn  Mn9  1  0.74538350  0.94216250  0.86268000  1
  Mn  Mn10  1  0.26542750  0.05432450  0.17745500  1
  Mn  Mn11  1  0.26542750  0.94567550  0.67745500  1
  Mn  Mn12  1  0.24538350  0.55783750  0.36268000  1
  Mn  Mn13  1  0.24538350  0.44216250  0.86268000  1
  Mn  Mn14  1  0.76542750  0.55432450  0.17745500  1
  Mn  Mn15  1  0.76542750  0.44567550  0.67745500  1
  F  F16  1  0.88743150  0.00310050  0.74470500  1
  F  F17  1  0.88743150  0.99689950  0.24470500  1
  F  F18  1  0.64932450  0.78006450  0.99887200  1
  F  F19  1  0.64569100  0.12045300  0.98560600  1
  F  F20  1  0.64932450  0.21993550  0.49887200  1
  F  F21  1  0.64569100  0.87954700  0.48560600  1
  F  F22  1  0.40578750  0.17879150  0.47835800  1
  F  F23  1  0.35572500  0.82149300  0.46518600  1
  F  F24  1  0.40578750  0.82120850  0.97835800  1
  F  F25  1  0.35572500  0.17850700  0.96518600  1
  F  F26  1  0.13968650  0.95674250  0.82818700  1
  F  F27  1  0.13968650  0.04325750  0.32818700  1
  F  F28  1  0.38743150  0.50310050  0.74470500  1
  F  F29  1  0.38743150  0.49689950  0.24470500  1
  F  F30  1  0.14932450  0.28006450  0.99887200  1
  F  F31  1  0.14569100  0.62045300  0.98560600  1
  F  F32  1  0.14932450  0.71993550  0.49887200  1
  F  F33  1  0.14569100  0.37954700  0.48560600  1
  F  F34  1  0.90578750  0.67879150  0.47835800  1
  F  F35  1  0.85572500  0.32149300  0.46518600  1
  F  F36  1  0.90578750  0.32120850  0.97835800  1
  F  F37  1  0.85572500  0.67850700  0.96518600  1
  F  F38  1  0.63968650  0.45674250  0.82818700  1
  F  F39  1  0.63968650  0.54325750  0.32818700  1
