# generated using pymatgen
data_Li2VO2F
_symmetry_space_group_name_H-M   'P 1'
_cell_length_a   15.66160000
_cell_length_b   3.02438600
_cell_length_c   10.39391316
_cell_angle_alpha   90.00000000
_cell_angle_beta   109.97841577
_cell_angle_gamma   90.00000000
_symmetry_Int_Tables_number   1
_chemical_formula_structural   Li2VO2F
_chemical_formula_sum   'Li16 V8 O16 F8'
_cell_volume   462.69814662
_cell_formula_units_Z   8
loop_
 _symmetry_equiv_pos_site_id
 _symmetry_equiv_pos_as_xyz
  1  'x, y, z'
loop_
 _atom_site_type_symbol
 _atom_site_label
 _atom_site_symmetry_multiplicity
 _atom_site_fract_x
 _atom_site_fract_y
 _atom_site_fract_z
 _atom_site_occupancy
  Li  Li0  1  0.07624300  0.00000000  0.69849700  1
  Li  Li1  1  0.07276400  0.00000000  0.19171000  1
  Li  Li2  1  0.43782600  0.00000000  0.03802400  1
  Li  Li3  1  0.42083300  0.00000000  0.54320800  1
  Li  Li4  1  0.42593300  0.50000000  0.29636000  1
  Li  Li5  1  0.08142900  0.50000000  0.45342900  1
  Li  Li6  1  0.06386800  0.50000000  0.97077800  1
  Li  Li7  1  0.43487800  0.50000000  0.80947800  1
  Li  Li8  1  0.57624300  0.50000000  0.69849700  1
  Li  Li9  1  0.57276400  0.50000000  0.19171000  1
  Li  Li10  1  0.93782600  0.50000000  0.03802400  1
  Li  Li11  1  0.92083300  0.50000000  0.54320800  1
  Li  Li12  1  0.92593300  0.00000000  0.29636000  1
  Li  Li13  1  0.58142900  0.00000000  0.45342900  1
  Li  Li14  1  0.56386800  0.00000000  0.97077800  1
  Li  Li15  1  0.93487800  0.00000000  0.80947800  1
  V  V16  1  0.25126000  0.00000000  0.13188500  1
  V  V17  1  0.25187100  0.00000000  0.62251700  1
  V  V18  1  0.25107200  0.50000000  0.37705300  1
  V  V19  1  0.26205800  0.50000000  0.87078500  1
  V  V20  1  0.75126000  0.50000000  0.13188500  1
  V  V21  1  0.75187100  0.50000000  0.62251700  1
  V  V22  1  0.75107200  0.00000000  0.37705300  1
  V  V23  1  0.76205800  0.00000000  0.87078500  1
  O  O24  1  0.32853700  0.00000000  0.82698500  1
  O  O25  1  0.32828300  0.00000000  0.33259000  1
  O  O26  1  0.17509700  0.00000000  0.42222800  1
  O  O27  1  0.31600200  0.50000000  0.07444100  1
  O  O28  1  0.17684800  0.50000000  0.17430900  1
  O  O29  1  0.32710200  0.50000000  0.57930200  1
  O  O30  1  0.17734200  0.50000000  0.67469000  1
  O  O31  1  0.00151500  0.00000000  0.00070700  1
  O  O32  1  0.82853700  0.50000000  0.82698500  1
  O  O33  1  0.82828300  0.50000000  0.33259000  1
  O  O34  1  0.67509700  0.50000000  0.42222800  1
  O  O35  1  0.81600200  0.00000000  0.07444100  1
  O  O36  1  0.67684800  0.00000000  0.17430900  1
  O  O37  1  0.82710200  0.00000000  0.57930200  1
  O  O38  1  0.67734200  0.00000000  0.67469000  1
  O  O39  1  0.50151500  0.50000000  0.00070700  1
  F  F40  1  0.17473500  0.00000000  0.91111300  1
  F  F41  1  0.49967200  0.00000000  0.25916500  1
  F  F42  1  0.00396500  0.50000000  0.74034500  1
  F  F43  1  0.00237100  0.00000000  0.50039800  1
  F  F44  1  0.67473500  0.50000000  0.91111300  1
  F  F45  1  0.99967200  0.50000000  0.25916500  1
  F  F46  1  0.50396500  0.00000000  0.74034500  1
  F  F47  1  0.50237100  0.50000000  0.50039800  1
