# generated using pymatgen
data_Sb3O4F
_symmetry_space_group_name_H-M   'P 1'
_cell_length_a   17.81593400
_cell_length_b   5.45537600
_cell_length_c   5.66185830
_cell_angle_alpha   90.00000000
_cell_angle_beta   102.24456436
_cell_angle_gamma   90.00000000
_symmetry_Int_Tables_number   1
_chemical_formula_structural   Sb3O4F
_chemical_formula_sum   'Sb12 O16 F4'
_cell_volume   537.77239678
_cell_formula_units_Z   4
loop_
 _symmetry_equiv_pos_site_id
 _symmetry_equiv_pos_as_xyz
  1  'x, y, z'
loop_
 _atom_site_type_symbol
 _atom_site_label
 _atom_site_symmetry_multiplicity
 _atom_site_fract_x
 _atom_site_fract_y
 _atom_site_fract_z
 _atom_site_occupancy
  Sb  Sb0  1  0.15722550  0.20908650  0.28693300  1
  Sb  Sb1  1  0.49796550  0.18824650  0.25502200  1
  Sb  Sb2  1  0.15722550  0.79091350  0.78693300  1
  Sb  Sb3  1  0.49796550  0.81175350  0.75502200  1
  Sb  Sb4  1  0.33781150  0.70075250  0.21755900  1
  Sb  Sb5  1  0.33781150  0.29924750  0.71755900  1
  Sb  Sb6  1  0.65722550  0.70908650  0.28693300  1
  Sb  Sb7  1  0.99796550  0.68824650  0.25502200  1
  Sb  Sb8  1  0.65722550  0.29091350  0.78693300  1
  Sb  Sb9  1  0.99796550  0.31175350  0.75502200  1
  Sb  Sb10  1  0.83781150  0.20075250  0.21755900  1
  Sb  Sb11  1  0.83781150  0.79924750  0.71755900  1
  O  O12  1  0.06231450  0.41499750  0.13410800  1
  O  O13  1  0.11021250  0.05583850  0.55221700  1
  O  O14  1  0.38978750  0.55583850  0.94778300  1
  O  O15  1  0.06231450  0.58500250  0.63410800  1
  O  O16  1  0.43185300  0.91693100  0.37465000  1
  O  O17  1  0.11021250  0.94416150  0.05221700  1
  O  O18  1  0.38978750  0.44416150  0.44778300  1
  O  O19  1  0.43185300  0.08306900  0.87465000  1
  O  O20  1  0.56231450  0.91499750  0.13410800  1
  O  O21  1  0.61021250  0.55583850  0.55221700  1
  O  O22  1  0.88978750  0.05583850  0.94778300  1
  O  O23  1  0.56231450  0.08500250  0.63410800  1
  O  O24  1  0.93185300  0.41693100  0.37465000  1
  O  O25  1  0.61021250  0.44416150  0.05221700  1
  O  O26  1  0.88978750  0.94416150  0.44778300  1
  O  O27  1  0.93185300  0.58306900  0.87465000  1
  F  F28  1  0.25000000  0.75000000  0.50000000  1
  F  F29  1  0.25000000  0.25000000  0.00000000  1
  F  F30  1  0.75000000  0.25000000  0.50000000  1
  F  F31  1  0.75000000  0.75000000  0.00000000  1
