# generated using pymatgen
data_BaLaI5
_symmetry_space_group_name_H-M   'P 1'
_cell_length_a   14.34550000
_cell_length_b   10.20571000
_cell_length_c   12.19365587
_cell_angle_alpha   90.00000000
_cell_angle_beta   115.14123314
_cell_angle_gamma   90.00000000
_symmetry_Int_Tables_number   1
_chemical_formula_structural   BaLaI5
_chemical_formula_sum   'Ba4 La4 I20'
_cell_volume   1616.09823376
_cell_formula_units_Z   4
loop_
 _symmetry_equiv_pos_site_id
 _symmetry_equiv_pos_as_xyz
  1  'x, y, z'
loop_
 _atom_site_type_symbol
 _atom_site_label
 _atom_site_symmetry_multiplicity
 _atom_site_fract_x
 _atom_site_fract_y
 _atom_site_fract_z
 _atom_site_occupancy
  Ba  Ba0  1  0.00000000  0.54905100  0.25000000  1
  Ba  Ba1  1  0.00000000  0.45094900  0.75000000  1
  Ba  Ba2  1  0.50000000  0.04905100  0.25000000  1
  Ba  Ba3  1  0.50000000  0.95094900  0.75000000  1
  La  La4  1  0.00000000  0.00000000  0.50000000  1
  La  La5  1  0.00000000  0.00000000  0.00000000  1
  La  La6  1  0.50000000  0.50000000  0.50000000  1
  La  La7  1  0.50000000  0.50000000  0.00000000  1
  I  I8  1  0.73821150  0.52101350  0.12357800  1
  I  I9  1  0.98729200  0.30805000  0.03100400  1
  I  I10  1  0.73821150  0.47898650  0.62357800  1
  I  I11  1  0.00000000  0.90316000  0.25000000  1
  I  I12  1  0.01270800  0.30805000  0.46899600  1
  I  I13  1  0.98729200  0.69195000  0.53100400  1
  I  I14  1  0.00000000  0.09684000  0.75000000  1
  I  I15  1  0.26178850  0.52101350  0.37642200  1
  I  I16  1  0.01270800  0.69195000  0.96899600  1
  I  I17  1  0.26178850  0.47898650  0.87642200  1
  I  I18  1  0.23821150  0.02101350  0.12357800  1
  I  I19  1  0.48729200  0.80805000  0.03100400  1
  I  I20  1  0.23821150  0.97898650  0.62357800  1
  I  I21  1  0.50000000  0.40316000  0.25000000  1
  I  I22  1  0.51270800  0.80805000  0.46899600  1
  I  I23  1  0.48729200  0.19195000  0.53100400  1
  I  I24  1  0.50000000  0.59684000  0.75000000  1
  I  I25  1  0.76178850  0.02101350  0.37642200  1
  I  I26  1  0.51270800  0.19195000  0.96899600  1
  I  I27  1  0.76178850  0.97898650  0.87642200  1
