# generated using pymatgen
data_Al4P3(HO5)3
_symmetry_space_group_name_H-M   'P 1'
_cell_length_a   19.24517000
_cell_length_b   7.21332800
_cell_length_c   7.24541678
_cell_angle_alpha   90.00000000
_cell_angle_beta   102.26667298
_cell_angle_gamma   90.00000000
_symmetry_Int_Tables_number   1
_chemical_formula_structural   Al4P3(HO5)3
_chemical_formula_sum   'Al16 P12 H12 O60'
_cell_volume   982.85766445
_cell_formula_units_Z   4
loop_
 _symmetry_equiv_pos_site_id
 _symmetry_equiv_pos_as_xyz
  1  'x, y, z'
loop_
 _atom_site_type_symbol
 _atom_site_label
 _atom_site_symmetry_multiplicity
 _atom_site_fract_x
 _atom_site_fract_y
 _atom_site_fract_z
 _atom_site_occupancy
  Al  Al0  1  0.16744200  0.00718100  0.84824800  1
  Al  Al1  1  0.16744200  0.99281900  0.34824800  1
  Al  Al2  1  0.33255800  0.49281900  0.15175200  1
  Al  Al3  1  0.33255800  0.50718100  0.65175200  1
  Al  Al4  1  0.07555000  0.72894600  0.65926400  1
  Al  Al5  1  0.07555000  0.27105400  0.15926400  1
  Al  Al6  1  0.42445000  0.77105400  0.34073600  1
  Al  Al7  1  0.42445000  0.22894600  0.84073600  1
  Al  Al8  1  0.66744200  0.50718100  0.84824800  1
  Al  Al9  1  0.66744200  0.49281900  0.34824800  1
  Al  Al10  1  0.83255800  0.99281900  0.15175200  1
  Al  Al11  1  0.83255800  0.00718100  0.65175200  1
  Al  Al12  1  0.57555000  0.22894600  0.65926400  1
  Al  Al13  1  0.57555000  0.77105400  0.15926400  1
  Al  Al14  1  0.92445000  0.27105400  0.34073600  1
  Al  Al15  1  0.92445000  0.72894600  0.84073600  1
  P  P16  1  0.00000000  0.11750600  0.75000000  1
  P  P17  1  0.00000000  0.88249400  0.25000000  1
  P  P18  1  0.16882600  0.63221200  0.08823100  1
  P  P19  1  0.16882600  0.36778800  0.58823100  1
  P  P20  1  0.33117400  0.86778800  0.91176900  1
  P  P21  1  0.33117400  0.13221200  0.41176900  1
  P  P22  1  0.50000000  0.61750600  0.75000000  1
  P  P23  1  0.50000000  0.38249400  0.25000000  1
  P  P24  1  0.66882600  0.13221200  0.08823100  1
  P  P25  1  0.66882600  0.86778800  0.58823100  1
  P  P26  1  0.83117400  0.36778800  0.91176900  1
  P  P27  1  0.83117400  0.63221200  0.41176900  1
  H  H28  1  0.00000000  0.50243200  0.75000000  1
  H  H29  1  0.00000000  0.49756800  0.25000000  1
  H  H30  1  0.20022100  0.20888800  0.11198600  1
  H  H31  1  0.20022100  0.79111200  0.61198600  1
  H  H32  1  0.29977900  0.29111200  0.88801400  1
  H  H33  1  0.29977900  0.70888800  0.38801400  1
  H  H34  1  0.50000000  0.00243200  0.75000000  1
  H  H35  1  0.50000000  0.99756800  0.25000000  1
  H  H36  1  0.70022100  0.70888800  0.11198600  1
  H  H37  1  0.70022100  0.29111200  0.61198600  1
  H  H38  1  0.79977900  0.79111200  0.88801400  1
  H  H39  1  0.79977900  0.20888800  0.38801400  1
  O  O40  1  0.06442000  0.98770900  0.74184400  1
  O  O41  1  0.06442000  0.01229100  0.24184400  1
  O  O42  1  0.43558000  0.51229100  0.25815600  1
  O  O43  1  0.43558000  0.48770900  0.75815600  1
  O  O44  1  0.02053850  0.23885650  0.92325000  1
  O  O45  1  0.02053850  0.76114350  0.42325000  1
  O  O46  1  0.47946150  0.26114350  0.07675000  1
  O  O47  1  0.47946150  0.73885650  0.57675000  1
  O  O48  1  0.23813000  0.53615500  0.07148000  1
  O  O49  1  0.23813000  0.46384500  0.57148000  1
  O  O50  1  0.26187000  0.96384500  0.92852000  1
  O  O51  1  0.26187000  0.03615500  0.42852000  1
  O  O52  1  0.11224500  0.48930700  0.10231100  1
  O  O53  1  0.11224500  0.51069300  0.60231100  1
  O  O54  1  0.38775500  0.01069300  0.89768900  1
  O  O55  1  0.38775500  0.98930700  0.39768900  1
  O  O56  1  0.14225850  0.75395550  0.90566400  1
  O  O57  1  0.14225850  0.24604450  0.40566400  1
  O  O58  1  0.35774150  0.74604450  0.09433600  1
  O  O59  1  0.35774150  0.25395550  0.59433600  1
  O  O60  1  0.18176550  0.76441550  0.25774900  1
  O  O61  1  0.18176550  0.23558450  0.75774900  1
  O  O62  1  0.31823450  0.73558450  0.74225100  1
  O  O63  1  0.31823450  0.26441550  0.24225100  1
  O  O64  1  0.00000000  0.63825300  0.75000000  1
  O  O65  1  0.00000000  0.36174700  0.25000000  1
  O  O66  1  0.16031400  0.12014600  0.09256100  1
  O  O67  1  0.16031400  0.87985400  0.59256100  1
  O  O68  1  0.33968600  0.37985400  0.90743900  1
  O  O69  1  0.33968600  0.62014600  0.40743900  1
  O  O70  1  0.56442000  0.48770900  0.74184400  1
  O  O71  1  0.56442000  0.51229100  0.24184400  1
  O  O72  1  0.93558000  0.01229100  0.25815600  1
  O  O73  1  0.93558000  0.98770900  0.75815600  1
  O  O74  1  0.52053850  0.73885650  0.92325000  1
  O  O75  1  0.52053850  0.26114350  0.42325000  1
  O  O76  1  0.97946150  0.76114350  0.07675000  1
  O  O77  1  0.97946150  0.23885650  0.57675000  1
  O  O78  1  0.73813000  0.03615500  0.07148000  1
  O  O79  1  0.73813000  0.96384500  0.57148000  1
  O  O80  1  0.76187000  0.46384500  0.92852000  1
  O  O81  1  0.76187000  0.53615500  0.42852000  1
  O  O82  1  0.61224500  0.98930700  0.10231100  1
  O  O83  1  0.61224500  0.01069300  0.60231100  1
  O  O84  1  0.88775500  0.51069300  0.89768900  1
  O  O85  1  0.88775500  0.48930700  0.39768900  1
  O  O86  1  0.64225850  0.25395550  0.90566400  1
  O  O87  1  0.64225850  0.74604450  0.40566400  1
  O  O88  1  0.85774150  0.24604450  0.09433600  1
  O  O89  1  0.85774150  0.75395550  0.59433600  1
  O  O90  1  0.68176550  0.26441550  0.25774900  1
  O  O91  1  0.68176550  0.73558450  0.75774900  1
  O  O92  1  0.81823450  0.23558450  0.74225100  1
  O  O93  1  0.81823450  0.76441550  0.24225100  1
  O  O94  1  0.50000000  0.13825300  0.75000000  1
  O  O95  1  0.50000000  0.86174700  0.25000000  1
  O  O96  1  0.66031400  0.62014600  0.09256100  1
  O  O97  1  0.66031400  0.37985400  0.59256100  1
  O  O98  1  0.83968600  0.87985400  0.90743900  1
  O  O99  1  0.83968600  0.12014600  0.40743900  1
