# generated using pymatgen
data_Li2FeCo3O8
_symmetry_space_group_name_H-M   'P 1'
_cell_length_a   10.10852800
_cell_length_b   5.76957000
_cell_length_c   5.97119986
_cell_angle_alpha   90.00000000
_cell_angle_beta   124.79154292
_cell_angle_gamma   90.00000000
_symmetry_Int_Tables_number   1
_chemical_formula_structural   Li2FeCo3O8
_chemical_formula_sum   'Li4 Fe2 Co6 O16'
_cell_volume   285.99576213
_cell_formula_units_Z   2
loop_
 _symmetry_equiv_pos_site_id
 _symmetry_equiv_pos_as_xyz
  1  'x, y, z'
loop_
 _atom_site_type_symbol
 _atom_site_label
 _atom_site_symmetry_multiplicity
 _atom_site_fract_x
 _atom_site_fract_y
 _atom_site_fract_z
 _atom_site_occupancy
  Li  Li0  1  0.00000000  0.50000000  0.50000000  1
  Li  Li1  1  0.00000000  0.00000000  0.50000000  1
  Li  Li2  1  0.50000000  0.00000000  0.50000000  1
  Li  Li3  1  0.50000000  0.50000000  0.50000000  1
  Fe  Fe4  1  0.00000000  0.00000000  0.00000000  1
  Fe  Fe5  1  0.50000000  0.50000000  0.00000000  1
  Co  Co6  1  0.00000000  0.50000000  0.00000000  1
  Co  Co7  1  0.75000000  0.75000000  0.00000000  1
  Co  Co8  1  0.75000000  0.25000000  0.00000000  1
  Co  Co9  1  0.50000000  0.00000000  0.00000000  1
  Co  Co10  1  0.25000000  0.25000000  0.00000000  1
  Co  Co11  1  0.25000000  0.75000000  0.00000000  1
  O  O12  1  0.02259850  0.25234650  0.78670200  1
  O  O13  1  0.74390000  0.00000000  0.20154000  1
  O  O14  1  0.02259850  0.74765350  0.78670200  1
  O  O15  1  0.25544800  0.50000000  0.79890700  1
  O  O16  1  0.74455200  0.50000000  0.20109300  1
  O  O17  1  0.97740150  0.25234650  0.21329800  1
  O  O18  1  0.25610000  0.00000000  0.79846000  1
  O  O19  1  0.97740150  0.74765350  0.21329800  1
  O  O20  1  0.52259850  0.75234650  0.78670200  1
  O  O21  1  0.24390000  0.50000000  0.20154000  1
  O  O22  1  0.52259850  0.24765350  0.78670200  1
  O  O23  1  0.75544800  0.00000000  0.79890700  1
  O  O24  1  0.24455200  0.00000000  0.20109300  1
  O  O25  1  0.47740150  0.75234650  0.21329800  1
  O  O26  1  0.75610000  0.50000000  0.79846000  1
  O  O27  1  0.47740150  0.24765350  0.21329800  1
