# generated using pymatgen
data_Tb2Ti2O7
_symmetry_space_group_name_H-M   'P 1'
_cell_length_a   7.01342000
_cell_length_b   7.01342000
_cell_length_c   12.73197400
_cell_angle_alpha   90.00000000
_cell_angle_beta   90.00000000
_cell_angle_gamma   90.00000000
_symmetry_Int_Tables_number   1
_chemical_formula_structural   Tb2Ti2O7
_chemical_formula_sum   'Tb8 Ti8 O28'
_cell_volume   626.26110226
_cell_formula_units_Z   4
loop_
 _symmetry_equiv_pos_site_id
 _symmetry_equiv_pos_as_xyz
  1  'x, y, z'
loop_
 _atom_site_type_symbol
 _atom_site_label
 _atom_site_symmetry_multiplicity
 _atom_site_fract_x
 _atom_site_fract_y
 _atom_site_fract_z
 _atom_site_occupancy
  Tb  Tb0  1  0.63017200  0.14000200  0.13567500  1
  Tb  Tb1  1  0.64000200  0.86982800  0.88567500  1
  Tb  Tb2  1  0.85999800  0.36982800  0.36432500  1
  Tb  Tb3  1  0.86982800  0.64000200  0.11432500  1
  Tb  Tb4  1  0.13017200  0.35999800  0.61432500  1
  Tb  Tb5  1  0.14000200  0.63017200  0.86432500  1
  Tb  Tb6  1  0.35999800  0.13017200  0.38567500  1
  Tb  Tb7  1  0.36982800  0.85999800  0.63567500  1
  Ti  Ti8  1  0.60025800  0.35183800  0.61294500  1
  Ti  Ti9  1  0.64816200  0.39974200  0.88705500  1
  Ti  Ti10  1  0.85183800  0.89974200  0.36294500  1
  Ti  Ti11  1  0.89974200  0.85183800  0.63705500  1
  Ti  Ti12  1  0.10025800  0.14816200  0.13705500  1
  Ti  Ti13  1  0.14816200  0.10025800  0.86294500  1
  Ti  Ti14  1  0.35183800  0.60025800  0.38705500  1
  Ti  Ti15  1  0.39974200  0.64816200  0.11294500  1
  O  O16  1  0.54248200  0.42525500  0.38729900  1
  O  O17  1  0.57362000  0.83394800  0.07115100  1
  O  O18  1  0.57474500  0.45751800  0.11270100  1
  O  O19  1  0.63714200  0.16995700  0.95694200  1
  O  O20  1  0.66605200  0.07362000  0.32115100  1
  O  O21  1  0.66995700  0.86285800  0.70694200  1
  O  O22  1  0.67818800  0.32181200  0.75000000  1
  O  O23  1  0.82181200  0.82181200  0.50000000  1
  O  O24  1  0.83004300  0.36285800  0.54305800  1
  O  O25  1  0.83394800  0.57362000  0.92884900  1
  O  O26  1  0.86285800  0.66995700  0.29305800  1
  O  O27  1  0.92525500  0.95751800  0.13729900  1
  O  O28  1  0.92638000  0.33394800  0.17884900  1
  O  O29  1  0.95751800  0.92525500  0.86270100  1
  O  O30  1  0.04248200  0.07474500  0.36270100  1
  O  O31  1  0.07362000  0.66605200  0.67884900  1
  O  O32  1  0.07474500  0.04248200  0.63729900  1
  O  O33  1  0.13714200  0.33004300  0.79305800  1
  O  O34  1  0.16605200  0.42638000  0.42884900  1
  O  O35  1  0.16995700  0.63714200  0.04305800  1
  O  O36  1  0.17818800  0.17818800  0.00000000  1
  O  O37  1  0.32181200  0.67818800  0.25000000  1
  O  O38  1  0.33004300  0.13714200  0.20694200  1
  O  O39  1  0.33394800  0.92638000  0.82115100  1
  O  O40  1  0.36285800  0.83004300  0.45694200  1
  O  O41  1  0.42525500  0.54248200  0.61270100  1
  O  O42  1  0.42638000  0.16605200  0.57115100  1
  O  O43  1  0.45751800  0.57474500  0.88729900  1
