# generated using pymatgen
data_NaSn2(PO4)3
_symmetry_space_group_name_H-M   'P 1'
_cell_length_a   8.61544700
_cell_length_b   8.64924085
_cell_length_c   9.13777391
_cell_angle_alpha   62.11144336
_cell_angle_beta   62.19591472
_cell_angle_gamma   60.14067892
_symmetry_Int_Tables_number   1
_chemical_formula_structural   NaSn2(PO4)3
_chemical_formula_sum   'Na2 Sn4 P6 O24'
_cell_volume   497.12291060
_cell_formula_units_Z   2
loop_
 _symmetry_equiv_pos_site_id
 _symmetry_equiv_pos_as_xyz
  1  'x, y, z'
loop_
 _atom_site_type_symbol
 _atom_site_label
 _atom_site_symmetry_multiplicity
 _atom_site_fract_x
 _atom_site_fract_y
 _atom_site_fract_z
 _atom_site_occupancy
  Na  Na0  1  0.83520200  0.51882800  0.43813500  1
  Na  Na1  1  0.16479800  0.48117200  0.56186500  1
  Sn  Sn2  1  0.14703000  0.65207900  0.06437400  1
  Sn  Sn3  1  0.64901600  0.14668700  0.55799400  1
  Sn  Sn4  1  0.35098400  0.85331300  0.44200600  1
  Sn  Sn5  1  0.85297000  0.34792100  0.93562600  1
  P  P6  1  0.53960800  0.45960600  0.74770500  1
  P  P7  1  0.74755200  0.97024600  0.24439000  1
  P  P8  1  0.03579100  0.25105500  0.24730600  1
  P  P9  1  0.96420900  0.74894500  0.75269400  1
  P  P10  1  0.25244800  0.02975400  0.75561000  1
  P  P11  1  0.46039200  0.54039400  0.25229500  1
  O  O12  1  0.88938800  0.76969800  0.23522400  1
  O  O13  1  0.53327200  0.63203200  0.57998800  1
  O  O14  1  0.39019000  0.51082500  0.91023300  1
  O  O15  1  0.74163200  0.39539100  0.75426000  1
  O  O16  1  0.10665600  0.39689300  0.22725400  1
  O  O17  1  0.79344200  0.10912100  0.06080900  1
  O  O18  1  0.52069000  0.30257600  0.72806100  1
  O  O19  1  0.22407500  0.99478400  0.62059400  1
  O  O20  1  0.84272000  0.28290900  0.39399400  1
  O  O21  1  0.54432100  0.98350400  0.29733000  1
  O  O22  1  0.01374800  0.29014400  0.07457300  1
  O  O23  1  0.17278700  0.05060700  0.29908200  1
  O  O24  1  0.82721300  0.94939300  0.70091800  1
  O  O25  1  0.98625200  0.70985600  0.92542700  1
  O  O26  1  0.45567900  0.01649600  0.70267000  1
  O  O27  1  0.15728000  0.71709100  0.60600600  1
  O  O28  1  0.77592500  0.00521600  0.37940600  1
  O  O29  1  0.47931000  0.69742400  0.27193900  1
  O  O30  1  0.20655800  0.89087900  0.93919100  1
  O  O31  1  0.89334400  0.60310700  0.77274600  1
  O  O32  1  0.25836800  0.60460900  0.24574000  1
  O  O33  1  0.60981000  0.48917500  0.08976700  1
  O  O34  1  0.46672800  0.36796800  0.42001200  1
  O  O35  1  0.11061200  0.23030200  0.76477600  1
