# generated using pymatgen
data_Fe4O3F5
_symmetry_space_group_name_H-M   'P 1'
_cell_length_a   9.95888600
_cell_length_b   6.25962200
_cell_length_c   9.29526294
_cell_angle_alpha   90.00000000
_cell_angle_beta   91.68742900
_cell_angle_gamma   90.00000000
_symmetry_Int_Tables_number   1
_chemical_formula_structural   Fe4O3F5
_chemical_formula_sum   'Fe16 O12 F20'
_cell_volume   579.20482854
_cell_formula_units_Z   4
loop_
 _symmetry_equiv_pos_site_id
 _symmetry_equiv_pos_as_xyz
  1  'x, y, z'
loop_
 _atom_site_type_symbol
 _atom_site_label
 _atom_site_symmetry_multiplicity
 _atom_site_fract_x
 _atom_site_fract_y
 _atom_site_fract_z
 _atom_site_occupancy
  Fe  Fe0  1  0.75000000  0.25000000  0.00000000  1
  Fe  Fe1  1  0.75000000  0.25000000  0.50000000  1
  Fe  Fe2  1  0.98135900  0.00000000  0.73594400  1
  Fe  Fe3  1  0.46280400  0.00000000  0.75908700  1
  Fe  Fe4  1  0.01864100  0.00000000  0.26405600  1
  Fe  Fe5  1  0.53719600  0.00000000  0.24091300  1
  Fe  Fe6  1  0.75000000  0.75000000  0.50000000  1
  Fe  Fe7  1  0.75000000  0.75000000  0.00000000  1
  Fe  Fe8  1  0.25000000  0.75000000  0.00000000  1
  Fe  Fe9  1  0.25000000  0.75000000  0.50000000  1
  Fe  Fe10  1  0.48135900  0.50000000  0.73594400  1
  Fe  Fe11  1  0.96280400  0.50000000  0.75908700  1
  Fe  Fe12  1  0.51864100  0.50000000  0.26405600  1
  Fe  Fe13  1  0.03719600  0.50000000  0.24091300  1
  Fe  Fe14  1  0.25000000  0.25000000  0.50000000  1
  Fe  Fe15  1  0.25000000  0.25000000  0.00000000  1
  O  O16  1  0.60361650  0.25233750  0.35656800  1
  O  O17  1  0.39638350  0.25233750  0.64343200  1
  O  O18  1  0.34273200  0.00000000  0.90751000  1
  O  O19  1  0.65726800  0.00000000  0.09249000  1
  O  O20  1  0.60361650  0.74766250  0.35656800  1
  O  O21  1  0.39638350  0.74766250  0.64343200  1
  O  O22  1  0.10361650  0.75233750  0.35656800  1
  O  O23  1  0.89638350  0.75233750  0.64343200  1
  O  O24  1  0.84273200  0.50000000  0.90751000  1
  O  O25  1  0.15726800  0.50000000  0.09249000  1
  O  O26  1  0.10361650  0.24766250  0.35656800  1
  O  O27  1  0.89638350  0.24766250  0.64343200  1
  F  F28  1  0.58407200  0.25313300  0.83711200  1
  F  F29  1  0.41592800  0.25313300  0.16288800  1
  F  F30  1  0.34233400  0.00000000  0.40207300  1
  F  F31  1  0.85893600  0.00000000  0.89834600  1
  F  F32  1  0.84573200  0.00000000  0.39733900  1
  F  F33  1  0.65766600  0.00000000  0.59792700  1
  F  F34  1  0.15426800  0.00000000  0.60266100  1
  F  F35  1  0.14106400  0.00000000  0.10165400  1
  F  F36  1  0.58407200  0.74686700  0.83711200  1
  F  F37  1  0.41592800  0.74686700  0.16288800  1
  F  F38  1  0.08407200  0.75313300  0.83711200  1
  F  F39  1  0.91592800  0.75313300  0.16288800  1
  F  F40  1  0.84233400  0.50000000  0.40207300  1
  F  F41  1  0.35893600  0.50000000  0.89834600  1
  F  F42  1  0.34573200  0.50000000  0.39733900  1
  F  F43  1  0.15766600  0.50000000  0.59792700  1
  F  F44  1  0.65426800  0.50000000  0.60266100  1
  F  F45  1  0.64106400  0.50000000  0.10165400  1
  F  F46  1  0.08407200  0.24686700  0.83711200  1
  F  F47  1  0.91592800  0.24686700  0.16288800  1
