# generated using pymatgen
data_SmIO
_symmetry_space_group_name_H-M   'P 1'
_cell_length_a   4.02526495
_cell_length_b   4.02526495
_cell_length_c   32.92620589
_cell_angle_alpha   90.00000000
_cell_angle_beta   90.00000000
_cell_angle_gamma   120.00000000
_symmetry_Int_Tables_number   1
_chemical_formula_structural   SmIO
_chemical_formula_sum   'Sm6 I6 O6'
_cell_volume   462.02051940
_cell_formula_units_Z   6
loop_
 _symmetry_equiv_pos_site_id
 _symmetry_equiv_pos_as_xyz
  1  'x, y, z'
loop_
 _atom_site_type_symbol
 _atom_site_label
 _atom_site_symmetry_multiplicity
 _atom_site_fract_x
 _atom_site_fract_y
 _atom_site_fract_z
 _atom_site_occupancy
  Sm  Sm0  1  0.00000000  0.00000000  0.21062100  1
  Sm  Sm1  1  0.66666667  0.33333333  0.12271233  1
  Sm  Sm2  1  0.66666667  0.33333333  0.54395433  1
  Sm  Sm3  1  0.33333333  0.66666667  0.45604567  1
  Sm  Sm4  1  0.33333333  0.66666667  0.87728767  1
  Sm  Sm5  1  0.00000000  0.00000000  0.78937900  1
  I  I6  1  0.33333333  0.66666667  0.27790267  1
  I  I7  1  0.33333333  0.66666667  0.05543067  1
  I  I8  1  0.00000000  0.00000000  0.61123600  1
  I  I9  1  0.00000000  0.00000000  0.38876400  1
  I  I10  1  0.66666667  0.33333333  0.94456933  1
  I  I11  1  0.66666667  0.33333333  0.72209733  1
  O  O12  1  0.00000000  0.00000000  0.13993300  1
  O  O13  1  0.66666667  0.33333333  0.19340033  1
  O  O14  1  0.66666667  0.33333333  0.47326633  1
  O  O15  1  0.33333333  0.66666667  0.52673367  1
  O  O16  1  0.33333333  0.66666667  0.80659967  1
  O  O17  1  0.00000000  0.00000000  0.86006700  1
