# generated using pymatgen
data_FePH6NO5
_symmetry_space_group_name_H-M   'P 1'
_cell_length_a   4.81082287
_cell_length_b   5.73448532
_cell_length_c   9.02125507
_cell_angle_alpha   90.00000000
_cell_angle_beta   90.00000000
_cell_angle_gamma   90.00000000
_symmetry_Int_Tables_number   1
_chemical_formula_structural   FePH6NO5
_chemical_formula_sum   'Fe2 P2 H12 N2 O10'
_cell_volume   248.87471408
_cell_formula_units_Z   2
loop_
 _symmetry_equiv_pos_site_id
 _symmetry_equiv_pos_as_xyz
  1  'x, y, z'
loop_
 _atom_site_type_symbol
 _atom_site_label
 _atom_site_symmetry_multiplicity
 _atom_site_fract_x
 _atom_site_fract_y
 _atom_site_fract_z
 _atom_site_occupancy
  Fe  Fe0  1  0.50783200  0.50000000  0.52281750  1
  Fe  Fe1  1  0.00783200  0.00000000  0.47718250  1
  P  P2  1  0.07830300  0.50000000  0.30407750  1
  P  P3  1  0.57830300  0.00000000  0.69592250  1
  H  H4  1  0.81025700  0.50000000  0.04266650  1
  H  H5  1  0.31025700  0.00000000  0.95733350  1
  H  H6  1  0.44939400  0.50000000  0.04630750  1
  H  H7  1  0.94939400  0.00000000  0.95369250  1
  H  H8  1  0.62309900  0.64861100  0.91259450  1
  H  H9  1  0.62309900  0.35138900  0.91259450  1
  H  H10  1  0.12309900  0.85138900  0.08740550  1
  H  H11  1  0.12309900  0.14861100  0.08740550  1
  H  H12  1  0.06870400  0.63634000  0.68980250  1
  H  H13  1  0.06870400  0.36366000  0.68980250  1
  H  H14  1  0.56870400  0.86366000  0.31019750  1
  H  H15  1  0.56870400  0.13634000  0.31019750  1
  N  N16  1  0.62687900  0.50000000  0.97776350  1
  N  N17  1  0.12687900  0.00000000  0.02223650  1
  O  O18  1  0.76596900  0.50000000  0.33807050  1
  O  O19  1  0.26596900  0.00000000  0.66192950  1
  O  O20  1  0.12247700  0.50000000  0.13292650  1
  O  O21  1  0.62247700  0.00000000  0.86707350  1
  O  O22  1  0.22568400  0.71899900  0.37334550  1
  O  O23  1  0.22568400  0.28100100  0.37334550  1
  O  O24  1  0.72568400  0.78100100  0.62665450  1
  O  O25  1  0.72568400  0.21899900  0.62665450  1
  O  O26  1  0.19413100  0.50000000  0.70115950  1
  O  O27  1  0.69413100  0.00000000  0.29884050  1
