# generated using pymatgen
data_Li3BiS3
_symmetry_space_group_name_H-M   'P 1'
_cell_length_a   7.13183823
_cell_length_b   7.13183823
_cell_length_c   19.69403029
_cell_angle_alpha   90.00000000
_cell_angle_beta   90.00000000
_cell_angle_gamma   120.00000000
_symmetry_Int_Tables_number   1
_chemical_formula_structural   Li3BiS3
_chemical_formula_sum   'Li18 Bi6 S18'
_cell_volume   867.49743618
_cell_formula_units_Z   6
loop_
 _symmetry_equiv_pos_site_id
 _symmetry_equiv_pos_as_xyz
  1  'x, y, z'
loop_
 _atom_site_type_symbol
 _atom_site_label
 _atom_site_symmetry_multiplicity
 _atom_site_fract_x
 _atom_site_fract_y
 _atom_site_fract_z
 _atom_site_occupancy
  Li  Li0  1  0.32156900  0.36333600  0.04701000  1
  Li  Li1  1  0.62489967  0.65490233  0.28632333  1
  Li  Li2  1  0.63666400  0.95823300  0.04701000  1
  Li  Li3  1  0.03000267  0.37510033  0.28632333  1
  Li  Li4  1  0.04176700  0.67843100  0.04701000  1
  Li  Li5  1  0.34509767  0.96999733  0.28632333  1
  Li  Li6  1  0.98823567  0.69666933  0.38034333  1
  Li  Li7  1  0.29156633  0.98823567  0.61965667  1
  Li  Li8  1  0.30333067  0.29156633  0.38034333  1
  Li  Li9  1  0.69666933  0.70843367  0.61965667  1
  Li  Li10  1  0.70843367  0.01176433  0.38034333  1
  Li  Li11  1  0.01176433  0.30333067  0.61965667  1
  Li  Li12  1  0.65490233  0.03000267  0.71367667  1
  Li  Li13  1  0.95823300  0.32156900  0.95299000  1
  Li  Li14  1  0.96999733  0.62489967  0.71367667  1
  Li  Li15  1  0.36333600  0.04176700  0.95299000  1
  Li  Li16  1  0.37510033  0.34509767  0.71367667  1
  Li  Li17  1  0.67843100  0.63666400  0.95299000  1
  Bi  Bi18  1  0.00000000  0.00000000  0.16968000  1
  Bi  Bi19  1  0.66666667  0.33333333  0.16365333  1
  Bi  Bi20  1  0.66666667  0.33333333  0.50301333  1
  Bi  Bi21  1  0.33333333  0.66666667  0.49698667  1
  Bi  Bi22  1  0.33333333  0.66666667  0.83634667  1
  Bi  Bi23  1  0.00000000  0.00000000  0.83032000  1
  S  S24  1  0.69382467  0.65727833  0.07959433  1
  S  S25  1  0.32394500  0.29678700  0.25373900  1
  S  S26  1  0.96345367  0.30617533  0.07959433  1
  S  S27  1  0.70321300  0.02715800  0.25373900  1
  S  S28  1  0.34272167  0.03654633  0.07959433  1
  S  S29  1  0.97284200  0.67605500  0.25373900  1
  S  S30  1  0.36049133  0.99061167  0.41292767  1
  S  S31  1  0.99061167  0.63012033  0.58707233  1
  S  S32  1  0.63012033  0.63950867  0.41292767  1
  S  S33  1  0.36987967  0.36049133  0.58707233  1
  S  S34  1  0.00938833  0.36987967  0.41292767  1
  S  S35  1  0.63950867  0.00938833  0.58707233  1
  S  S36  1  0.02715800  0.32394500  0.74626100  1
  S  S37  1  0.65727833  0.96345367  0.92040567  1
  S  S38  1  0.29678700  0.97284200  0.74626100  1
  S  S39  1  0.03654633  0.69382467  0.92040567  1
  S  S40  1  0.67605500  0.70321300  0.74626100  1
  S  S41  1  0.30617533  0.34272167  0.92040567  1
