# generated using pymatgen
data_LiSn(PO3)4
_symmetry_space_group_name_H-M   'P 1'
_cell_length_a   7.00575200
_cell_length_b   8.81076100
_cell_length_c   7.76970563
_cell_angle_alpha   90.00000000
_cell_angle_beta   90.51644809
_cell_angle_gamma   90.00000000
_symmetry_Int_Tables_number   1
_chemical_formula_structural   LiSn(PO3)4
_chemical_formula_sum   'Li2 Sn2 P8 O24'
_cell_volume   479.57341762
_cell_formula_units_Z   2
loop_
 _symmetry_equiv_pos_site_id
 _symmetry_equiv_pos_as_xyz
  1  'x, y, z'
loop_
 _atom_site_type_symbol
 _atom_site_label
 _atom_site_symmetry_multiplicity
 _atom_site_fract_x
 _atom_site_fract_y
 _atom_site_fract_z
 _atom_site_occupancy
  Li  Li0  1  0.70436200  0.37531300  0.63937900  1
  Li  Li1  1  0.29563800  0.87531300  0.36062100  1
  Sn  Sn2  1  0.76206200  0.71200700  0.22743400  1
  Sn  Sn3  1  0.23793800  0.21200700  0.77256600  1
  P  P4  1  0.00670100  0.89951500  0.59376700  1
  P  P5  1  0.91518100  0.18175100  0.11349100  1
  P  P6  1  0.60003700  0.00741200  0.58526200  1
  P  P7  1  0.55651000  0.37317000  0.09408600  1
  P  P8  1  0.44349000  0.87317000  0.90591400  1
  P  P9  1  0.39996300  0.50741200  0.41473800  1
  P  P10  1  0.08481900  0.68175100  0.88650900  1
  P  P11  1  0.99329900  0.39951500  0.40623300  1
  O  O12  1  0.98613900  0.81888100  0.77636200  1
  O  O13  1  0.97990200  0.20845500  0.92915700  1
  O  O14  1  0.00776600  0.79317400  0.44198800  1
  O  O15  1  0.94410000  0.03487600  0.20050800  1
  O  O16  1  0.82730100  0.00751600  0.60013700  1
  O  O17  1  0.81751900  0.50077200  0.40629300  1
  O  O18  1  0.68844300  0.22587700  0.11384000  1
  O  O19  1  0.67339400  0.51519100  0.06559700  1
  O  O20  1  0.54129400  0.96034000  0.40884800  1
  O  O21  1  0.59593200  0.84432600  0.03916200  1
  O  O22  1  0.54175700  0.87470800  0.71928900  1
  O  O23  1  0.54495700  0.16221500  0.65535900  1
  O  O24  1  0.45504300  0.66221500  0.34464100  1
  O  O25  1  0.45824300  0.37470800  0.28071100  1
  O  O26  1  0.40406800  0.34432600  0.96083800  1
  O  O27  1  0.45870600  0.46034000  0.59115200  1
  O  O28  1  0.32660600  0.01519100  0.93440300  1
  O  O29  1  0.31155700  0.72587700  0.88616000  1
  O  O30  1  0.18248100  0.00077200  0.59370700  1
  O  O31  1  0.17269900  0.50751600  0.39986300  1
  O  O32  1  0.05590000  0.53487600  0.79949200  1
  O  O33  1  0.99223400  0.29317400  0.55801200  1
  O  O34  1  0.02009800  0.70845500  0.07084300  1
  O  O35  1  0.01386100  0.31888100  0.22363800  1
