# generated using pymatgen
data_P4WO12
_symmetry_space_group_name_H-M   'P 1'
_cell_length_a   12.07315600
_cell_length_b   8.38807000
_cell_length_c   10.45474842
_cell_angle_alpha   90.00000000
_cell_angle_beta   120.29125756
_cell_angle_gamma   90.00000000
_symmetry_Int_Tables_number   1
_chemical_formula_structural   P4WO12
_chemical_formula_sum   'P16 W4 O48'
_cell_volume   914.20789468
_cell_formula_units_Z   4
loop_
 _symmetry_equiv_pos_site_id
 _symmetry_equiv_pos_as_xyz
  1  'x, y, z'
loop_
 _atom_site_type_symbol
 _atom_site_label
 _atom_site_symmetry_multiplicity
 _atom_site_fract_x
 _atom_site_fract_y
 _atom_site_fract_z
 _atom_site_occupancy
  P  P0  1  0.79942400  0.51373000  0.30407800  1
  P  P1  1  0.99078250  0.73778350  0.51992900  1
  P  P2  1  0.50921750  0.23778350  0.98007100  1
  P  P3  1  0.29942400  0.98627000  0.80407800  1
  P  P4  1  0.20057600  0.51373000  0.19592200  1
  P  P5  1  0.99078250  0.26221650  0.01992900  1
  P  P6  1  0.50921750  0.76221650  0.48007100  1
  P  P7  1  0.70057600  0.98627000  0.69592200  1
  P  P8  1  0.29942400  0.01373000  0.30407800  1
  P  P9  1  0.49078250  0.23778350  0.51992900  1
  P  P10  1  0.00921750  0.73778350  0.98007100  1
  P  P11  1  0.79942400  0.48627000  0.80407800  1
  P  P12  1  0.70057600  0.01373000  0.19592200  1
  P  P13  1  0.49078250  0.76221650  0.01992900  1
  P  P14  1  0.00921750  0.26221650  0.48007100  1
  P  P15  1  0.20057600  0.48627000  0.69592200  1
  W  W16  1  0.00000000  0.94692800  0.25000000  1
  W  W17  1  0.50000000  0.55307200  0.75000000  1
  W  W18  1  0.50000000  0.44692800  0.25000000  1
  W  W19  1  0.00000000  0.05307200  0.75000000  1
  O  O20  1  0.72564300  0.91774800  0.83686300  1
  O  O21  1  0.52974300  0.72655000  0.90629300  1
  O  O22  1  0.09128500  0.62354400  0.64495500  1
  O  O23  1  0.02974300  0.77345000  0.40629300  1
  O  O24  1  0.86086200  0.63655700  0.44462400  1
  O  O25  1  0.18876350  0.93877450  0.31395500  1
  O  O26  1  0.36086200  0.86344300  0.94462400  1
  O  O27  1  0.27435700  0.91774800  0.66313700  1
  O  O28  1  0.96747450  0.87664950  0.59443400  1
  O  O29  1  0.31123650  0.43877450  0.18604500  1
  O  O30  1  0.40871500  0.12354400  0.85504500  1
  O  O31  1  0.03252550  0.87664950  0.90556600  1
  O  O32  1  0.46747450  0.62335050  0.09443400  1
  O  O33  1  0.09128500  0.37645600  0.14495500  1
  O  O34  1  0.18876350  0.06122550  0.81395500  1
  O  O35  1  0.53252550  0.62335050  0.40556600  1
  O  O36  1  0.22564300  0.58225200  0.33686300  1
  O  O37  1  0.13913800  0.63655700  0.05537600  1
  O  O38  1  0.31123650  0.56122550  0.68604500  1
  O  O39  1  0.63913800  0.86344300  0.55537600  1
  O  O40  1  0.47025700  0.72655000  0.59370700  1
  O  O41  1  0.40871500  0.87645600  0.35504500  1
  O  O42  1  0.97025700  0.77345000  0.09370700  1
  O  O43  1  0.77435700  0.58225200  0.16313700  1
  O  O44  1  0.22564300  0.41774800  0.83686300  1
  O  O45  1  0.02974300  0.22655000  0.90629300  1
  O  O46  1  0.59128500  0.12354400  0.64495500  1
  O  O47  1  0.52974300  0.27345000  0.40629300  1
  O  O48  1  0.36086200  0.13655700  0.44462400  1
  O  O49  1  0.68876350  0.43877450  0.31395500  1
  O  O50  1  0.86086200  0.36344300  0.94462400  1
  O  O51  1  0.77435700  0.41774800  0.66313700  1
  O  O52  1  0.46747450  0.37664950  0.59443400  1
  O  O53  1  0.81123650  0.93877450  0.18604500  1
  O  O54  1  0.90871500  0.62354400  0.85504500  1
  O  O55  1  0.53252550  0.37664950  0.90556600  1
  O  O56  1  0.96747450  0.12335050  0.09443400  1
  O  O57  1  0.59128500  0.87645600  0.14495500  1
  O  O58  1  0.68876350  0.56122550  0.81395500  1
  O  O59  1  0.03252550  0.12335050  0.40556600  1
  O  O60  1  0.72564300  0.08225200  0.33686300  1
  O  O61  1  0.63913800  0.13655700  0.05537600  1
  O  O62  1  0.81123650  0.06122550  0.68604500  1
  O  O63  1  0.13913800  0.36344300  0.55537600  1
  O  O64  1  0.97025700  0.22655000  0.59370700  1
  O  O65  1  0.90871500  0.37645600  0.35504500  1
  O  O66  1  0.47025700  0.27345000  0.09370700  1
  O  O67  1  0.27435700  0.08225200  0.16313700  1
