# generated using pymatgen
data_Li2MnCoO4
_symmetry_space_group_name_H-M   'P 1'
_cell_length_a   8.33130400
_cell_length_b   8.11379000
_cell_length_c   6.05196658
_cell_angle_alpha   90.00000000
_cell_angle_beta   132.83751948
_cell_angle_gamma   90.00000000
_symmetry_Int_Tables_number   1
_chemical_formula_structural   Li2MnCoO4
_chemical_formula_sum   'Li8 Mn4 Co4 O16'
_cell_volume   299.98942019
_cell_formula_units_Z   4
loop_
 _symmetry_equiv_pos_site_id
 _symmetry_equiv_pos_as_xyz
  1  'x, y, z'
loop_
 _atom_site_type_symbol
 _atom_site_label
 _atom_site_symmetry_multiplicity
 _atom_site_fract_x
 _atom_site_fract_y
 _atom_site_fract_z
 _atom_site_occupancy
  Li  Li0  1  0.50000000  0.00000000  0.50000000  1
  Li  Li1  1  0.25000000  0.75000000  0.00000000  1
  Li  Li2  1  0.25000000  0.25000000  0.50000000  1
  Li  Li3  1  0.00000000  0.50000000  0.00000000  1
  Li  Li4  1  0.00000000  0.50000000  0.50000000  1
  Li  Li5  1  0.75000000  0.25000000  0.00000000  1
  Li  Li6  1  0.75000000  0.75000000  0.50000000  1
  Li  Li7  1  0.50000000  0.00000000  0.00000000  1
  Mn  Mn8  1  0.25000000  0.75000000  0.50000000  1
  Mn  Mn9  1  0.75000000  0.75000000  0.00000000  1
  Mn  Mn10  1  0.75000000  0.25000000  0.50000000  1
  Mn  Mn11  1  0.25000000  0.25000000  0.00000000  1
  Co  Co12  1  0.00000000  0.00000000  0.50000000  1
  Co  Co13  1  0.00000000  0.00000000  0.00000000  1
  Co  Co14  1  0.50000000  0.50000000  0.50000000  1
  Co  Co15  1  0.50000000  0.50000000  0.00000000  1
  O  O16  1  0.26614200  0.48949700  0.02331700  1
  O  O17  1  0.48000350  0.74016050  0.48652800  1
  O  O18  1  0.48000350  0.25983950  0.98652800  1
  O  O19  1  0.26614200  0.51050300  0.52331700  1
  O  O20  1  0.23385800  0.98949700  0.47668300  1
  O  O21  1  0.01999650  0.24016050  0.01347200  1
  O  O22  1  0.01999650  0.75983950  0.51347200  1
  O  O23  1  0.23385800  0.01050300  0.97668300  1
  O  O24  1  0.76614200  0.98949700  0.02331700  1
  O  O25  1  0.98000350  0.24016050  0.48652800  1
  O  O26  1  0.98000350  0.75983950  0.98652800  1
  O  O27  1  0.76614200  0.01050300  0.52331700  1
  O  O28  1  0.73385800  0.48949700  0.47668300  1
  O  O29  1  0.51999650  0.74016050  0.01347200  1
  O  O30  1  0.51999650  0.25983950  0.51347200  1
  O  O31  1  0.73385800  0.51050300  0.97668300  1
