# generated using pymatgen
data_Na5Cr2As(CO4)4
_symmetry_space_group_name_H-M   'P 1'
_cell_length_a   13.95521200
_cell_length_b   13.98701400
_cell_length_c   14.12382600
_cell_angle_alpha   90.00000000
_cell_angle_beta   90.00000000
_cell_angle_gamma   90.00000000
_symmetry_Int_Tables_number   1
_chemical_formula_structural   Na5Cr2As(CO4)4
_chemical_formula_sum   'Na40 Cr16 As8 C32 O128'
_cell_volume   2756.85425173
_cell_formula_units_Z   8
loop_
 _symmetry_equiv_pos_site_id
 _symmetry_equiv_pos_as_xyz
  1  'x, y, z'
loop_
 _atom_site_type_symbol
 _atom_site_label
 _atom_site_symmetry_multiplicity
 _atom_site_fract_x
 _atom_site_fract_y
 _atom_site_fract_z
 _atom_site_occupancy
  Na  Na0  1  0.04408450  0.75805600  0.12801450  1
  Na  Na1  1  0.74159700  0.45598800  0.12876100  1
  Na  Na2  1  0.29408450  0.49194400  0.37801450  1
  Na  Na3  1  0.50840300  0.70598800  0.37876100  1
  Na  Na4  1  0.25000000  0.75000000  0.32915500  1
  Na  Na5  1  0.95591550  0.24194400  0.12801450  1
  Na  Na6  1  0.25840300  0.54401200  0.12876100  1
  Na  Na7  1  0.00000000  0.50000000  0.07915500  1
  Na  Na8  1  0.70591550  0.50805600  0.37801450  1
  Na  Na9  1  0.49159700  0.29401200  0.37876100  1
  Na  Na10  1  0.04408450  0.25805600  0.62801450  1
  Na  Na11  1  0.74159700  0.95598800  0.62876100  1
  Na  Na12  1  0.29408450  0.99194400  0.87801450  1
  Na  Na13  1  0.50840300  0.20598800  0.87876100  1
  Na  Na14  1  0.25000000  0.25000000  0.82915500  1
  Na  Na15  1  0.95591550  0.74194400  0.62801450  1
  Na  Na16  1  0.25840300  0.04401200  0.62876100  1
  Na  Na17  1  0.00000000  0.00000000  0.57915500  1
  Na  Na18  1  0.70591550  0.00805600  0.87801450  1
  Na  Na19  1  0.49159700  0.79401200  0.87876100  1
  Na  Na20  1  0.54408450  0.75805600  0.62801450  1
  Na  Na21  1  0.24159700  0.45598800  0.62876100  1
  Na  Na22  1  0.79408450  0.49194400  0.87801450  1
  Na  Na23  1  0.00840300  0.70598800  0.87876100  1
  Na  Na24  1  0.75000000  0.75000000  0.82915500  1
  Na  Na25  1  0.45591550  0.24194400  0.62801450  1
  Na  Na26  1  0.75840300  0.54401200  0.62876100  1
  Na  Na27  1  0.50000000  0.50000000  0.57915500  1
  Na  Na28  1  0.20591550  0.50805600  0.87801450  1
  Na  Na29  1  0.99159700  0.29401200  0.87876100  1
  Na  Na30  1  0.54408450  0.25805600  0.12801450  1
  Na  Na31  1  0.24159700  0.95598800  0.12876100  1
  Na  Na32  1  0.79408450  0.99194400  0.37801450  1
  Na  Na33  1  0.00840300  0.20598800  0.37876100  1
  Na  Na34  1  0.75000000  0.25000000  0.32915500  1
  Na  Na35  1  0.45591550  0.74194400  0.12801450  1
  Na  Na36  1  0.75840300  0.04401200  0.12876100  1
  Na  Na37  1  0.50000000  0.00000000  0.07915500  1
  Na  Na38  1  0.20591550  0.00805600  0.37801450  1
  Na  Na39  1  0.99159700  0.79401200  0.37876100  1
  Cr  Cr40  1  0.37602450  0.37647150  0.00021000  1
  Cr  Cr41  1  0.62397550  0.62352850  0.00021000  1
  Cr  Cr42  1  0.12602450  0.37352850  0.25021000  1
  Cr  Cr43  1  0.37397550  0.12647150  0.25021000  1
  Cr  Cr44  1  0.37602450  0.87647150  0.50021000  1
  Cr  Cr45  1  0.62397550  0.12352850  0.50021000  1
  Cr  Cr46  1  0.12602450  0.87352850  0.75021000  1
  Cr  Cr47  1  0.37397550  0.62647150  0.75021000  1
  Cr  Cr48  1  0.87602450  0.37647150  0.50021000  1
  Cr  Cr49  1  0.12397550  0.62352850  0.50021000  1
  Cr  Cr50  1  0.62602450  0.37352850  0.75021000  1
  Cr  Cr51  1  0.87397550  0.12647150  0.75021000  1
  Cr  Cr52  1  0.87602450  0.87647150  0.00021000  1
  Cr  Cr53  1  0.12397550  0.12352850  0.00021000  1
  Cr  Cr54  1  0.62602450  0.87352850  0.25021000  1
  Cr  Cr55  1  0.87397550  0.62647150  0.25021000  1
  As  As56  1  0.50000000  0.50000000  0.37312700  1
  As  As57  1  0.25000000  0.75000000  0.12312700  1
  As  As58  1  0.50000000  0.00000000  0.87312700  1
  As  As59  1  0.25000000  0.25000000  0.62312700  1
  As  As60  1  0.00000000  0.50000000  0.87312700  1
  As  As61  1  0.75000000  0.75000000  0.62312700  1
  As  As62  1  0.00000000  0.00000000  0.37312700  1
  As  As63  1  0.75000000  0.25000000  0.12312700  1
  C  C64  1  0.83760350  0.66240650  0.03746900  1
  C  C65  1  0.08803850  0.41326050  0.46044300  1
  C  C66  1  0.08760350  0.58759350  0.28746900  1
  C  C67  1  0.91239650  0.41240650  0.28746900  1
  C  C68  1  0.33803850  0.33673950  0.21044300  1
  C  C69  1  0.16196150  0.16326050  0.21044300  1
  C  C70  1  0.16239650  0.33759350  0.03746900  1
  C  C71  1  0.41196150  0.08673950  0.46044300  1
  C  C72  1  0.83760350  0.16240650  0.53746900  1
  C  C73  1  0.08803850  0.91326050  0.96044300  1
  C  C74  1  0.08760350  0.08759350  0.78746900  1
  C  C75  1  0.91239650  0.91240650  0.78746900  1
  C  C76  1  0.33803850  0.83673950  0.71044300  1
  C  C77  1  0.16196150  0.66326050  0.71044300  1
  C  C78  1  0.16239650  0.83759350  0.53746900  1
  C  C79  1  0.41196150  0.58673950  0.96044300  1
  C  C80  1  0.33760350  0.66240650  0.53746900  1
  C  C81  1  0.58803850  0.41326050  0.96044300  1
  C  C82  1  0.58760350  0.58759350  0.78746900  1
  C  C83  1  0.41239650  0.41240650  0.78746900  1
  C  C84  1  0.83803850  0.33673950  0.71044300  1
  C  C85  1  0.66196150  0.16326050  0.71044300  1
  C  C86  1  0.66239650  0.33759350  0.53746900  1
  C  C87  1  0.91196150  0.08673950  0.96044300  1
  C  C88  1  0.33760350  0.16240650  0.03746900  1
  C  C89  1  0.58803850  0.91326050  0.46044300  1
  C  C90  1  0.58760350  0.08759350  0.28746900  1
  C  C91  1  0.41239650  0.91240650  0.28746900  1
  C  C92  1  0.83803850  0.83673950  0.21044300  1
  C  C93  1  0.66196150  0.66326050  0.21044300  1
  C  C94  1  0.66239650  0.83759350  0.03746900  1
  C  C95  1  0.91196150  0.58673950  0.46044300  1
  O  O96  1  0.89620650  0.64815300  0.10767550  1
  O  O97  1  0.60350200  0.48212200  0.01990200  1
  O  O98  1  0.76748100  0.60300650  0.02301750  1
  O  O99  1  0.51773700  0.85343400  0.47533300  1
  O  O100  1  0.35169050  0.73288950  0.47934900  1
  O  O101  1  0.42950500  0.42979250  0.44634850  1
  O  O102  1  0.57049500  0.57020750  0.44634850  1
  O  O103  1  0.14442950  0.40148800  0.38896950  1
  O  O104  1  0.35379350  0.89815300  0.35767550  1
  O  O105  1  0.14620650  0.60184700  0.35767550  1
  O  O106  1  0.57455900  0.42507700  0.31175300  1
  O  O107  1  0.42544100  0.57492300  0.31175300  1
  O  O108  1  0.35350200  0.26787800  0.26990200  1
  O  O109  1  0.14649800  0.23212200  0.26990200  1
  O  O110  1  0.98251900  0.35300650  0.27301750  1
  O  O111  1  0.01748100  0.64699350  0.27301750  1
  O  O112  1  0.23226300  0.10343400  0.22533300  1
  O  O113  1  0.26773700  0.39656600  0.22533300  1
  O  O114  1  0.10169050  0.51711050  0.22934900  1
  O  O115  1  0.89830950  0.48288950  0.22934900  1
  O  O116  1  0.32049500  0.67979250  0.19634850  1
  O  O117  1  0.17950500  0.82020750  0.19634850  1
  O  O118  1  0.39442950  0.34851200  0.13896950  1
  O  O119  1  0.10557050  0.15148800  0.13896950  1
  O  O120  1  0.10379350  0.35184700  0.10767550  1
  O  O121  1  0.17544100  0.67507700  0.06175300  1
  O  O122  1  0.82455900  0.32492300  0.06175300  1
  O  O123  1  0.39649800  0.51787800  0.01990200  1
  O  O124  1  0.23251900  0.39699350  0.02301750  1
  O  O125  1  0.48226300  0.14656600  0.47533300  1
  O  O126  1  0.64830950  0.26711050  0.47934900  1
  O  O127  1  0.35557050  0.09851200  0.38896950  1
  O  O128  1  0.89620650  0.14815300  0.60767550  1
  O  O129  1  0.60350200  0.98212200  0.51990200  1
  O  O130  1  0.76748100  0.10300650  0.52301750  1
  O  O131  1  0.51773700  0.35343400  0.97533300  1
  O  O132  1  0.35169050  0.23288950  0.97934900  1
  O  O133  1  0.42950500  0.92979250  0.94634850  1
  O  O134  1  0.57049500  0.07020750  0.94634850  1
  O  O135  1  0.14442950  0.90148800  0.88896950  1
  O  O136  1  0.35379350  0.39815300  0.85767550  1
  O  O137  1  0.14620650  0.10184700  0.85767550  1
  O  O138  1  0.57455900  0.92507700  0.81175300  1
  O  O139  1  0.42544100  0.07492300  0.81175300  1
  O  O140  1  0.35350200  0.76787800  0.76990200  1
  O  O141  1  0.14649800  0.73212200  0.76990200  1
  O  O142  1  0.98251900  0.85300650  0.77301750  1
  O  O143  1  0.01748100  0.14699350  0.77301750  1
  O  O144  1  0.23226300  0.60343400  0.72533300  1
  O  O145  1  0.26773700  0.89656600  0.72533300  1
  O  O146  1  0.10169050  0.01711050  0.72934900  1
  O  O147  1  0.89830950  0.98288950  0.72934900  1
  O  O148  1  0.32049500  0.17979250  0.69634850  1
  O  O149  1  0.17950500  0.32020750  0.69634850  1
  O  O150  1  0.39442950  0.84851200  0.63896950  1
  O  O151  1  0.10557050  0.65148800  0.63896950  1
  O  O152  1  0.10379350  0.85184700  0.60767550  1
  O  O153  1  0.17544100  0.17507700  0.56175300  1
  O  O154  1  0.82455900  0.82492300  0.56175300  1
  O  O155  1  0.39649800  0.01787800  0.51990200  1
  O  O156  1  0.23251900  0.89699350  0.52301750  1
  O  O157  1  0.48226300  0.64656600  0.97533300  1
  O  O158  1  0.64830950  0.76711050  0.97934900  1
  O  O159  1  0.35557050  0.59851200  0.88896950  1
  O  O160  1  0.39620650  0.64815300  0.60767550  1
  O  O161  1  0.10350200  0.48212200  0.51990200  1
  O  O162  1  0.26748100  0.60300650  0.52301750  1
  O  O163  1  0.01773700  0.85343400  0.97533300  1
  O  O164  1  0.85169050  0.73288950  0.97934900  1
  O  O165  1  0.92950500  0.42979250  0.94634850  1
  O  O166  1  0.07049500  0.57020750  0.94634850  1
  O  O167  1  0.64442950  0.40148800  0.88896950  1
  O  O168  1  0.85379350  0.89815300  0.85767550  1
  O  O169  1  0.64620650  0.60184700  0.85767550  1
  O  O170  1  0.07455900  0.42507700  0.81175300  1
  O  O171  1  0.92544100  0.57492300  0.81175300  1
  O  O172  1  0.85350200  0.26787800  0.76990200  1
  O  O173  1  0.64649800  0.23212200  0.76990200  1
  O  O174  1  0.48251900  0.35300650  0.77301750  1
  O  O175  1  0.51748100  0.64699350  0.77301750  1
  O  O176  1  0.73226300  0.10343400  0.72533300  1
  O  O177  1  0.76773700  0.39656600  0.72533300  1
  O  O178  1  0.60169050  0.51711050  0.72934900  1
  O  O179  1  0.39830950  0.48288950  0.72934900  1
  O  O180  1  0.82049500  0.67979250  0.69634850  1
  O  O181  1  0.67950500  0.82020750  0.69634850  1
  O  O182  1  0.89442950  0.34851200  0.63896950  1
  O  O183  1  0.60557050  0.15148800  0.63896950  1
  O  O184  1  0.60379350  0.35184700  0.60767550  1
  O  O185  1  0.67544100  0.67507700  0.56175300  1
  O  O186  1  0.32455900  0.32492300  0.56175300  1
  O  O187  1  0.89649800  0.51787800  0.51990200  1
  O  O188  1  0.73251900  0.39699350  0.52301750  1
  O  O189  1  0.98226300  0.14656600  0.97533300  1
  O  O190  1  0.14830950  0.26711050  0.97934900  1
  O  O191  1  0.85557050  0.09851200  0.88896950  1
  O  O192  1  0.39620650  0.14815300  0.10767550  1
  O  O193  1  0.10350200  0.98212200  0.01990200  1
  O  O194  1  0.26748100  0.10300650  0.02301750  1
  O  O195  1  0.01773700  0.35343400  0.47533300  1
  O  O196  1  0.85169050  0.23288950  0.47934900  1
  O  O197  1  0.92950500  0.92979250  0.44634850  1
  O  O198  1  0.07049500  0.07020750  0.44634850  1
  O  O199  1  0.64442950  0.90148800  0.38896950  1
  O  O200  1  0.85379350  0.39815300  0.35767550  1
  O  O201  1  0.64620650  0.10184700  0.35767550  1
  O  O202  1  0.07455900  0.92507700  0.31175300  1
  O  O203  1  0.92544100  0.07492300  0.31175300  1
  O  O204  1  0.85350200  0.76787800  0.26990200  1
  O  O205  1  0.64649800  0.73212200  0.26990200  1
  O  O206  1  0.48251900  0.85300650  0.27301750  1
  O  O207  1  0.51748100  0.14699350  0.27301750  1
  O  O208  1  0.73226300  0.60343400  0.22533300  1
  O  O209  1  0.76773700  0.89656600  0.22533300  1
  O  O210  1  0.60169050  0.01711050  0.22934900  1
  O  O211  1  0.39830950  0.98288950  0.22934900  1
  O  O212  1  0.82049500  0.17979250  0.19634850  1
  O  O213  1  0.67950500  0.32020750  0.19634850  1
  O  O214  1  0.89442950  0.84851200  0.13896950  1
  O  O215  1  0.60557050  0.65148800  0.13896950  1
  O  O216  1  0.60379350  0.85184700  0.10767550  1
  O  O217  1  0.67544100  0.17507700  0.06175300  1
  O  O218  1  0.32455900  0.82492300  0.06175300  1
  O  O219  1  0.89649800  0.01787800  0.01990200  1
  O  O220  1  0.73251900  0.89699350  0.02301750  1
  O  O221  1  0.98226300  0.64656600  0.47533300  1
  O  O222  1  0.14830950  0.76711050  0.47934900  1
  O  O223  1  0.85557050  0.59851200  0.38896950  1
