# generated using pymatgen
data_Li2HfO3
_symmetry_space_group_name_H-M   'P 1'
_cell_length_a   5.39898800
_cell_length_b   9.31811200
_cell_length_c   5.27993046
_cell_angle_alpha   90.00000000
_cell_angle_beta   110.16240830
_cell_angle_gamma   90.00000000
_symmetry_Int_Tables_number   1
_chemical_formula_structural   Li2HfO3
_chemical_formula_sum   'Li8 Hf4 O12'
_cell_volume   249.34707088
_cell_formula_units_Z   4
loop_
 _symmetry_equiv_pos_site_id
 _symmetry_equiv_pos_as_xyz
  1  'x, y, z'
loop_
 _atom_site_type_symbol
 _atom_site_label
 _atom_site_symmetry_multiplicity
 _atom_site_fract_x
 _atom_site_fract_y
 _atom_site_fract_z
 _atom_site_occupancy
  Li  Li0  1  0.50000000  0.34189000  0.00000000  1
  Li  Li1  1  0.50000000  0.65811000  0.00000000  1
  Li  Li2  1  0.50000000  0.00000000  0.00000000  1
  Li  Li3  1  0.00000000  0.00000000  0.50000000  1
  Li  Li4  1  0.00000000  0.84189000  0.00000000  1
  Li  Li5  1  0.00000000  0.15811000  0.00000000  1
  Li  Li6  1  0.00000000  0.50000000  0.00000000  1
  Li  Li7  1  0.50000000  0.50000000  0.50000000  1
  Hf  Hf8  1  0.50000000  0.83359200  0.50000000  1
  Hf  Hf9  1  0.50000000  0.16640800  0.50000000  1
  Hf  Hf10  1  0.00000000  0.33359200  0.50000000  1
  Hf  Hf11  1  0.00000000  0.66640800  0.50000000  1
  O  O12  1  0.74507300  0.82413500  0.26852400  1
  O  O13  1  0.25492700  0.17586500  0.73147600  1
  O  O14  1  0.74507300  0.17586500  0.26852400  1
  O  O15  1  0.72367400  0.00000000  0.73566900  1
  O  O16  1  0.25492700  0.82413500  0.73147600  1
  O  O17  1  0.27632600  0.00000000  0.26433100  1
  O  O18  1  0.24507300  0.32413500  0.26852400  1
  O  O19  1  0.75492700  0.67586500  0.73147600  1
  O  O20  1  0.24507300  0.67586500  0.26852400  1
  O  O21  1  0.22367400  0.50000000  0.73566900  1
  O  O22  1  0.75492700  0.32413500  0.73147600  1
  O  O23  1  0.77632600  0.50000000  0.26433100  1
