# generated using pymatgen
data_Dy(BiO2)3
_symmetry_space_group_name_H-M   'P 1'
_cell_length_a   10.14512728
_cell_length_b   10.14512728
_cell_length_c   11.53902016
_cell_angle_alpha   90.00000000
_cell_angle_beta   90.00000000
_cell_angle_gamma   120.00000000
_symmetry_Int_Tables_number   1
_chemical_formula_structural   Dy(BiO2)3
_chemical_formula_sum   'Dy6 Bi18 O36'
_cell_volume   1028.52431721
_cell_formula_units_Z   6
loop_
 _symmetry_equiv_pos_site_id
 _symmetry_equiv_pos_as_xyz
  1  'x, y, z'
loop_
 _atom_site_type_symbol
 _atom_site_label
 _atom_site_symmetry_multiplicity
 _atom_site_fract_x
 _atom_site_fract_y
 _atom_site_fract_z
 _atom_site_occupancy
  Dy  Dy0  1  0.00000000  0.00000000  0.00000000  1
  Dy  Dy1  1  0.00000000  0.00000000  0.50000000  1
  Dy  Dy2  1  0.66666667  0.33333333  0.33333333  1
  Dy  Dy3  1  0.66666667  0.33333333  0.83333333  1
  Dy  Dy4  1  0.33333333  0.66666667  0.66666667  1
  Dy  Dy5  1  0.33333333  0.66666667  0.16666667  1
  Bi  Bi6  1  0.77744600  0.73732000  0.29069900  1
  Bi  Bi7  1  0.95987400  0.22255400  0.29069900  1
  Bi  Bi8  1  0.73732000  0.95987400  0.70930100  1
  Bi  Bi9  1  0.26268000  0.04012600  0.29069900  1
  Bi  Bi10  1  0.04012600  0.77744600  0.70930100  1
  Bi  Bi11  1  0.22255400  0.26268000  0.70930100  1
  Bi  Bi12  1  0.44411267  0.07065333  0.62403233  1
  Bi  Bi13  1  0.62654067  0.55588733  0.62403233  1
  Bi  Bi14  1  0.40398667  0.29320733  0.04263433  1
  Bi  Bi15  1  0.92934667  0.37345933  0.62403233  1
  Bi  Bi16  1  0.70679267  0.11077933  0.04263433  1
  Bi  Bi17  1  0.88922067  0.59601333  0.04263433  1
  Bi  Bi18  1  0.11077933  0.40398667  0.95736567  1
  Bi  Bi19  1  0.29320733  0.88922067  0.95736567  1
  Bi  Bi20  1  0.07065333  0.62654067  0.37596767  1
  Bi  Bi21  1  0.59601333  0.70679267  0.95736567  1
  Bi  Bi22  1  0.37345933  0.44411267  0.37596767  1
  Bi  Bi23  1  0.55588733  0.92934667  0.37596767  1
  O  O24  1  0.50952300  0.87150400  0.56305200  1
  O  O25  1  0.63801900  0.50952300  0.43694800  1
  O  O26  1  0.81643800  0.97119700  0.37143400  1
  O  O27  1  0.87150400  0.36198100  0.43694800  1
  O  O28  1  0.02880300  0.84524100  0.37143400  1
  O  O29  1  0.84524100  0.81643800  0.62856600  1
  O  O30  1  0.15475900  0.18356200  0.37143400  1
  O  O31  1  0.97119700  0.15475900  0.62856600  1
  O  O32  1  0.12849600  0.63801900  0.56305200  1
  O  O33  1  0.18356200  0.02880300  0.62856600  1
  O  O34  1  0.36198100  0.49047700  0.56305200  1
  O  O35  1  0.49047700  0.12849600  0.43694800  1
  O  O36  1  0.17618967  0.20483733  0.89638533  1
  O  O37  1  0.30468567  0.84285633  0.77028133  1
  O  O38  1  0.48310467  0.30453033  0.70476733  1
  O  O39  1  0.53817067  0.69531433  0.77028133  1
  O  O40  1  0.69546967  0.17857433  0.70476733  1
  O  O41  1  0.51190767  0.14977133  0.96189933  1
  O  O42  1  0.82142567  0.51689533  0.70476733  1
  O  O43  1  0.63786367  0.48809233  0.96189933  1
  O  O44  1  0.79516267  0.97135233  0.89638533  1
  O  O45  1  0.85022867  0.36213633  0.96189933  1
  O  O46  1  0.02864767  0.82381033  0.89638533  1
  O  O47  1  0.15714367  0.46182933  0.77028133  1
  O  O48  1  0.84285633  0.53817067  0.22971867  1
  O  O49  1  0.97135233  0.17618967  0.10361467  1
  O  O50  1  0.14977133  0.63786367  0.03810067  1
  O  O51  1  0.20483733  0.02864767  0.10361467  1
  O  O52  1  0.36213633  0.51190767  0.03810067  1
  O  O53  1  0.17857433  0.48310467  0.29523267  1
  O  O54  1  0.48809233  0.85022867  0.03810067  1
  O  O55  1  0.30453033  0.82142567  0.29523267  1
  O  O56  1  0.46182933  0.30468567  0.22971867  1
  O  O57  1  0.51689533  0.69546967  0.29523267  1
  O  O58  1  0.69531433  0.15714367  0.22971867  1
  O  O59  1  0.82381033  0.79516267  0.10361467  1
