# generated using pymatgen
data_Rb2Sn2O3
_symmetry_space_group_name_H-M   'P 1'
_cell_length_a   6.23971395
_cell_length_b   6.23971395
_cell_length_c   15.36090123
_cell_angle_alpha   90.00000000
_cell_angle_beta   90.00000000
_cell_angle_gamma   120.00000000
_symmetry_Int_Tables_number   1
_chemical_formula_structural   Rb2Sn2O3
_chemical_formula_sum   'Rb6 Sn6 O9'
_cell_volume   517.93670474
_cell_formula_units_Z   3
loop_
 _symmetry_equiv_pos_site_id
 _symmetry_equiv_pos_as_xyz
  1  'x, y, z'
loop_
 _atom_site_type_symbol
 _atom_site_label
 _atom_site_symmetry_multiplicity
 _atom_site_fract_x
 _atom_site_fract_y
 _atom_site_fract_z
 _atom_site_occupancy
  Rb  Rb0  1  0.33333333  0.66666667  0.16666667  1
  Rb  Rb1  1  0.00000000  0.00000000  0.00000000  1
  Rb  Rb2  1  1.00000000  1.00000000  0.50000000  1
  Rb  Rb3  1  0.66666667  0.33333333  0.33333333  1
  Rb  Rb4  1  0.66666667  0.33333333  0.83333333  1
  Rb  Rb5  1  0.33333333  0.66666667  0.66666667  1
  Sn  Sn6  1  0.00000000  0.00000000  0.23474200  1
  Sn  Sn7  1  0.66666667  0.33333333  0.09859133  1
  Sn  Sn8  1  0.66666667  0.33333333  0.56807533  1
  Sn  Sn9  1  0.33333333  0.66666667  0.43192467  1
  Sn  Sn10  1  0.33333333  0.66666667  0.90140867  1
  Sn  Sn11  1  0.00000000  0.00000000  0.76525800  1
  O  O12  1  0.33333333  0.16666667  0.16666667  1
  O  O13  1  0.83333333  0.66666667  0.16666667  1
  O  O14  1  0.83333333  0.16666667  0.16666667  1
  O  O15  1  0.00000000  0.50000000  0.50000000  1
  O  O16  1  0.50000000  0.00000000  0.50000000  1
  O  O17  1  0.50000000  0.50000000  0.50000000  1
  O  O18  1  0.66666667  0.83333333  0.83333333  1
  O  O19  1  0.16666667  0.33333333  0.83333333  1
  O  O20  1  0.16666667  0.83333333  0.83333333  1
