# generated using pymatgen
data_La2Ti3O9
_symmetry_space_group_name_H-M   'P 1'
_cell_length_a   9.16601200
_cell_length_b   9.16601200
_cell_length_c   9.16601200
_cell_angle_alpha   90.00000000
_cell_angle_beta   90.00000000
_cell_angle_gamma   90.00000000
_symmetry_Int_Tables_number   1
_chemical_formula_structural   La2Ti3O9
_chemical_formula_sum   'La8 Ti12 O36'
_cell_volume   770.08961086
_cell_formula_units_Z   4
loop_
 _symmetry_equiv_pos_site_id
 _symmetry_equiv_pos_as_xyz
  1  'x, y, z'
loop_
 _atom_site_type_symbol
 _atom_site_label
 _atom_site_symmetry_multiplicity
 _atom_site_fract_x
 _atom_site_fract_y
 _atom_site_fract_z
 _atom_site_occupancy
  La  La0  1  0.70171650  0.29828350  0.29828350  1
  La  La1  1  0.20171650  0.20171650  0.20171650  1
  La  La2  1  0.29828350  0.70171650  0.29828350  1
  La  La3  1  0.29828350  0.29828350  0.70171650  1
  La  La4  1  0.20171650  0.79828350  0.79828350  1
  La  La5  1  0.70171650  0.70171650  0.70171650  1
  La  La6  1  0.79828350  0.20171650  0.79828350  1
  La  La7  1  0.79828350  0.79828350  0.20171650  1
  Ti  Ti8  1  0.00000000  0.34461100  0.50000000  1
  Ti  Ti9  1  0.00000000  0.50000000  0.15538900  1
  Ti  Ti10  1  0.15538900  0.00000000  0.50000000  1
  Ti  Ti11  1  0.34461100  0.50000000  0.00000000  1
  Ti  Ti12  1  0.50000000  0.00000000  0.34461100  1
  Ti  Ti13  1  0.50000000  0.15538900  0.00000000  1
  Ti  Ti14  1  0.50000000  0.84461100  0.00000000  1
  Ti  Ti15  1  0.50000000  0.00000000  0.65538900  1
  Ti  Ti16  1  0.65538900  0.50000000  0.00000000  1
  Ti  Ti17  1  0.84461100  0.00000000  0.50000000  1
  Ti  Ti18  1  0.00000000  0.50000000  0.84461100  1
  Ti  Ti19  1  0.00000000  0.65538900  0.50000000  1
  O  O20  1  0.82115050  0.21294650  0.52657450  1
  O  O21  1  0.97342550  0.32115050  0.28705350  1
  O  O22  1  0.00000000  0.35854300  0.00000000  1
  O  O23  1  0.00000000  0.64145700  0.00000000  1
  O  O24  1  0.00000000  0.00000000  0.35854300  1
  O  O25  1  0.00000000  0.00000000  0.64145700  1
  O  O26  1  0.02657450  0.67884950  0.28705350  1
  O  O27  1  0.17884950  0.21294650  0.47342550  1
  O  O28  1  0.21294650  0.47342550  0.17884950  1
  O  O29  1  0.21294650  0.52657450  0.82115050  1
  O  O30  1  0.28705350  0.97342550  0.32115050  1
  O  O31  1  0.28705350  0.02657450  0.67884950  1
  O  O32  1  0.32115050  0.28705350  0.97342550  1
  O  O33  1  0.35854300  0.00000000  0.00000000  1
  O  O34  1  0.47342550  0.17884950  0.21294650  1
  O  O35  1  0.52657450  0.82115050  0.21294650  1
  O  O36  1  0.64145700  0.00000000  0.00000000  1
  O  O37  1  0.67884950  0.28705350  0.02657450  1
  O  O38  1  0.32115050  0.71294650  0.02657450  1
  O  O39  1  0.47342550  0.82115050  0.78705350  1
  O  O40  1  0.50000000  0.85854300  0.50000000  1
  O  O41  1  0.50000000  0.14145700  0.50000000  1
  O  O42  1  0.50000000  0.50000000  0.85854300  1
  O  O43  1  0.50000000  0.50000000  0.14145700  1
  O  O44  1  0.52657450  0.17884950  0.78705350  1
  O  O45  1  0.67884950  0.71294650  0.97342550  1
  O  O46  1  0.71294650  0.97342550  0.67884950  1
  O  O47  1  0.71294650  0.02657450  0.32115050  1
  O  O48  1  0.78705350  0.47342550  0.82115050  1
  O  O49  1  0.78705350  0.52657450  0.17884950  1
  O  O50  1  0.82115050  0.78705350  0.47342550  1
  O  O51  1  0.85854300  0.50000000  0.50000000  1
  O  O52  1  0.97342550  0.67884950  0.71294650  1
  O  O53  1  0.02657450  0.32115050  0.71294650  1
  O  O54  1  0.14145700  0.50000000  0.50000000  1
  O  O55  1  0.17884950  0.78705350  0.52657450  1
