# generated using pymatgen
data_Li2Cr4O13
_symmetry_space_group_name_H-M   'P 1'
_cell_length_a   7.89020800
_cell_length_b   17.94993200
_cell_length_c   8.91970300
_cell_angle_alpha   90.00000000
_cell_angle_beta   90.00000000
_cell_angle_gamma   90.00000000
_symmetry_Int_Tables_number   1
_chemical_formula_structural   Li2Cr4O13
_chemical_formula_sum   'Li8 Cr16 O52'
_cell_volume   1263.28591410
_cell_formula_units_Z   4
loop_
 _symmetry_equiv_pos_site_id
 _symmetry_equiv_pos_as_xyz
  1  'x, y, z'
loop_
 _atom_site_type_symbol
 _atom_site_label
 _atom_site_symmetry_multiplicity
 _atom_site_fract_x
 _atom_site_fract_y
 _atom_site_fract_z
 _atom_site_occupancy
  Li  Li0  1  0.24494050  0.65506750  0.14079500  1
  Li  Li1  1  0.75505950  0.65506750  0.35920500  1
  Li  Li2  1  0.74494050  0.84493250  0.85920500  1
  Li  Li3  1  0.25505950  0.84493250  0.64079500  1
  Li  Li4  1  0.74494050  0.15506750  0.14079500  1
  Li  Li5  1  0.25505950  0.15506750  0.35920500  1
  Li  Li6  1  0.24494050  0.34493250  0.85920500  1
  Li  Li7  1  0.75505950  0.34493250  0.64079500  1
  Cr  Cr8  1  0.71940550  0.55711850  0.72191800  1
  Cr  Cr9  1  0.28059450  0.55711850  0.77808200  1
  Cr  Cr10  1  0.73986300  0.66349900  0.01131600  1
  Cr  Cr11  1  0.26013700  0.66349900  0.48868400  1
  Cr  Cr12  1  0.23986300  0.83650100  0.98868400  1
  Cr  Cr13  1  0.76013700  0.83650100  0.51131600  1
  Cr  Cr14  1  0.78059450  0.94288150  0.22191800  1
  Cr  Cr15  1  0.21940550  0.94288150  0.27808200  1
  Cr  Cr16  1  0.21940550  0.05711850  0.72191800  1
  Cr  Cr17  1  0.78059450  0.05711850  0.77808200  1
  Cr  Cr18  1  0.23986300  0.16349900  0.01131600  1
  Cr  Cr19  1  0.76013700  0.16349900  0.48868400  1
  Cr  Cr20  1  0.73986300  0.33650100  0.98868400  1
  Cr  Cr21  1  0.26013700  0.33650100  0.51131600  1
  Cr  Cr22  1  0.28059450  0.44288150  0.22191800  1
  Cr  Cr23  1  0.71940550  0.44288150  0.27808200  1
  O  O24  1  0.78240900  0.52586700  0.31631800  1
  O  O25  1  0.21759100  0.52586700  0.18368200  1
  O  O26  1  0.50000000  0.55740500  0.75000000  1
  O  O27  1  0.19234650  0.58580950  0.61131400  1
  O  O28  1  0.80765350  0.58580950  0.88868600  1
  O  O29  1  0.76560350  0.61329950  0.58714200  1
  O  O30  1  0.23439650  0.61329950  0.91285800  1
  O  O31  1  0.55105450  0.64718650  0.07529100  1
  O  O32  1  0.44894550  0.64718650  0.42470900  1
  O  O33  1  0.12922750  0.66888050  0.34838800  1
  O  O34  1  0.87077250  0.66888050  0.15161200  1
  O  O35  1  0.74339100  0.73995300  0.91348900  1
  O  O36  1  0.25660900  0.73995300  0.58651100  1
  O  O37  1  0.24339100  0.76004700  0.08651100  1
  O  O38  1  0.75660900  0.76004700  0.41348900  1
  O  O39  1  0.37077250  0.83111950  0.84838800  1
  O  O40  1  0.62922750  0.83111950  0.65161200  1
  O  O41  1  0.94894550  0.85281350  0.57529100  1
  O  O42  1  0.05105450  0.85281350  0.92470900  1
  O  O43  1  0.73439650  0.88670050  0.08714200  1
  O  O44  1  0.26560350  0.88670050  0.41285800  1
  O  O45  1  0.30765350  0.91419050  0.11131400  1
  O  O46  1  0.69234650  0.91419050  0.38868600  1
  O  O47  1  0.00000000  0.94259500  0.25000000  1
  O  O48  1  0.28240900  0.97413300  0.68368200  1
  O  O49  1  0.71759100  0.97413300  0.81631800  1
  O  O50  1  0.28240900  0.02586700  0.31631800  1
  O  O51  1  0.71759100  0.02586700  0.18368200  1
  O  O52  1  0.00000000  0.05740500  0.75000000  1
  O  O53  1  0.69234650  0.08580950  0.61131400  1
  O  O54  1  0.30765350  0.08580950  0.88868600  1
  O  O55  1  0.26560350  0.11329950  0.58714200  1
  O  O56  1  0.73439650  0.11329950  0.91285800  1
  O  O57  1  0.05105450  0.14718650  0.07529100  1
  O  O58  1  0.94894550  0.14718650  0.42470900  1
  O  O59  1  0.62922750  0.16888050  0.34838800  1
  O  O60  1  0.37077250  0.16888050  0.15161200  1
  O  O61  1  0.24339100  0.23995300  0.91348900  1
  O  O62  1  0.75660900  0.23995300  0.58651100  1
  O  O63  1  0.74339100  0.26004700  0.08651100  1
  O  O64  1  0.25660900  0.26004700  0.41348900  1
  O  O65  1  0.87077250  0.33111950  0.84838800  1
  O  O66  1  0.12922750  0.33111950  0.65161200  1
  O  O67  1  0.44894550  0.35281350  0.57529100  1
  O  O68  1  0.55105450  0.35281350  0.92470900  1
  O  O69  1  0.23439650  0.38670050  0.08714200  1
  O  O70  1  0.76560350  0.38670050  0.41285800  1
  O  O71  1  0.80765350  0.41419050  0.11131400  1
  O  O72  1  0.19234650  0.41419050  0.38868600  1
  O  O73  1  0.50000000  0.44259500  0.25000000  1
  O  O74  1  0.78240900  0.47413300  0.68368200  1
  O  O75  1  0.21759100  0.47413300  0.81631800  1
