# generated using pymatgen
data_Li2VO2F
_symmetry_space_group_name_H-M   'P 1'
_cell_length_a   14.70505400
_cell_length_b   6.02253800
_cell_length_c   5.20720918
_cell_angle_alpha   90.00000000
_cell_angle_beta   90.17818553
_cell_angle_gamma   90.00000000
_symmetry_Int_Tables_number   1
_chemical_formula_structural   Li2VO2F
_chemical_formula_sum   'Li16 V8 O16 F8'
_cell_volume   461.15730942
_cell_formula_units_Z   8
loop_
 _symmetry_equiv_pos_site_id
 _symmetry_equiv_pos_as_xyz
  1  'x, y, z'
loop_
 _atom_site_type_symbol
 _atom_site_label
 _atom_site_symmetry_multiplicity
 _atom_site_fract_x
 _atom_site_fract_y
 _atom_site_fract_z
 _atom_site_occupancy
  Li  Li0  1  0.56746700  0.75838500  0.85095600  1
  Li  Li1  1  0.56968400  0.00000000  0.29906000  1
  Li  Li2  1  0.92247100  0.00000000  0.66380400  1
  Li  Li3  1  0.56746700  0.24161500  0.85095600  1
  Li  Li4  1  0.92809200  0.27249900  0.15648300  1
  Li  Li5  1  0.57706900  0.50000000  0.33799600  1
  Li  Li6  1  0.93057900  0.50000000  0.68485300  1
  Li  Li7  1  0.92809200  0.72750100  0.15648300  1
  Li  Li8  1  0.06746700  0.25838500  0.85095600  1
  Li  Li9  1  0.06968400  0.50000000  0.29906000  1
  Li  Li10  1  0.42247100  0.50000000  0.66380400  1
  Li  Li11  1  0.06746700  0.74161500  0.85095600  1
  Li  Li12  1  0.42809200  0.77249900  0.15648300  1
  Li  Li13  1  0.07706900  0.00000000  0.33799600  1
  Li  Li14  1  0.43057900  0.00000000  0.68485300  1
  Li  Li15  1  0.42809200  0.22750100  0.15648300  1
  V  V16  1  0.75330700  0.74457900  0.49543100  1
  V  V17  1  0.75186600  0.00000000  0.01376800  1
  V  V18  1  0.75330700  0.25542100  0.49543100  1
  V  V19  1  0.75067300  0.50000000  0.99580600  1
  V  V20  1  0.25330700  0.24457900  0.49543100  1
  V  V21  1  0.25186600  0.50000000  0.01376800  1
  V  V22  1  0.25330700  0.75542100  0.49543100  1
  V  V23  1  0.25067300  0.00000000  0.99580600  1
  O  O24  1  0.67675200  0.75086600  0.17118900  1
  O  O25  1  0.82543700  0.00000000  0.34805800  1
  O  O26  1  0.50065500  0.00000000  0.99441400  1
  O  O27  1  0.82200800  0.24183700  0.83117500  1
  O  O28  1  0.67675200  0.24913400  0.17118900  1
  O  O29  1  0.82698500  0.50000000  0.32432200  1
  O  O30  1  0.67697400  0.50000000  0.65841500  1
  O  O31  1  0.82200800  0.75816300  0.83117500  1
  O  O32  1  0.17675200  0.25086600  0.17118900  1
  O  O33  1  0.32543700  0.50000000  0.34805800  1
  O  O34  1  0.00065500  0.50000000  0.99441400  1
  O  O35  1  0.32200800  0.74183700  0.83117500  1
  O  O36  1  0.17675200  0.74913400  0.17118900  1
  O  O37  1  0.32698500  0.00000000  0.32432200  1
  O  O38  1  0.17697400  0.00000000  0.65841500  1
  O  O39  1  0.32200800  0.25816300  0.83117500  1
  F  F40  1  0.99932200  0.00000000  0.00062500  1
  F  F41  1  0.50140300  0.74293500  0.50042300  1
  F  F42  1  0.66945400  0.00000000  0.66763200  1
  F  F43  1  0.50140300  0.25706500  0.50042300  1
  F  F44  1  0.49932200  0.50000000  0.00062500  1
  F  F45  1  0.00140300  0.24293500  0.50042300  1
  F  F46  1  0.16945400  0.50000000  0.66763200  1
  F  F47  1  0.00140300  0.75706500  0.50042300  1
