# generated using pymatgen
data_V2Co(H4O5)2
_symmetry_space_group_name_H-M   'P 1'
_cell_length_a   13.42343200
_cell_length_b   10.05398000
_cell_length_c   7.12525182
_cell_angle_alpha   90.00000000
_cell_angle_beta   109.96966176
_cell_angle_gamma   90.00000000
_symmetry_Int_Tables_number   1
_chemical_formula_structural   V2Co(H4O5)2
_chemical_formula_sum   'V8 Co4 H32 O40'
_cell_volume   903.79773294
_cell_formula_units_Z   4
loop_
 _symmetry_equiv_pos_site_id
 _symmetry_equiv_pos_as_xyz
  1  'x, y, z'
loop_
 _atom_site_type_symbol
 _atom_site_label
 _atom_site_symmetry_multiplicity
 _atom_site_fract_x
 _atom_site_fract_y
 _atom_site_fract_z
 _atom_site_occupancy
  V  V0  1  0.89575450  0.02035550  0.80904000  1
  V  V1  1  0.89575450  0.97964450  0.30904000  1
  V  V2  1  0.10424550  0.02035550  0.69096000  1
  V  V3  1  0.10424550  0.97964450  0.19096000  1
  V  V4  1  0.39575450  0.52035550  0.80904000  1
  V  V5  1  0.39575450  0.47964450  0.30904000  1
  V  V6  1  0.60424550  0.52035550  0.69096000  1
  V  V7  1  0.60424550  0.47964450  0.19096000  1
  Co  Co8  1  0.25000000  0.25000000  0.50000000  1
  Co  Co9  1  0.25000000  0.75000000  0.00000000  1
  Co  Co10  1  0.75000000  0.75000000  0.50000000  1
  Co  Co11  1  0.75000000  0.25000000  0.00000000  1
  H  H12  1  0.69352650  0.11256950  0.49603800  1
  H  H13  1  0.58768200  0.19124500  0.41170700  1
  H  H14  1  0.38322300  0.12365800  0.79145600  1
  H  H15  1  0.69352650  0.88743050  0.99603800  1
  H  H16  1  0.60051050  0.06823050  0.90372800  1
  H  H17  1  0.58768200  0.80875500  0.91170700  1
  H  H18  1  0.38322300  0.87634200  0.29145600  1
  H  H19  1  0.60051050  0.93176950  0.40372800  1
  H  H20  1  0.39948950  0.06823050  0.59627200  1
  H  H21  1  0.61677700  0.12365800  0.70854400  1
  H  H22  1  0.41231800  0.19124500  0.08829300  1
  H  H23  1  0.39948950  0.93176950  0.09627200  1
  H  H24  1  0.30647350  0.11256950  0.00396200  1
  H  H25  1  0.61677700  0.87634200  0.20854400  1
  H  H26  1  0.41231800  0.80875500  0.58829300  1
  H  H27  1  0.30647350  0.88743050  0.50396200  1
  H  H28  1  0.19352650  0.61256950  0.49603800  1
  H  H29  1  0.08768200  0.69124500  0.41170700  1
  H  H30  1  0.88322300  0.62365800  0.79145600  1
  H  H31  1  0.19352650  0.38743050  0.99603800  1
  H  H32  1  0.10051050  0.56823050  0.90372800  1
  H  H33  1  0.08768200  0.30875500  0.91170700  1
  H  H34  1  0.88322300  0.37634200  0.29145600  1
  H  H35  1  0.10051050  0.43176950  0.40372800  1
  H  H36  1  0.89948950  0.56823050  0.59627200  1
  H  H37  1  0.11677700  0.62365800  0.70854400  1
  H  H38  1  0.91231800  0.69124500  0.08829300  1
  H  H39  1  0.89948950  0.43176950  0.09627200  1
  H  H40  1  0.80647350  0.61256950  0.00396200  1
  H  H41  1  0.11677700  0.37634200  0.20854400  1
  H  H42  1  0.91231800  0.30875500  0.58829300  1
  H  H43  1  0.80647350  0.38743050  0.50396200  1
  O  O44  1  0.94197550  0.04388450  0.58047300  1
  O  O45  1  0.94197550  0.95611550  0.08047300  1
  O  O46  1  0.80194850  0.90473450  0.69925100  1
  O  O47  1  0.80194850  0.09526550  0.19925100  1
  O  O48  1  0.16822950  0.16369450  0.68574800  1
  O  O49  1  0.61560200  0.14989000  0.84304500  1
  O  O50  1  0.38236600  0.10657000  0.02566900  1
  O  O51  1  0.16822950  0.83630550  0.18574800  1
  O  O52  1  0.61560200  0.85011000  0.34304500  1
  O  O53  1  0.38236600  0.89343000  0.52566900  1
  O  O54  1  0.61763400  0.10657000  0.47433100  1
  O  O55  1  0.38439800  0.14989000  0.65695500  1
  O  O56  1  0.83177050  0.16369450  0.81425200  1
  O  O57  1  0.61763400  0.89343000  0.97433100  1
  O  O58  1  0.38439800  0.85011000  0.15695500  1
  O  O59  1  0.83177050  0.83630550  0.31425200  1
  O  O60  1  0.19805150  0.90473450  0.80074900  1
  O  O61  1  0.19805150  0.09526550  0.30074900  1
  O  O62  1  0.05802450  0.04388450  0.91952700  1
  O  O63  1  0.05802450  0.95611550  0.41952700  1
  O  O64  1  0.44197550  0.54388450  0.58047300  1
  O  O65  1  0.44197550  0.45611550  0.08047300  1
  O  O66  1  0.30194850  0.40473450  0.69925100  1
  O  O67  1  0.30194850  0.59526550  0.19925100  1
  O  O68  1  0.66822950  0.66369450  0.68574800  1
  O  O69  1  0.11560200  0.64989000  0.84304500  1
  O  O70  1  0.88236600  0.60657000  0.02566900  1
  O  O71  1  0.66822950  0.33630550  0.18574800  1
  O  O72  1  0.11560200  0.35011000  0.34304500  1
  O  O73  1  0.88236600  0.39343000  0.52566900  1
  O  O74  1  0.11763400  0.60657000  0.47433100  1
  O  O75  1  0.88439800  0.64989000  0.65695500  1
  O  O76  1  0.33177050  0.66369450  0.81425200  1
  O  O77  1  0.11763400  0.39343000  0.97433100  1
  O  O78  1  0.88439800  0.35011000  0.15695500  1
  O  O79  1  0.33177050  0.33630550  0.31425200  1
  O  O80  1  0.69805150  0.40473450  0.80074900  1
  O  O81  1  0.69805150  0.59526550  0.30074900  1
  O  O82  1  0.55802450  0.54388450  0.91952700  1
  O  O83  1  0.55802450  0.45611550  0.41952700  1
