# generated using pymatgen
data_Na4MgO3
_symmetry_space_group_name_H-M   'P 1'
_cell_length_a   11.18609400
_cell_length_b   5.94033200
_cell_length_c   8.11418985
_cell_angle_alpha   90.00000000
_cell_angle_beta   112.43806743
_cell_angle_gamma   90.00000000
_symmetry_Int_Tables_number   1
_chemical_formula_structural   Na4MgO3
_chemical_formula_sum   'Na16 Mg4 O12'
_cell_volume   498.36076588
_cell_formula_units_Z   4
loop_
 _symmetry_equiv_pos_site_id
 _symmetry_equiv_pos_as_xyz
  1  'x, y, z'
loop_
 _atom_site_type_symbol
 _atom_site_label
 _atom_site_symmetry_multiplicity
 _atom_site_fract_x
 _atom_site_fract_y
 _atom_site_fract_z
 _atom_site_occupancy
  Na  Na0  1  0.29617450  0.21790950  0.83900500  1
  Na  Na1  1  0.29617450  0.78209050  0.33900500  1
  Na  Na2  1  0.38002050  0.35185350  0.53802500  1
  Na  Na3  1  0.11811800  0.85072700  0.93182700  1
  Na  Na4  1  0.38002050  0.64814650  0.03802500  1
  Na  Na5  1  0.11811800  0.14927300  0.43182700  1
  Na  Na6  1  0.21539050  0.66365550  0.63756900  1
  Na  Na7  1  0.21539050  0.33634450  0.13756900  1
  Na  Na8  1  0.79617450  0.71790950  0.83900500  1
  Na  Na9  1  0.79617450  0.28209050  0.33900500  1
  Na  Na10  1  0.88002050  0.85185350  0.53802500  1
  Na  Na11  1  0.61811800  0.35072700  0.93182700  1
  Na  Na12  1  0.88002050  0.14814650  0.03802500  1
  Na  Na13  1  0.61811800  0.64927300  0.43182700  1
  Na  Na14  1  0.71539050  0.16365550  0.63756900  1
  Na  Na15  1  0.71539050  0.83634450  0.13756900  1
  Mg  Mg16  1  0.47807450  0.85863250  0.75274400  1
  Mg  Mg17  1  0.47807450  0.14136750  0.25274400  1
  Mg  Mg18  1  0.97807450  0.35863250  0.75274400  1
  Mg  Mg19  1  0.97807450  0.64136750  0.25274400  1
  O  O20  1  0.31760300  0.00347500  0.60210300  1
  O  O21  1  0.31760300  0.99652500  0.10210300  1
  O  O22  1  0.14739550  0.49404050  0.84774100  1
  O  O23  1  0.14739550  0.50595950  0.34774100  1
  O  O24  1  0.43978400  0.55391500  0.80335600  1
  O  O25  1  0.43978400  0.44608500  0.30335600  1
  O  O26  1  0.81760300  0.50347500  0.60210300  1
  O  O27  1  0.81760300  0.49652500  0.10210300  1
  O  O28  1  0.64739550  0.99404050  0.84774100  1
  O  O29  1  0.64739550  0.00595950  0.34774100  1
  O  O30  1  0.93978400  0.05391500  0.80335600  1
  O  O31  1  0.93978400  0.94608500  0.30335600  1
