# generated using pymatgen
data_Lu4(B2O5)3
_symmetry_space_group_name_H-M   'P 1'
_cell_length_a   11.56284800
_cell_length_b   4.37326400
_cell_length_c   18.67674792
_cell_angle_alpha   90.00000000
_cell_angle_beta   96.21993550
_cell_angle_gamma   90.00000000
_symmetry_Int_Tables_number   1
_chemical_formula_structural   Lu4(B2O5)3
_chemical_formula_sum   'Lu16 B24 O60'
_cell_volume   938.87476129
_cell_formula_units_Z   4
loop_
 _symmetry_equiv_pos_site_id
 _symmetry_equiv_pos_as_xyz
  1  'x, y, z'
loop_
 _atom_site_type_symbol
 _atom_site_label
 _atom_site_symmetry_multiplicity
 _atom_site_fract_x
 _atom_site_fract_y
 _atom_site_fract_z
 _atom_site_occupancy
  Lu  Lu0  1  0.86269150  0.20547450  0.69823400  1
  Lu  Lu1  1  0.86595950  0.19691950  0.90030000  1
  Lu  Lu2  1  0.86269150  0.79452550  0.19823400  1
  Lu  Lu3  1  0.86595950  0.80308050  0.40030000  1
  Lu  Lu4  1  0.63404050  0.69691950  0.59970000  1
  Lu  Lu5  1  0.63730850  0.70547450  0.80176600  1
  Lu  Lu6  1  0.63404050  0.30308050  0.09970000  1
  Lu  Lu7  1  0.63730850  0.29452550  0.30176600  1
  Lu  Lu8  1  0.36269150  0.70547450  0.69823400  1
  Lu  Lu9  1  0.36595950  0.69691950  0.90030000  1
  Lu  Lu10  1  0.36269150  0.29452550  0.19823400  1
  Lu  Lu11  1  0.36595950  0.30308050  0.40030000  1
  Lu  Lu12  1  0.13404050  0.19691950  0.59970000  1
  Lu  Lu13  1  0.13730850  0.20547450  0.80176600  1
  Lu  Lu14  1  0.13404050  0.80308050  0.09970000  1
  Lu  Lu15  1  0.13730850  0.79452550  0.30176600  1
  B  B16  1  0.90320000  0.70578300  0.58706000  1
  B  B17  1  0.93114450  0.72742850  0.80587200  1
  B  B18  1  0.83134850  0.18945150  0.52543800  1
  B  B19  1  0.90320000  0.29421700  0.08706000  1
  B  B20  1  0.93114450  0.27257150  0.30587200  1
  B  B21  1  0.83134850  0.81054850  0.02543800  1
  B  B22  1  0.66865150  0.68945150  0.97456200  1
  B  B23  1  0.56885550  0.22742850  0.69412800  1
  B  B24  1  0.59680000  0.20578300  0.91294000  1
  B  B25  1  0.66865150  0.31054850  0.47456200  1
  B  B26  1  0.56885550  0.77257150  0.19412800  1
  B  B27  1  0.59680000  0.79421700  0.41294000  1
  B  B28  1  0.40320000  0.20578300  0.58706000  1
  B  B29  1  0.43114450  0.22742850  0.80587200  1
  B  B30  1  0.33134850  0.68945150  0.52543800  1
  B  B31  1  0.40320000  0.79421700  0.08706000  1
  B  B32  1  0.43114450  0.77257150  0.30587200  1
  B  B33  1  0.33134850  0.31054850  0.02543800  1
  B  B34  1  0.16865150  0.18945150  0.97456200  1
  B  B35  1  0.06885550  0.72742850  0.69412800  1
  B  B36  1  0.09680000  0.70578300  0.91294000  1
  B  B37  1  0.16865150  0.81054850  0.47456200  1
  B  B38  1  0.06885550  0.27257150  0.19412800  1
  B  B39  1  0.09680000  0.29421700  0.41294000  1
  O  O40  1  0.98481550  0.82779450  0.87894500  1
  O  O41  1  0.91631800  0.37065900  0.57129600  1
  O  O42  1  0.93391100  0.39927400  0.80331500  1
  O  O43  1  0.87315150  0.87635750  0.51925800  1
  O  O44  1  0.98481550  0.17220550  0.37894500  1
  O  O45  1  0.91631800  0.62934100  0.07129600  1
  O  O46  1  0.81799600  0.74655200  0.63870300  1
  O  O47  1  0.93391100  0.60072600  0.30331500  1
  O  O48  1  0.87315150  0.12364250  0.01925800  1
  O  O49  1  0.81606250  0.86808550  0.79584600  1
  O  O50  1  0.79204250  0.70074950  0.95005800  1
  O  O51  1  0.70795750  0.20074950  0.54994200  1
  O  O52  1  0.81799600  0.25344800  0.13870300  1
  O  O53  1  0.81606250  0.13191450  0.29584600  1
  O  O54  1  0.68393750  0.36808550  0.70415400  1
  O  O55  1  0.68200400  0.24655200  0.86129700  1
  O  O56  1  0.79204250  0.29925050  0.45005800  1
  O  O57  1  0.70795750  0.79925050  0.04994200  1
  O  O58  1  0.68393750  0.63191450  0.20415400  1
  O  O59  1  0.62684850  0.37635750  0.98074200  1
  O  O60  1  0.56608900  0.89927400  0.69668500  1
  O  O61  1  0.68200400  0.75344800  0.36129700  1
  O  O62  1  0.58368200  0.87065900  0.92870400  1
  O  O63  1  0.51518450  0.32779450  0.62105500  1
  O  O64  1  0.00000000  0.87021500  0.75000000  1
  O  O65  1  0.62684850  0.62364250  0.48074200  1
  O  O66  1  0.56608900  0.10072600  0.19668500  1
  O  O67  1  0.58368200  0.12934100  0.42870400  1
  O  O68  1  0.51518450  0.67220550  0.12105500  1
  O  O69  1  0.00000000  0.12978500  0.25000000  1
  O  O70  1  0.48481550  0.32779450  0.87894500  1
  O  O71  1  0.41631800  0.87065900  0.57129600  1
  O  O72  1  0.43391100  0.89927400  0.80331500  1
  O  O73  1  0.37315150  0.37635750  0.51925800  1
  O  O74  1  0.48481550  0.67220550  0.37894500  1
  O  O75  1  0.41631800  0.12934100  0.07129600  1
  O  O76  1  0.31799600  0.24655200  0.63870300  1
  O  O77  1  0.43391100  0.10072600  0.30331500  1
  O  O78  1  0.37315150  0.62364250  0.01925800  1
  O  O79  1  0.31606250  0.36808550  0.79584600  1
  O  O80  1  0.29204250  0.20074950  0.95005800  1
  O  O81  1  0.20795750  0.70074950  0.54994200  1
  O  O82  1  0.31799600  0.75344800  0.13870300  1
  O  O83  1  0.31606250  0.63191450  0.29584600  1
  O  O84  1  0.18393750  0.86808550  0.70415400  1
  O  O85  1  0.18200400  0.74655200  0.86129700  1
  O  O86  1  0.29204250  0.79925050  0.45005800  1
  O  O87  1  0.20795750  0.29925050  0.04994200  1
  O  O88  1  0.18393750  0.13191450  0.20415400  1
  O  O89  1  0.12684850  0.87635750  0.98074200  1
  O  O90  1  0.06608900  0.39927400  0.69668500  1
  O  O91  1  0.18200400  0.25344800  0.36129700  1
  O  O92  1  0.08368200  0.37065900  0.92870400  1
  O  O93  1  0.01518450  0.82779450  0.62105500  1
  O  O94  1  0.50000000  0.37021500  0.75000000  1
  O  O95  1  0.12684850  0.12364250  0.48074200  1
  O  O96  1  0.06608900  0.60072600  0.19668500  1
  O  O97  1  0.08368200  0.62934100  0.42870400  1
  O  O98  1  0.01518450  0.17220550  0.12105500  1
  O  O99  1  0.50000000  0.62978500  0.25000000  1
