# generated using pymatgen
data_Sn2N2O
_symmetry_space_group_name_H-M   'P 1'
_cell_length_a   8.81708100
_cell_length_b   8.81982937
_cell_length_c   8.86583690
_cell_angle_alpha   109.43992882
_cell_angle_beta   109.41714059
_cell_angle_gamma   109.14561283
_symmetry_Int_Tables_number   1
_chemical_formula_structural   Sn2N2O
_chemical_formula_sum   'Sn16 N16 O8'
_cell_volume   533.41295966
_cell_formula_units_Z   8
loop_
 _symmetry_equiv_pos_site_id
 _symmetry_equiv_pos_as_xyz
  1  'x, y, z'
loop_
 _atom_site_type_symbol
 _atom_site_label
 _atom_site_symmetry_multiplicity
 _atom_site_fract_x
 _atom_site_fract_y
 _atom_site_fract_z
 _atom_site_occupancy
  Sn  Sn0  1  0.97302400  0.22274100  0.26054100  1
  Sn  Sn1  1  0.99643100  0.99688600  0.49146500  1
  Sn  Sn2  1  0.73160700  0.75404000  0.96902200  1
  Sn  Sn3  1  0.77753800  0.23899400  0.52752000  1
  Sn  Sn4  1  0.24418500  0.52801000  0.77971000  1
  Sn  Sn5  1  0.25293500  0.03107500  0.28627600  1
  Sn  Sn6  1  0.46358500  0.71364700  0.25472500  1
  Sn  Sn7  1  0.48847100  0.99625300  0.99028900  1
  Sn  Sn8  1  0.00658800  0.50353500  0.01020800  1
  Sn  Sn9  1  0.53167800  0.28141500  0.74889700  1
  Sn  Sn10  1  0.51539600  0.50513500  0.50074600  1
  Sn  Sn11  1  0.75117600  0.47367500  0.20977200  1
  Sn  Sn12  1  0.73712900  0.95353700  0.70371900  1
  Sn  Sn13  1  0.29613500  0.25602000  0.03185100  1
  Sn  Sn14  1  0.21400700  0.74846200  0.46895800  1
  Sn  Sn15  1  0.03488500  0.78614200  0.75227100  1
  N  N16  1  0.03772500  0.27733100  0.53884000  1
  N  N17  1  0.23177300  0.45929800  0.98884900  1
  N  N18  1  0.54654900  0.27203300  0.50347500  1
  N  N19  1  0.27137100  0.04348600  0.54567600  1
  N  N20  1  0.77981500  0.73838600  0.74208800  1
  N  N21  1  0.50213200  0.22713400  0.95553800  1
  N  N22  1  0.99586600  0.45053200  0.23094800  1
  N  N23  1  0.72434000  0.95984800  0.45594100  1
  N  N24  1  0.23390700  0.77028300  0.22778700  1
  N  N25  1  0.26153100  0.00298300  0.04003600  1
  N  N26  1  0.76979300  0.53938800  0.99418800  1
  N  N27  1  0.45646600  0.72693500  0.50897200  1
  N  N28  1  0.26540800  0.75533300  0.73410100  1
  N  N29  1  0.96331200  0.96706300  0.22218400  1
  N  N30  1  0.54495100  0.50291900  0.27013200  1
  N  N31  1  0.95665400  0.73073500  0.46548600  1
  O  O32  1  0.45486600  0.49861900  0.73042300  1
  O  O33  1  0.03812300  0.05397100  0.77472700  1
  O  O34  1  0.71474400  0.21181100  0.26194700  1
  O  O35  1  0.72357600  0.00610500  0.95339500  1
  O  O36  1  0.77379000  0.22261500  0.77761800  1
  O  O37  1  0.97897300  0.53137900  0.76598800  1
  O  O38  1  0.23705800  0.28511000  0.27951000  1
  O  O39  1  0.52249900  0.77713300  0.04617600  1
