# generated using pymatgen
data_LiCoSiO4
_symmetry_space_group_name_H-M   'P 1'
_cell_length_a   9.52885000
_cell_length_b   4.82418600
_cell_length_c   9.15855641
_cell_angle_alpha   90.00000000
_cell_angle_beta   120.20668449
_cell_angle_gamma   90.00000000
_symmetry_Int_Tables_number   1
_chemical_formula_structural   LiCoSiO4
_chemical_formula_sum   'Li4 Co4 Si4 O16'
_cell_volume   363.84291069
_cell_formula_units_Z   4
loop_
 _symmetry_equiv_pos_site_id
 _symmetry_equiv_pos_as_xyz
  1  'x, y, z'
loop_
 _atom_site_type_symbol
 _atom_site_label
 _atom_site_symmetry_multiplicity
 _atom_site_fract_x
 _atom_site_fract_y
 _atom_site_fract_z
 _atom_site_occupancy
  Li  Li0  1  0.85909500  0.65294000  0.86454800  1
  Li  Li1  1  0.35909500  0.84706000  0.36454800  1
  Li  Li2  1  0.35909500  0.15294000  0.86454800  1
  Li  Li3  1  0.85909500  0.34706000  0.36454800  1
  Co  Co4  1  0.67673950  0.82124250  0.50614400  1
  Co  Co5  1  0.17673950  0.67875750  0.00614400  1
  Co  Co6  1  0.17673950  0.32124250  0.50614400  1
  Co  Co7  1  0.67673950  0.17875750  0.00614400  1
  Si  Si8  1  0.51557550  0.64980850  0.74663200  1
  Si  Si9  1  0.51557550  0.35019150  0.24663200  1
  Si  Si10  1  0.01557550  0.14980850  0.74663200  1
  Si  Si11  1  0.01557550  0.85019150  0.24663200  1
  O  O12  1  0.34762250  0.47392050  0.69506100  1
  O  O13  1  0.68094050  0.47349750  0.88283200  1
  O  O14  1  0.51766200  0.93722000  0.84149500  1
  O  O15  1  0.52852550  0.70357850  0.57818800  1
  O  O16  1  0.34762250  0.52607950  0.19506100  1
  O  O17  1  0.68094050  0.52650250  0.38283200  1
  O  O18  1  0.51766200  0.06278000  0.34149500  1
  O  O19  1  0.52852550  0.29642150  0.07818800  1
  O  O20  1  0.84762250  0.97392050  0.69506100  1
  O  O21  1  0.18094050  0.97349750  0.88283200  1
  O  O22  1  0.01766200  0.43722000  0.84149500  1
  O  O23  1  0.02852550  0.20357850  0.57818800  1
  O  O24  1  0.84762250  0.02607950  0.19506100  1
  O  O25  1  0.18094050  0.02650250  0.38283200  1
  O  O26  1  0.01766200  0.56278000  0.34149500  1
  O  O27  1  0.02852550  0.79642150  0.07818800  1
