# generated using pymatgen
data_Ba3La2Cl12
_symmetry_space_group_name_H-M   'P 1'
_cell_length_a   10.33096200
_cell_length_b   14.73458600
_cell_length_c   15.93903956
_cell_angle_alpha   90.00000000
_cell_angle_beta   108.71092948
_cell_angle_gamma   90.00000000
_symmetry_Int_Tables_number   1
_chemical_formula_structural   Ba3La2Cl12
_chemical_formula_sum   'Ba12 La8 Cl48'
_cell_volume   2298.04856371
_cell_formula_units_Z   4
loop_
 _symmetry_equiv_pos_site_id
 _symmetry_equiv_pos_as_xyz
  1  'x, y, z'
loop_
 _atom_site_type_symbol
 _atom_site_label
 _atom_site_symmetry_multiplicity
 _atom_site_fract_x
 _atom_site_fract_y
 _atom_site_fract_z
 _atom_site_occupancy
  Ba  Ba0  1  0.50000000  0.63016100  0.25000000  1
  Ba  Ba1  1  0.33736400  0.87655700  0.42007000  1
  Ba  Ba2  1  0.33736400  0.12344300  0.92007000  1
  Ba  Ba3  1  0.66263600  0.87655700  0.07993000  1
  Ba  Ba4  1  0.66263600  0.12344300  0.57993000  1
  Ba  Ba5  1  0.50000000  0.36983900  0.75000000  1
  Ba  Ba6  1  0.00000000  0.13016100  0.25000000  1
  Ba  Ba7  1  0.83736400  0.37655700  0.42007000  1
  Ba  Ba8  1  0.83736400  0.62344300  0.92007000  1
  Ba  Ba9  1  0.16263600  0.37655700  0.07993000  1
  Ba  Ba10  1  0.16263600  0.62344300  0.57993000  1
  Ba  Ba11  1  0.00000000  0.86983900  0.75000000  1
  La  La12  1  0.17419050  0.87497050  0.08996500  1
  La  La13  1  0.17419050  0.12502950  0.58996500  1
  La  La14  1  0.82580950  0.87497050  0.41003500  1
  La  La15  1  0.82580950  0.12502950  0.91003500  1
  La  La16  1  0.67419050  0.37497050  0.08996500  1
  La  La17  1  0.67419050  0.62502950  0.58996500  1
  La  La18  1  0.32580950  0.37497050  0.41003500  1
  La  La19  1  0.32580950  0.62502950  0.91003500  1
  Cl  Cl20  1  0.60180400  0.01032500  0.91712500  1
  Cl  Cl21  1  0.92242350  0.01802550  0.07336000  1
  Cl  Cl22  1  0.39819600  0.01032500  0.58287500  1
  Cl  Cl23  1  0.25201050  0.24574450  0.73978500  1
  Cl  Cl24  1  0.22135750  0.98423050  0.24265400  1
  Cl  Cl25  1  0.59977150  0.24328750  0.92529400  1
  Cl  Cl26  1  0.07757650  0.01802550  0.42664000  1
  Cl  Cl27  1  0.59977150  0.75671250  0.42529400  1
  Cl  Cl28  1  0.25201050  0.75425550  0.23978500  1
  Cl  Cl29  1  0.57447300  0.72021000  0.93006700  1
  Cl  Cl30  1  0.77864250  0.98423050  0.25734600  1
  Cl  Cl31  1  0.42552700  0.72021000  0.56993300  1
  Cl  Cl32  1  0.57447300  0.27979000  0.43006700  1
  Cl  Cl33  1  0.22135750  0.01576950  0.74265400  1
  Cl  Cl34  1  0.42552700  0.27979000  0.06993300  1
  Cl  Cl35  1  0.74798950  0.24574450  0.76021500  1
  Cl  Cl36  1  0.40022850  0.24328750  0.57470600  1
  Cl  Cl37  1  0.92242350  0.98197450  0.57336000  1
  Cl  Cl38  1  0.40022850  0.75671250  0.07470600  1
  Cl  Cl39  1  0.77864250  0.01576950  0.75734600  1
  Cl  Cl40  1  0.74798950  0.75425550  0.26021500  1
  Cl  Cl41  1  0.60180400  0.98967500  0.41712500  1
  Cl  Cl42  1  0.07757650  0.98197450  0.92664000  1
  Cl  Cl43  1  0.39819600  0.98967500  0.08287500  1
  Cl  Cl44  1  0.10180400  0.51032500  0.91712500  1
  Cl  Cl45  1  0.42242350  0.51802550  0.07336000  1
  Cl  Cl46  1  0.89819600  0.51032500  0.58287500  1
  Cl  Cl47  1  0.75201050  0.74574450  0.73978500  1
  Cl  Cl48  1  0.72135750  0.48423050  0.24265400  1
  Cl  Cl49  1  0.09977150  0.74328750  0.92529400  1
  Cl  Cl50  1  0.57757650  0.51802550  0.42664000  1
  Cl  Cl51  1  0.09977150  0.25671250  0.42529400  1
  Cl  Cl52  1  0.75201050  0.25425550  0.23978500  1
  Cl  Cl53  1  0.07447300  0.22021000  0.93006700  1
  Cl  Cl54  1  0.27864250  0.48423050  0.25734600  1
  Cl  Cl55  1  0.92552700  0.22021000  0.56993300  1
  Cl  Cl56  1  0.07447300  0.77979000  0.43006700  1
  Cl  Cl57  1  0.72135750  0.51576950  0.74265400  1
  Cl  Cl58  1  0.92552700  0.77979000  0.06993300  1
  Cl  Cl59  1  0.24798950  0.74574450  0.76021500  1
  Cl  Cl60  1  0.90022850  0.74328750  0.57470600  1
  Cl  Cl61  1  0.42242350  0.48197450  0.57336000  1
  Cl  Cl62  1  0.90022850  0.25671250  0.07470600  1
  Cl  Cl63  1  0.27864250  0.51576950  0.75734600  1
  Cl  Cl64  1  0.24798950  0.25425550  0.26021500  1
  Cl  Cl65  1  0.10180400  0.48967500  0.41712500  1
  Cl  Cl66  1  0.57757650  0.48197450  0.92664000  1
  Cl  Cl67  1  0.89819600  0.48967500  0.08287500  1
