# generated using pymatgen
data_Na4Co2C4SO16
_symmetry_space_group_name_H-M   'P 1'
_cell_length_a   13.95467200
_cell_length_b   14.03777000
_cell_length_c   14.11791000
_cell_angle_alpha   90.00000000
_cell_angle_beta   90.00000000
_cell_angle_gamma   90.00000000
_symmetry_Int_Tables_number   1
_chemical_formula_structural   Na4Co2C4SO16
_chemical_formula_sum   'Na32 Co16 C32 S8 O128'
_cell_volume   2765.59234530
_cell_formula_units_Z   8
loop_
 _symmetry_equiv_pos_site_id
 _symmetry_equiv_pos_as_xyz
  1  'x, y, z'
loop_
 _atom_site_type_symbol
 _atom_site_label
 _atom_site_symmetry_multiplicity
 _atom_site_fract_x
 _atom_site_fract_y
 _atom_site_fract_z
 _atom_site_occupancy
  Na  Na0  1  0.50000000  0.71492100  0.00000000  1
  Na  Na1  1  0.50000000  0.00000000  0.28499600  1
  Na  Na2  1  0.21492800  0.00000000  0.00000000  1
  Na  Na3  1  0.78507200  0.00000000  0.00000000  1
  Na  Na4  1  0.96380400  0.75000000  0.25000000  1
  Na  Na5  1  0.00000000  0.00000000  0.21500400  1
  Na  Na6  1  0.50000000  0.28507900  0.00000000  1
  Na  Na7  1  0.53619600  0.75000000  0.25000000  1
  Na  Na8  1  0.50000000  0.21492100  0.50000000  1
  Na  Na9  1  0.50000000  0.50000000  0.78499600  1
  Na  Na10  1  0.21492800  0.50000000  0.50000000  1
  Na  Na11  1  0.78507200  0.50000000  0.50000000  1
  Na  Na12  1  0.96380400  0.25000000  0.75000000  1
  Na  Na13  1  0.00000000  0.50000000  0.71500400  1
  Na  Na14  1  0.50000000  0.78507900  0.50000000  1
  Na  Na15  1  0.53619600  0.25000000  0.75000000  1
  Na  Na16  1  0.00000000  0.71492100  0.50000000  1
  Na  Na17  1  0.00000000  0.00000000  0.78499600  1
  Na  Na18  1  0.71492800  0.00000000  0.50000000  1
  Na  Na19  1  0.28507200  0.00000000  0.50000000  1
  Na  Na20  1  0.46380400  0.75000000  0.75000000  1
  Na  Na21  1  0.50000000  0.00000000  0.71500400  1
  Na  Na22  1  0.00000000  0.28507900  0.50000000  1
  Na  Na23  1  0.03619600  0.75000000  0.75000000  1
  Na  Na24  1  0.00000000  0.21492100  0.00000000  1
  Na  Na25  1  0.00000000  0.50000000  0.28499600  1
  Na  Na26  1  0.71492800  0.50000000  0.00000000  1
  Na  Na27  1  0.28507200  0.50000000  0.00000000  1
  Na  Na28  1  0.46380400  0.25000000  0.25000000  1
  Na  Na29  1  0.50000000  0.50000000  0.21500400  1
  Na  Na30  1  0.00000000  0.78507900  0.00000000  1
  Na  Na31  1  0.03619600  0.25000000  0.25000000  1
  Co  Co32  1  0.62782150  0.12386950  0.12424100  1
  Co  Co33  1  0.12782150  0.87613050  0.37575900  1
  Co  Co34  1  0.87217850  0.12386950  0.37575900  1
  Co  Co35  1  0.37217850  0.87613050  0.12424100  1
  Co  Co36  1  0.62782150  0.62386950  0.62424100  1
  Co  Co37  1  0.12782150  0.37613050  0.87575900  1
  Co  Co38  1  0.87217850  0.62386950  0.87575900  1
  Co  Co39  1  0.37217850  0.37613050  0.62424100  1
  Co  Co40  1  0.12782150  0.12386950  0.62424100  1
  Co  Co41  1  0.62782150  0.87613050  0.87575900  1
  Co  Co42  1  0.37217850  0.12386950  0.87575900  1
  Co  Co43  1  0.87217850  0.87613050  0.62424100  1
  Co  Co44  1  0.12782150  0.62386950  0.12424100  1
  Co  Co45  1  0.62782150  0.37613050  0.37575900  1
  Co  Co46  1  0.37217850  0.62386950  0.37575900  1
  Co  Co47  1  0.87217850  0.37613050  0.12424100  1
  C  C48  1  0.58954550  0.91052350  0.08894700  1
  C  C49  1  0.65823000  0.16016850  0.33938250  1
  C  C50  1  0.84177000  0.33983150  0.33938250  1
  C  C51  1  0.84177000  0.16016850  0.16061750  1
  C  C52  1  0.41045450  0.08947650  0.08894700  1
  C  C53  1  0.91045450  0.91052350  0.41105300  1
  C  C54  1  0.08954550  0.08947650  0.41105300  1
  C  C55  1  0.65823000  0.33983150  0.16061750  1
  C  C56  1  0.58954550  0.41052350  0.58894700  1
  C  C57  1  0.65823000  0.66016850  0.83938250  1
  C  C58  1  0.84177000  0.83983150  0.83938250  1
  C  C59  1  0.84177000  0.66016850  0.66061750  1
  C  C60  1  0.41045450  0.58947650  0.58894700  1
  C  C61  1  0.91045450  0.41052350  0.91105300  1
  C  C62  1  0.08954550  0.58947650  0.91105300  1
  C  C63  1  0.65823000  0.83983150  0.66061750  1
  C  C64  1  0.08954550  0.91052350  0.58894700  1
  C  C65  1  0.15823000  0.16016850  0.83938250  1
  C  C66  1  0.34177000  0.33983150  0.83938250  1
  C  C67  1  0.34177000  0.16016850  0.66061750  1
  C  C68  1  0.91045450  0.08947650  0.58894700  1
  C  C69  1  0.41045450  0.91052350  0.91105300  1
  C  C70  1  0.58954550  0.08947650  0.91105300  1
  C  C71  1  0.15823000  0.33983150  0.66061750  1
  C  C72  1  0.08954550  0.41052350  0.08894700  1
  C  C73  1  0.15823000  0.66016850  0.33938250  1
  C  C74  1  0.34177000  0.83983150  0.33938250  1
  C  C75  1  0.34177000  0.66016850  0.16061750  1
  C  C76  1  0.91045450  0.58947650  0.08894700  1
  C  C77  1  0.41045450  0.41052350  0.41105300  1
  C  C78  1  0.58954550  0.58947650  0.41105300  1
  C  C79  1  0.15823000  0.83983150  0.16061750  1
  S  S80  1  0.75000000  0.75000000  0.25000000  1
  S  S81  1  0.00000000  0.00000000  0.00000000  1
  S  S82  1  0.75000000  0.25000000  0.75000000  1
  S  S83  1  0.00000000  0.50000000  0.50000000  1
  S  S84  1  0.25000000  0.75000000  0.75000000  1
  S  S85  1  0.50000000  0.00000000  0.50000000  1
  S  S86  1  0.25000000  0.25000000  0.25000000  1
  S  S87  1  0.50000000  0.50000000  0.00000000  1
  O  O88  1  0.52214150  0.89301500  0.15067750  1
  O  O89  1  0.60052650  0.23186000  0.35657550  1
  O  O90  1  0.60225750  0.85378550  0.01841100  1
  O  O91  1  0.63969550  0.10466150  0.26877900  1
  O  O92  1  0.64541950  0.98329050  0.10116400  1
  O  O93  1  0.68744300  0.81084150  0.31072050  1
  O  O94  1  0.68744300  0.68915850  0.18927950  1
  O  O95  1  0.72834050  0.14308550  0.39624400  1
  O  O96  1  0.77165950  0.35691450  0.39624400  1
  O  O97  1  0.77165950  0.14308550  0.10375600  1
  O  O98  1  0.81255700  0.68915850  0.31072050  1
  O  O99  1  0.81255700  0.81084150  0.18927950  1
  O  O100  1  0.85458050  0.98329050  0.39883600  1
  O  O101  1  0.35458050  0.01670950  0.10116400  1
  O  O102  1  0.86030450  0.10466150  0.23122100  1
  O  O103  1  0.86030450  0.39533850  0.26877900  1
  O  O104  1  0.39774250  0.14621450  0.01841100  1
  O  O105  1  0.89774250  0.85378550  0.48158900  1
  O  O106  1  0.89947350  0.26814000  0.35657550  1
  O  O107  1  0.89947350  0.23186000  0.14342450  1
  O  O108  1  0.93835600  0.93831700  0.06136900  1
  O  O109  1  0.93835600  0.56168300  0.43863100  1
  O  O110  1  0.47785850  0.10698500  0.15067750  1
  O  O111  1  0.97785850  0.89301500  0.34932250  1
  O  O112  1  0.02214150  0.10698500  0.34932250  1
  O  O113  1  0.56164400  0.93831700  0.43863100  1
  O  O114  1  0.56164400  0.56168300  0.06136900  1
  O  O115  1  0.60052650  0.26814000  0.14342450  1
  O  O116  1  0.10225750  0.14621450  0.48158900  1
  O  O117  1  0.63969550  0.39533850  0.23122100  1
  O  O118  1  0.14541950  0.01670950  0.39883600  1
  O  O119  1  0.72834050  0.35691450  0.10375600  1
  O  O120  1  0.52214150  0.39301500  0.65067750  1
  O  O121  1  0.60052650  0.73186000  0.85657550  1
  O  O122  1  0.60225750  0.35378550  0.51841100  1
  O  O123  1  0.63969550  0.60466150  0.76877900  1
  O  O124  1  0.64541950  0.48329050  0.60116400  1
  O  O125  1  0.68744300  0.31084150  0.81072050  1
  O  O126  1  0.68744300  0.18915850  0.68927950  1
  O  O127  1  0.72834050  0.64308550  0.89624400  1
  O  O128  1  0.77165950  0.85691450  0.89624400  1
  O  O129  1  0.77165950  0.64308550  0.60375600  1
  O  O130  1  0.81255700  0.18915850  0.81072050  1
  O  O131  1  0.81255700  0.31084150  0.68927950  1
  O  O132  1  0.85458050  0.48329050  0.89883600  1
  O  O133  1  0.35458050  0.51670950  0.60116400  1
  O  O134  1  0.86030450  0.60466150  0.73122100  1
  O  O135  1  0.86030450  0.89533850  0.76877900  1
  O  O136  1  0.39774250  0.64621450  0.51841100  1
  O  O137  1  0.89774250  0.35378550  0.98158900  1
  O  O138  1  0.89947350  0.76814000  0.85657550  1
  O  O139  1  0.89947350  0.73186000  0.64342450  1
  O  O140  1  0.93835600  0.43831700  0.56136900  1
  O  O141  1  0.93835600  0.06168300  0.93863100  1
  O  O142  1  0.47785850  0.60698500  0.65067750  1
  O  O143  1  0.97785850  0.39301500  0.84932250  1
  O  O144  1  0.02214150  0.60698500  0.84932250  1
  O  O145  1  0.56164400  0.43831700  0.93863100  1
  O  O146  1  0.56164400  0.06168300  0.56136900  1
  O  O147  1  0.60052650  0.76814000  0.64342450  1
  O  O148  1  0.10225750  0.64621450  0.98158900  1
  O  O149  1  0.63969550  0.89533850  0.73122100  1
  O  O150  1  0.14541950  0.51670950  0.89883600  1
  O  O151  1  0.72834050  0.85691450  0.60375600  1
  O  O152  1  0.02214150  0.89301500  0.65067750  1
  O  O153  1  0.10052650  0.23186000  0.85657550  1
  O  O154  1  0.10225750  0.85378550  0.51841100  1
  O  O155  1  0.13969550  0.10466150  0.76877900  1
  O  O156  1  0.14541950  0.98329050  0.60116400  1
  O  O157  1  0.18744300  0.81084150  0.81072050  1
  O  O158  1  0.18744300  0.68915850  0.68927950  1
  O  O159  1  0.22834050  0.14308550  0.89624400  1
  O  O160  1  0.27165950  0.35691450  0.89624400  1
  O  O161  1  0.27165950  0.14308550  0.60375600  1
  O  O162  1  0.31255700  0.68915850  0.81072050  1
  O  O163  1  0.31255700  0.81084150  0.68927950  1
  O  O164  1  0.35458050  0.98329050  0.89883600  1
  O  O165  1  0.85458050  0.01670950  0.60116400  1
  O  O166  1  0.36030450  0.10466150  0.73122100  1
  O  O167  1  0.36030450  0.39533850  0.76877900  1
  O  O168  1  0.89774250  0.14621450  0.51841100  1
  O  O169  1  0.39774250  0.85378550  0.98158900  1
  O  O170  1  0.39947350  0.26814000  0.85657550  1
  O  O171  1  0.39947350  0.23186000  0.64342450  1
  O  O172  1  0.43835600  0.93831700  0.56136900  1
  O  O173  1  0.43835600  0.56168300  0.93863100  1
  O  O174  1  0.97785850  0.10698500  0.65067750  1
  O  O175  1  0.47785850  0.89301500  0.84932250  1
  O  O176  1  0.52214150  0.10698500  0.84932250  1
  O  O177  1  0.06164400  0.93831700  0.93863100  1
  O  O178  1  0.06164400  0.56168300  0.56136900  1
  O  O179  1  0.10052650  0.26814000  0.64342450  1
  O  O180  1  0.60225750  0.14621450  0.98158900  1
  O  O181  1  0.13969550  0.39533850  0.73122100  1
  O  O182  1  0.64541950  0.01670950  0.89883600  1
  O  O183  1  0.22834050  0.35691450  0.60375600  1
  O  O184  1  0.02214150  0.39301500  0.15067750  1
  O  O185  1  0.10052650  0.73186000  0.35657550  1
  O  O186  1  0.10225750  0.35378550  0.01841100  1
  O  O187  1  0.13969550  0.60466150  0.26877900  1
  O  O188  1  0.14541950  0.48329050  0.10116400  1
  O  O189  1  0.18744300  0.31084150  0.31072050  1
  O  O190  1  0.18744300  0.18915850  0.18927950  1
  O  O191  1  0.22834050  0.64308550  0.39624400  1
  O  O192  1  0.27165950  0.85691450  0.39624400  1
  O  O193  1  0.27165950  0.64308550  0.10375600  1
  O  O194  1  0.31255700  0.18915850  0.31072050  1
  O  O195  1  0.31255700  0.31084150  0.18927950  1
  O  O196  1  0.35458050  0.48329050  0.39883600  1
  O  O197  1  0.85458050  0.51670950  0.10116400  1
  O  O198  1  0.36030450  0.60466150  0.23122100  1
  O  O199  1  0.36030450  0.89533850  0.26877900  1
  O  O200  1  0.89774250  0.64621450  0.01841100  1
  O  O201  1  0.39774250  0.35378550  0.48158900  1
  O  O202  1  0.39947350  0.76814000  0.35657550  1
  O  O203  1  0.39947350  0.73186000  0.14342450  1
  O  O204  1  0.43835600  0.43831700  0.06136900  1
  O  O205  1  0.43835600  0.06168300  0.43863100  1
  O  O206  1  0.97785850  0.60698500  0.15067750  1
  O  O207  1  0.47785850  0.39301500  0.34932250  1
  O  O208  1  0.52214150  0.60698500  0.34932250  1
  O  O209  1  0.06164400  0.43831700  0.43863100  1
  O  O210  1  0.06164400  0.06168300  0.06136900  1
  O  O211  1  0.10052650  0.76814000  0.14342450  1
  O  O212  1  0.60225750  0.64621450  0.48158900  1
  O  O213  1  0.13969550  0.89533850  0.23122100  1
  O  O214  1  0.64541950  0.51670950  0.39883600  1
  O  O215  1  0.22834050  0.85691450  0.10375600  1
