# generated using pymatgen
data_Na2TeH5SO10
_symmetry_space_group_name_H-M   'P 1'
_cell_length_a   5.47935400
_cell_length_b   10.39800200
_cell_length_c   15.36236320
_cell_angle_alpha   90.00000000
_cell_angle_beta   94.04636795
_cell_angle_gamma   90.00000000
_symmetry_Int_Tables_number   1
_chemical_formula_structural   Na2TeH5SO10
_chemical_formula_sum   'Na8 Te4 H20 S4 O40'
_cell_volume   873.07862316
_cell_formula_units_Z   4
loop_
 _symmetry_equiv_pos_site_id
 _symmetry_equiv_pos_as_xyz
  1  'x, y, z'
loop_
 _atom_site_type_symbol
 _atom_site_label
 _atom_site_symmetry_multiplicity
 _atom_site_fract_x
 _atom_site_fract_y
 _atom_site_fract_z
 _atom_site_occupancy
  Na  Na0  1  0.66043300  0.75703000  0.38070300  1
  Na  Na1  1  0.53873350  0.92592950  0.18927900  1
  Na  Na2  1  0.16043300  0.74297000  0.88070300  1
  Na  Na3  1  0.03873350  0.57407050  0.68927900  1
  Na  Na4  1  0.16043300  0.25703000  0.38070300  1
  Na  Na5  1  0.03873350  0.42592950  0.18927900  1
  Na  Na6  1  0.66043300  0.24297000  0.88070300  1
  Na  Na7  1  0.53873350  0.07407050  0.68927900  1
  Te  Te8  1  0.50424850  0.51092250  0.99780300  1
  Te  Te9  1  0.00424850  0.98907750  0.49780300  1
  Te  Te10  1  0.00424850  0.01092250  0.99780300  1
  Te  Te11  1  0.50424850  0.48907750  0.49780300  1
  H  H12  1  0.81729600  0.88332900  0.62361300  1
  H  H13  1  0.67283800  0.73490600  0.99153000  1
  H  H14  1  0.65738650  0.96456850  0.88580600  1
  H  H15  1  0.55026250  0.70633450  0.56798300  1
  H  H16  1  0.44846700  0.99176300  0.51391700  1
  H  H17  1  0.31729600  0.61667100  0.12361300  1
  H  H18  1  0.17283800  0.76509400  0.49153000  1
  H  H19  1  0.15738650  0.53543150  0.38580600  1
  H  H20  1  0.05026250  0.79366550  0.06798300  1
  H  H21  1  0.94846700  0.50823700  0.01391700  1
  H  H22  1  0.31729600  0.38332900  0.62361300  1
  H  H23  1  0.17283800  0.23490600  0.99153000  1
  H  H24  1  0.15738650  0.46456850  0.88580600  1
  H  H25  1  0.05026250  0.20633450  0.56798300  1
  H  H26  1  0.94846700  0.49176300  0.51391700  1
  H  H27  1  0.81729600  0.11667100  0.12361300  1
  H  H28  1  0.67283800  0.26509400  0.49153000  1
  H  H29  1  0.65738650  0.03543150  0.38580600  1
  H  H30  1  0.55026250  0.29366550  0.06798300  1
  H  H31  1  0.44846700  0.00823700  0.01391700  1
  S  S32  1  0.61230550  0.75360650  0.75161400  1
  S  S33  1  0.11230550  0.74639350  0.25161400  1
  S  S34  1  0.11230550  0.25360650  0.75161400  1
  S  S35  1  0.61230550  0.24639350  0.25161400  1
  O  O36  1  0.85988150  0.97446950  0.60893800  1
  O  O37  1  0.67001250  0.98037650  0.43940300  1
  O  O38  1  0.69757250  0.74838950  0.66003800  1
  O  O39  1  0.61785650  0.88927650  0.78188700  1
  O  O40  1  0.46283400  0.67857500  0.51091800  1
  O  O41  1  0.35988150  0.52553050  0.10893800  1
  O  O42  1  0.50583600  0.69795500  0.98018600  1
  O  O43  1  0.29177450  0.82567250  0.30660400  1
  O  O44  1  0.32795400  0.98800000  0.56036400  1
  O  O45  1  0.36332250  0.70095350  0.75372600  1
  O  O46  1  0.19757250  0.75161050  0.16003800  1
  O  O47  1  0.11785650  0.61072350  0.28188700  1
  O  O48  1  0.96283400  0.82142500  0.01091800  1
  O  O49  1  0.17001250  0.51962350  0.93940300  1
  O  O50  1  0.13859650  0.96752150  0.89018700  1
  O  O51  1  0.00583600  0.80204500  0.48018600  1
  O  O52  1  0.82795400  0.51200000  0.06036400  1
  O  O53  1  0.86332250  0.79904650  0.25372600  1
  O  O54  1  0.79177450  0.67432750  0.80660400  1
  O  O55  1  0.63859650  0.53247850  0.39018700  1
  O  O56  1  0.35988150  0.47446950  0.60893800  1
  O  O57  1  0.17001250  0.48037650  0.43940300  1
  O  O58  1  0.19757250  0.24838950  0.66003800  1
  O  O59  1  0.11785650  0.38927650  0.78188700  1
  O  O60  1  0.96283400  0.17857500  0.51091800  1
  O  O61  1  0.85988150  0.02553050  0.10893800  1
  O  O62  1  0.00583600  0.19795500  0.98018600  1
  O  O63  1  0.79177450  0.32567250  0.30660400  1
  O  O64  1  0.82795400  0.48800000  0.56036400  1
  O  O65  1  0.86332250  0.20095350  0.75372600  1
  O  O66  1  0.69757250  0.25161050  0.16003800  1
  O  O67  1  0.61785650  0.11072350  0.28188700  1
  O  O68  1  0.46283400  0.32142500  0.01091800  1
  O  O69  1  0.67001250  0.01962350  0.93940300  1
  O  O70  1  0.63859650  0.46752150  0.89018700  1
  O  O71  1  0.50583600  0.30204500  0.48018600  1
  O  O72  1  0.32795400  0.01200000  0.06036400  1
  O  O73  1  0.36332250  0.29904650  0.25372600  1
  O  O74  1  0.29177450  0.17432750  0.80660400  1
  O  O75  1  0.13859650  0.03247850  0.39018700  1
