# generated using pymatgen
data_LiVP3HO10
_symmetry_space_group_name_H-M   'P 1'
_cell_length_a   12.07938200
_cell_length_b   8.24519000
_cell_length_c   9.59376695
_cell_angle_alpha   90.00000000
_cell_angle_beta   111.80541300
_cell_angle_gamma   90.00000000
_symmetry_Int_Tables_number   1
_chemical_formula_structural   LiVP3HO10
_chemical_formula_sum   'Li4 V4 P12 H4 O40'
_cell_volume   887.14255760
_cell_formula_units_Z   4
loop_
 _symmetry_equiv_pos_site_id
 _symmetry_equiv_pos_as_xyz
  1  'x, y, z'
loop_
 _atom_site_type_symbol
 _atom_site_label
 _atom_site_symmetry_multiplicity
 _atom_site_fract_x
 _atom_site_fract_y
 _atom_site_fract_z
 _atom_site_occupancy
  Li  Li0  1  0.00000000  0.57589700  0.75000000  1
  Li  Li1  1  0.00000000  0.42410300  0.25000000  1
  Li  Li2  1  0.50000000  0.07589700  0.75000000  1
  Li  Li3  1  0.50000000  0.92410300  0.25000000  1
  V  V4  1  0.25000000  0.75000000  0.50000000  1
  V  V5  1  0.75000000  0.75000000  0.00000000  1
  V  V6  1  0.75000000  0.25000000  0.50000000  1
  V  V7  1  0.25000000  0.25000000  0.00000000  1
  P  P8  1  0.70980500  0.42758500  0.79636800  1
  P  P9  1  0.70980500  0.57241500  0.29636800  1
  P  P10  1  0.00000000  0.13193000  0.75000000  1
  P  P11  1  0.00000000  0.86807000  0.25000000  1
  P  P12  1  0.29019500  0.42758500  0.70363200  1
  P  P13  1  0.29019500  0.57241500  0.20363200  1
  P  P14  1  0.20980500  0.92758500  0.79636800  1
  P  P15  1  0.20980500  0.07241500  0.29636800  1
  P  P16  1  0.50000000  0.63193000  0.75000000  1
  P  P17  1  0.50000000  0.36807000  0.25000000  1
  P  P18  1  0.79019500  0.92758500  0.70363200  1
  P  P19  1  0.79019500  0.07241500  0.20363200  1
  H  H20  1  0.25000000  0.75000000  0.00000000  1
  H  H21  1  0.75000000  0.75000000  0.50000000  1
  H  H22  1  0.75000000  0.25000000  0.00000000  1
  H  H23  1  0.25000000  0.25000000  0.50000000  1
  O  O24  1  0.58375100  0.51381500  0.70019800  1
  O  O25  1  0.58375100  0.48618500  0.20019800  1
  O  O26  1  0.79009650  0.55113850  0.90690600  1
  O  O27  1  0.76267250  0.38243050  0.68098300  1
  O  O28  1  0.82291000  0.78198300  0.62458300  1
  O  O29  1  0.79009650  0.44886150  0.40690600  1
  O  O30  1  0.76267250  0.61756950  0.18098300  1
  O  O31  1  0.93172500  0.22690200  0.61067700  1
  O  O32  1  0.82291000  0.21801700  0.12458300  1
  O  O33  1  0.06827500  0.22690200  0.88932300  1
  O  O34  1  0.93172500  0.77309800  0.11067700  1
  O  O35  1  0.17709000  0.78198300  0.87541700  1
  O  O36  1  0.06827500  0.77309800  0.38932300  1
  O  O37  1  0.23732750  0.38243050  0.81901700  1
  O  O38  1  0.20990350  0.55113850  0.59309400  1
  O  O39  1  0.17709000  0.21801700  0.37541700  1
  O  O40  1  0.23732750  0.61756950  0.31901700  1
  O  O41  1  0.20990350  0.44886150  0.09309400  1
  O  O42  1  0.41624900  0.51381500  0.79980200  1
  O  O43  1  0.41624900  0.48618500  0.29980200  1
  O  O44  1  0.08375100  0.01381500  0.70019800  1
  O  O45  1  0.08375100  0.98618500  0.20019800  1
  O  O46  1  0.29009650  0.05113850  0.90690600  1
  O  O47  1  0.26267250  0.88243050  0.68098300  1
  O  O48  1  0.32291000  0.28198300  0.62458300  1
  O  O49  1  0.29009650  0.94886150  0.40690600  1
  O  O50  1  0.26267250  0.11756950  0.18098300  1
  O  O51  1  0.43172500  0.72690200  0.61067700  1
  O  O52  1  0.32291000  0.71801700  0.12458300  1
  O  O53  1  0.56827500  0.72690200  0.88932300  1
  O  O54  1  0.43172500  0.27309800  0.11067700  1
  O  O55  1  0.67709000  0.28198300  0.87541700  1
  O  O56  1  0.56827500  0.27309800  0.38932300  1
  O  O57  1  0.73732750  0.88243050  0.81901700  1
  O  O58  1  0.70990350  0.05113850  0.59309400  1
  O  O59  1  0.67709000  0.71801700  0.37541700  1
  O  O60  1  0.73732750  0.11756950  0.31901700  1
  O  O61  1  0.70990350  0.94886150  0.09309400  1
  O  O62  1  0.91624900  0.01381500  0.79980200  1
  O  O63  1  0.91624900  0.98618500  0.29980200  1
