# generated using pymatgen
data_Fe2O3
_symmetry_space_group_name_H-M   'P 1'
_cell_length_a   10.36545400
_cell_length_b   6.00785800
_cell_length_c   14.60922379
_cell_angle_alpha   90.00000000
_cell_angle_beta   90.51615133
_cell_angle_gamma   90.00000000
_symmetry_Int_Tables_number   1
_chemical_formula_structural   Fe2O3
_chemical_formula_sum   'Fe32 O48'
_cell_volume   909.74045418
_cell_formula_units_Z   16
loop_
 _symmetry_equiv_pos_site_id
 _symmetry_equiv_pos_as_xyz
  1  'x, y, z'
loop_
 _atom_site_type_symbol
 _atom_site_label
 _atom_site_symmetry_multiplicity
 _atom_site_fract_x
 _atom_site_fract_y
 _atom_site_fract_z
 _atom_site_occupancy
  Fe  Fe0  1  0.66023500  0.00000000  0.05046800  1
  Fe  Fe1  1  0.00780500  0.00000000  0.01001100  1
  Fe  Fe2  1  0.41581250  0.75094950  0.16444300  1
  Fe  Fe3  1  0.99309400  0.00000000  0.36396700  1
  Fe  Fe4  1  0.41581250  0.24905050  0.16444300  1
  Fe  Fe5  1  0.32605500  0.00000000  0.32116300  1
  Fe  Fe6  1  0.25033750  0.24677550  0.49857200  1
  Fe  Fe7  1  0.25033750  0.75322450  0.49857200  1
  Fe  Fe8  1  0.66637900  0.00000000  0.67623000  1
  Fe  Fe9  1  0.58570250  0.24545750  0.83415200  1
  Fe  Fe10  1  0.67055500  0.00000000  0.28425400  1
  Fe  Fe11  1  0.58570250  0.75454250  0.83415200  1
  Fe  Fe12  1  0.49743600  0.00000000  0.49858300  1
  Fe  Fe13  1  0.00103700  0.00000000  0.62773000  1
  Fe  Fe14  1  0.83074700  0.00000000  0.83460100  1
  Fe  Fe15  1  0.33998500  0.00000000  0.96079000  1
  Fe  Fe16  1  0.16023500  0.50000000  0.05046800  1
  Fe  Fe17  1  0.50780500  0.50000000  0.01001100  1
  Fe  Fe18  1  0.91581250  0.25094950  0.16444300  1
  Fe  Fe19  1  0.49309400  0.50000000  0.36396700  1
  Fe  Fe20  1  0.91581250  0.74905050  0.16444300  1
  Fe  Fe21  1  0.82605500  0.50000000  0.32116300  1
  Fe  Fe22  1  0.75033750  0.74677550  0.49857200  1
  Fe  Fe23  1  0.75033750  0.25322450  0.49857200  1
  Fe  Fe24  1  0.16637900  0.50000000  0.67623000  1
  Fe  Fe25  1  0.08570250  0.74545750  0.83415200  1
  Fe  Fe26  1  0.17055500  0.50000000  0.28425400  1
  Fe  Fe27  1  0.08570250  0.25454250  0.83415200  1
  Fe  Fe28  1  0.99743600  0.50000000  0.49858300  1
  Fe  Fe29  1  0.50103700  0.50000000  0.62773000  1
  Fe  Fe30  1  0.33074700  0.50000000  0.83460100  1
  Fe  Fe31  1  0.83998500  0.50000000  0.96079000  1
  O  O32  1  0.56504650  0.74861150  0.08608200  1
  O  O33  1  0.56504650  0.25138850  0.08608200  1
  O  O34  1  0.98552600  0.00000000  0.23729500  1
  O  O35  1  0.84261400  0.00000000  0.08894200  1
  O  O36  1  0.41152900  0.23406400  0.41533500  1
  O  O37  1  0.48983000  0.00000000  0.24336200  1
  O  O38  1  0.26810400  0.25132800  0.24751300  1
  O  O39  1  0.34866200  0.00000000  0.09172400  1
  O  O40  1  0.33262300  0.00000000  0.56242100  1
  O  O41  1  0.41152900  0.76593600  0.41533500  1
  O  O42  1  0.17268400  0.00000000  0.41201300  1
  O  O43  1  0.26810400  0.74867200  0.24751300  1
  O  O44  1  0.82443700  0.00000000  0.57914700  1
  O  O45  1  0.74082700  0.22291600  0.75878100  1
  O  O46  1  0.58842300  0.23628700  0.57914800  1
  O  O47  1  0.66653500  0.00000000  0.42180400  1
  O  O48  1  0.66667900  0.00000000  0.91695000  1
  O  O49  1  0.74082700  0.77708400  0.75878100  1
  O  O50  1  0.51808500  0.00000000  0.75842100  1
  O  O51  1  0.58842300  0.76371300  0.57914800  1
  O  O52  1  0.15867700  0.00000000  0.92147400  1
  O  O53  1  0.00095900  0.00000000  0.75908500  1
  O  O54  1  0.42389000  0.72969300  0.91825600  1
  O  O55  1  0.42389000  0.27030700  0.91825600  1
  O  O56  1  0.06504650  0.24861150  0.08608200  1
  O  O57  1  0.06504650  0.75138850  0.08608200  1
  O  O58  1  0.48552600  0.50000000  0.23729500  1
  O  O59  1  0.34261400  0.50000000  0.08894200  1
  O  O60  1  0.91152900  0.73406400  0.41533500  1
  O  O61  1  0.98983000  0.50000000  0.24336200  1
  O  O62  1  0.76810400  0.75132800  0.24751300  1
  O  O63  1  0.84866200  0.50000000  0.09172400  1
  O  O64  1  0.83262300  0.50000000  0.56242100  1
  O  O65  1  0.91152900  0.26593600  0.41533500  1
  O  O66  1  0.67268400  0.50000000  0.41201300  1
  O  O67  1  0.76810400  0.24867200  0.24751300  1
  O  O68  1  0.32443700  0.50000000  0.57914700  1
  O  O69  1  0.24082700  0.72291600  0.75878100  1
  O  O70  1  0.08842300  0.73628700  0.57914800  1
  O  O71  1  0.16653500  0.50000000  0.42180400  1
  O  O72  1  0.16667900  0.50000000  0.91695000  1
  O  O73  1  0.24082700  0.27708400  0.75878100  1
  O  O74  1  0.01808500  0.50000000  0.75842100  1
  O  O75  1  0.08842300  0.26371300  0.57914800  1
  O  O76  1  0.65867700  0.50000000  0.92147400  1
  O  O77  1  0.50095900  0.50000000  0.75908500  1
  O  O78  1  0.92389000  0.22969300  0.91825600  1
  O  O79  1  0.92389000  0.77030700  0.91825600  1
