# generated using pymatgen
data_Li2Cr2O7
_symmetry_space_group_name_H-M   'P 1'
_cell_length_a   6.53780726
_cell_length_b   7.22374633
_cell_length_c   7.36213400
_cell_angle_alpha   116.14462927
_cell_angle_beta   90.10747883
_cell_angle_gamma   109.15766357
_symmetry_Int_Tables_number   1
_chemical_formula_structural   Li2Cr2O7
_chemical_formula_sum   'Li4 Cr4 O14'
_cell_volume   290.40266407
_cell_formula_units_Z   2
loop_
 _symmetry_equiv_pos_site_id
 _symmetry_equiv_pos_as_xyz
  1  'x, y, z'
loop_
 _atom_site_type_symbol
 _atom_site_label
 _atom_site_symmetry_multiplicity
 _atom_site_fract_x
 _atom_site_fract_y
 _atom_site_fract_z
 _atom_site_occupancy
  Li  Li0  1  0.70207300  0.11380500  0.82843800  1
  Li  Li1  1  0.29547100  0.72761800  0.69982300  1
  Li  Li2  1  0.70452900  0.27238200  0.30017700  1
  Li  Li3  1  0.29792700  0.88619500  0.17156200  1
  Cr  Cr4  1  0.78373600  0.68074900  0.82760100  1
  Cr  Cr5  1  0.79852900  0.71325400  0.38528700  1
  Cr  Cr6  1  0.20147100  0.28674600  0.61471300  1
  Cr  Cr7  1  0.21626400  0.31925100  0.17239900  1
  O  O8  1  0.64980300  0.42939800  0.94956700  1
  O  O9  1  0.99410200  0.73148800  0.98651800  1
  O  O10  1  0.90330200  0.71690700  0.62723100  1
  O  O11  1  0.62234900  0.86001800  0.73380600  1
  O  O12  1  0.31455900  0.53985600  0.58036100  1
  O  O13  1  0.37327500  0.11827700  0.76275200  1
  O  O14  1  0.98339400  0.19786700  0.71632600  1
  O  O15  1  0.01660600  0.80213300  0.28367400  1
  O  O16  1  0.62672500  0.88172300  0.23724800  1
  O  O17  1  0.68544100  0.46014400  0.41963900  1
  O  O18  1  0.37765100  0.13998200  0.26619400  1
  O  O19  1  0.09669800  0.28309300  0.37276900  1
  O  O20  1  0.00589800  0.26851200  0.01348200  1
  O  O21  1  0.35019700  0.57060200  0.05043300  1
