# generated using pymatgen
data_Ba5La2Cl16
_symmetry_space_group_name_H-M   'P 1'
_cell_length_a   10.21069400
_cell_length_b   16.17278000
_cell_length_c   19.33272000
_cell_angle_alpha   90.00000000
_cell_angle_beta   90.00000000
_cell_angle_gamma   90.00000000
_symmetry_Int_Tables_number   1
_chemical_formula_structural   Ba5La2Cl16
_chemical_formula_sum   'Ba20 La8 Cl64'
_cell_volume   3192.51466606
_cell_formula_units_Z   4
loop_
 _symmetry_equiv_pos_site_id
 _symmetry_equiv_pos_as_xyz
  1  'x, y, z'
loop_
 _atom_site_type_symbol
 _atom_site_label
 _atom_site_symmetry_multiplicity
 _atom_site_fract_x
 _atom_site_fract_y
 _atom_site_fract_z
 _atom_site_occupancy
  Ba  Ba0  1  0.25000000  0.25000000  0.13340700  1
  Ba  Ba1  1  0.25000000  0.25000000  0.63340700  1
  Ba  Ba2  1  0.50000000  0.00000000  0.22354900  1
  Ba  Ba3  1  0.50000000  0.00000000  0.77645100  1
  Ba  Ba4  1  0.00000000  0.00000000  0.27645100  1
  Ba  Ba5  1  0.00000000  0.00000000  0.00000000  1
  Ba  Ba6  1  0.50000000  0.00000000  0.50000000  1
  Ba  Ba7  1  0.00000000  0.00000000  0.72354900  1
  Ba  Ba8  1  0.25000000  0.75000000  0.86659300  1
  Ba  Ba9  1  0.25000000  0.75000000  0.36659300  1
  Ba  Ba10  1  0.75000000  0.75000000  0.13340700  1
  Ba  Ba11  1  0.75000000  0.75000000  0.63340700  1
  Ba  Ba12  1  0.00000000  0.50000000  0.22354900  1
  Ba  Ba13  1  0.00000000  0.50000000  0.77645100  1
  Ba  Ba14  1  0.50000000  0.50000000  0.27645100  1
  Ba  Ba15  1  0.50000000  0.50000000  0.00000000  1
  Ba  Ba16  1  0.00000000  0.50000000  0.50000000  1
  Ba  Ba17  1  0.50000000  0.50000000  0.72354900  1
  Ba  Ba18  1  0.75000000  0.25000000  0.86659300  1
  Ba  Ba19  1  0.75000000  0.25000000  0.36659300  1
  La  La20  1  0.25000000  0.25000000  0.88208300  1
  La  La21  1  0.25000000  0.25000000  0.38208300  1
  La  La22  1  0.25000000  0.75000000  0.11791700  1
  La  La23  1  0.25000000  0.75000000  0.61791700  1
  La  La24  1  0.75000000  0.75000000  0.88208300  1
  La  La25  1  0.75000000  0.75000000  0.38208300  1
  La  La26  1  0.75000000  0.25000000  0.11791700  1
  La  La27  1  0.75000000  0.25000000  0.61791700  1
  Cl  Cl28  1  0.63634200  0.66473600  0.77429400  1
  Cl  Cl29  1  0.63634200  0.83526400  0.27429400  1
  Cl  Cl30  1  0.67326550  0.84562150  0.49258300  1
  Cl  Cl31  1  0.17326550  0.15437850  0.99258300  1
  Cl  Cl32  1  0.32593900  0.94821500  0.34948600  1
  Cl  Cl33  1  0.32593900  0.05178500  0.65051400  1
  Cl  Cl34  1  0.82593900  0.05178500  0.84948600  1
  Cl  Cl35  1  0.82593900  0.94821500  0.15051400  1
  Cl  Cl36  1  0.82673450  0.84562150  0.99258300  1
  Cl  Cl37  1  0.32673450  0.15437850  0.49258300  1
  Cl  Cl38  1  0.36365800  0.33526400  0.77429400  1
  Cl  Cl39  1  0.36365800  0.16473600  0.27429400  1
  Cl  Cl40  1  0.47751250  0.84837050  0.11496300  1
  Cl  Cl41  1  0.47751250  0.34837050  0.38503700  1
  Cl  Cl42  1  0.47751250  0.15162950  0.88503700  1
  Cl  Cl43  1  0.47751250  0.65162950  0.61496300  1
  Cl  Cl44  1  0.52248750  0.84837050  0.88503700  1
  Cl  Cl45  1  0.52248750  0.15162950  0.11496300  1
  Cl  Cl46  1  0.52248750  0.65162950  0.38503700  1
  Cl  Cl47  1  0.52248750  0.34837050  0.61496300  1
  Cl  Cl48  1  0.63634200  0.16473600  0.72570600  1
  Cl  Cl49  1  0.63634200  0.33526400  0.22570600  1
  Cl  Cl50  1  0.67326550  0.15437850  0.50741700  1
  Cl  Cl51  1  0.17326550  0.84562150  0.00741700  1
  Cl  Cl52  1  0.67406100  0.94821500  0.65051400  1
  Cl  Cl53  1  0.67406100  0.05178500  0.34948600  1
  Cl  Cl54  1  0.17406100  0.05178500  0.15051400  1
  Cl  Cl55  1  0.17406100  0.94821500  0.84948600  1
  Cl  Cl56  1  0.32673450  0.84562150  0.50741700  1
  Cl  Cl57  1  0.82673450  0.15437850  0.00741700  1
  Cl  Cl58  1  0.36365800  0.66473600  0.22570600  1
  Cl  Cl59  1  0.36365800  0.83526400  0.72570600  1
  Cl  Cl60  1  0.13634200  0.16473600  0.77429400  1
  Cl  Cl61  1  0.13634200  0.33526400  0.27429400  1
  Cl  Cl62  1  0.17326550  0.34562150  0.49258300  1
  Cl  Cl63  1  0.67326550  0.65437850  0.99258300  1
  Cl  Cl64  1  0.82593900  0.44821500  0.34948600  1
  Cl  Cl65  1  0.82593900  0.55178500  0.65051400  1
  Cl  Cl66  1  0.32593900  0.55178500  0.84948600  1
  Cl  Cl67  1  0.32593900  0.44821500  0.15051400  1
  Cl  Cl68  1  0.32673450  0.34562150  0.99258300  1
  Cl  Cl69  1  0.82673450  0.65437850  0.49258300  1
  Cl  Cl70  1  0.86365800  0.83526400  0.77429400  1
  Cl  Cl71  1  0.86365800  0.66473600  0.27429400  1
  Cl  Cl72  1  0.97751250  0.34837050  0.11496300  1
  Cl  Cl73  1  0.97751250  0.84837050  0.38503700  1
  Cl  Cl74  1  0.97751250  0.65162950  0.88503700  1
  Cl  Cl75  1  0.97751250  0.15162950  0.61496300  1
  Cl  Cl76  1  0.02248750  0.34837050  0.88503700  1
  Cl  Cl77  1  0.02248750  0.65162950  0.11496300  1
  Cl  Cl78  1  0.02248750  0.15162950  0.38503700  1
  Cl  Cl79  1  0.02248750  0.84837050  0.61496300  1
  Cl  Cl80  1  0.13634200  0.66473600  0.72570600  1
  Cl  Cl81  1  0.13634200  0.83526400  0.22570600  1
  Cl  Cl82  1  0.17326550  0.65437850  0.50741700  1
  Cl  Cl83  1  0.67326550  0.34562150  0.00741700  1
  Cl  Cl84  1  0.17406100  0.44821500  0.65051400  1
  Cl  Cl85  1  0.17406100  0.55178500  0.34948600  1
  Cl  Cl86  1  0.67406100  0.55178500  0.15051400  1
  Cl  Cl87  1  0.67406100  0.44821500  0.84948600  1
  Cl  Cl88  1  0.82673450  0.34562150  0.50741700  1
  Cl  Cl89  1  0.32673450  0.65437850  0.00741700  1
  Cl  Cl90  1  0.86365800  0.16473600  0.22570600  1
  Cl  Cl91  1  0.86365800  0.33526400  0.72570600  1
