# generated using pymatgen
data_Hf2N2O
_symmetry_space_group_name_H-M   'P 1'
_cell_length_a   9.54941800
_cell_length_b   5.43513600
_cell_length_c   10.31758963
_cell_angle_alpha   90.00000000
_cell_angle_beta   108.58454245
_cell_angle_gamma   90.00000000
_symmetry_Int_Tables_number   1
_chemical_formula_structural   Hf2N2O
_chemical_formula_sum   'Hf16 N16 O8'
_cell_volume   507.58316837
_cell_formula_units_Z   8
loop_
 _symmetry_equiv_pos_site_id
 _symmetry_equiv_pos_as_xyz
  1  'x, y, z'
loop_
 _atom_site_type_symbol
 _atom_site_label
 _atom_site_symmetry_multiplicity
 _atom_site_fract_x
 _atom_site_fract_y
 _atom_site_fract_z
 _atom_site_occupancy
  Hf  Hf0  1  0.29856550  0.88079950  0.41009900  1
  Hf  Hf1  1  0.79030300  0.88400400  0.91256400  1
  Hf  Hf2  1  0.20969700  0.88400400  0.08743600  1
  Hf  Hf3  1  0.56036450  0.39076650  0.65966700  1
  Hf  Hf4  1  0.70143450  0.88079950  0.58990100  1
  Hf  Hf5  1  0.43963550  0.39076650  0.34033300  1
  Hf  Hf6  1  0.55711400  0.87824500  0.16089600  1
  Hf  Hf7  1  0.44288600  0.87824500  0.83910400  1
  Hf  Hf8  1  0.79856550  0.38079950  0.41009900  1
  Hf  Hf9  1  0.29030300  0.38400400  0.91256400  1
  Hf  Hf10  1  0.70969700  0.38400400  0.08743600  1
  Hf  Hf11  1  0.06036450  0.89076650  0.65966700  1
  Hf  Hf12  1  0.20143450  0.38079950  0.58990100  1
  Hf  Hf13  1  0.93963550  0.89076650  0.34033300  1
  Hf  Hf14  1  0.05711400  0.37824500  0.16089600  1
  Hf  Hf15  1  0.94288600  0.37824500  0.83910400  1
  N  N16  1  0.34899550  0.51295550  0.49484400  1
  N  N17  1  0.39563000  0.72059900  0.24291100  1
  N  N18  1  0.60437000  0.72059900  0.75708900  1
  N  N19  1  0.65100450  0.51295550  0.50515600  1
  N  N20  1  0.85354500  0.52396600  0.99795400  1
  N  N21  1  0.24750300  0.16484900  0.25107700  1
  N  N22  1  0.75249700  0.16484900  0.74892300  1
  N  N23  1  0.14645500  0.52396600  0.00204600  1
  N  N24  1  0.84899550  0.01295550  0.49484400  1
  N  N25  1  0.89563000  0.22059900  0.24291100  1
  N  N26  1  0.10437000  0.22059900  0.75708900  1
  N  N27  1  0.15100450  0.01295550  0.50515600  1
  N  N28  1  0.35354500  0.02396600  0.99795400  1
  N  N29  1  0.74750300  0.66484900  0.25107700  1
  N  N30  1  0.25249700  0.66484900  0.74892300  1
  N  N31  1  0.64645500  0.02396600  0.00204600  1
  O  O32  1  0.59703850  0.21568550  0.25865000  1
  O  O33  1  0.50000000  0.05345800  0.50000000  1
  O  O34  1  0.00000000  0.06647600  0.00000000  1
  O  O35  1  0.40296150  0.21568550  0.74135000  1
  O  O36  1  0.09703850  0.71568550  0.25865000  1
  O  O37  1  0.00000000  0.55345800  0.50000000  1
  O  O38  1  0.50000000  0.56647600  0.00000000  1
  O  O39  1  0.90296150  0.71568550  0.74135000  1
