# generated using pymatgen
data_Na3Co(BO3)2
_symmetry_space_group_name_H-M   'P 1'
_cell_length_a   5.54073100
_cell_length_b   9.53043500
_cell_length_c   11.50666340
_cell_angle_alpha   90.00000000
_cell_angle_beta   114.63878477
_cell_angle_gamma   90.00000000
_symmetry_Int_Tables_number   1
_chemical_formula_structural   Na3Co(BO3)2
_chemical_formula_sum   'Na12 Co4 B8 O24'
_cell_volume   552.29505752
_cell_formula_units_Z   4
loop_
 _symmetry_equiv_pos_site_id
 _symmetry_equiv_pos_as_xyz
  1  'x, y, z'
loop_
 _atom_site_type_symbol
 _atom_site_label
 _atom_site_symmetry_multiplicity
 _atom_site_fract_x
 _atom_site_fract_y
 _atom_site_fract_z
 _atom_site_occupancy
  Na  Na0  1  0.50470100  0.02849500  0.34455400  1
  Na  Na1  1  0.54036500  0.33599000  0.37714400  1
  Na  Na2  1  0.07591600  0.00890800  0.88755700  1
  Na  Na3  1  0.45963500  0.83599000  0.12285600  1
  Na  Na4  1  0.92408400  0.50890800  0.61244300  1
  Na  Na5  1  0.49529900  0.52849500  0.15544600  1
  Na  Na6  1  0.50470100  0.47150500  0.84455400  1
  Na  Na7  1  0.07591600  0.49109200  0.38755700  1
  Na  Na8  1  0.54036500  0.16401000  0.87714400  1
  Na  Na9  1  0.92408400  0.99109200  0.11244300  1
  Na  Na10  1  0.45963500  0.66401000  0.62285600  1
  Na  Na11  1  0.49529900  0.97150500  0.65544600  1
  Co  Co12  1  0.02188400  0.67309200  0.87455400  1
  Co  Co13  1  0.97811600  0.17309200  0.62544600  1
  Co  Co14  1  0.02188400  0.82690800  0.37455400  1
  Co  Co15  1  0.97811600  0.32690800  0.12544600  1
  B  B16  1  0.55023800  0.68725200  0.38096000  1
  B  B17  1  0.02627900  0.34773800  0.86969700  1
  B  B18  1  0.44976200  0.18725200  0.11904000  1
  B  B19  1  0.97372100  0.84773800  0.63030300  1
  B  B20  1  0.02627900  0.15226200  0.36969700  1
  B  B21  1  0.55023800  0.81274800  0.88096000  1
  B  B22  1  0.97372100  0.65226200  0.13030300  1
  B  B23  1  0.44976200  0.31274800  0.61904000  1
  O  O24  1  0.12945700  0.67324600  0.06403500  1
  O  O25  1  0.67598500  0.29880300  0.59510600  1
  O  O26  1  0.33102200  0.05995700  0.11306800  1
  O  O27  1  0.88776000  0.73841200  0.68130700  1
  O  O28  1  0.34659800  0.30742700  0.15172800  1
  O  O29  1  0.90246200  0.98608500  0.64910500  1
  O  O30  1  0.65340200  0.80742700  0.34827200  1
  O  O31  1  0.09753800  0.48608500  0.85089500  1
  O  O32  1  0.66897800  0.55995700  0.38693200  1
  O  O33  1  0.11224000  0.23841200  0.81869300  1
  O  O34  1  0.87054300  0.17324600  0.43596500  1
  O  O35  1  0.32401500  0.79880300  0.90489400  1
  O  O36  1  0.67598500  0.20119700  0.09510600  1
  O  O37  1  0.12945700  0.82675400  0.56403500  1
  O  O38  1  0.88776000  0.76158800  0.18130700  1
  O  O39  1  0.33102200  0.44004300  0.61306800  1
  O  O40  1  0.90246200  0.51391500  0.14910500  1
  O  O41  1  0.34659800  0.19257300  0.65172800  1
  O  O42  1  0.09753800  0.01391500  0.35089500  1
  O  O43  1  0.65340200  0.69257300  0.84827200  1
  O  O44  1  0.11224000  0.26158800  0.31869300  1
  O  O45  1  0.66897800  0.94004300  0.88693200  1
  O  O46  1  0.32401500  0.70119700  0.40489400  1
  O  O47  1  0.87054300  0.32675400  0.93596500  1
