# generated using pymatgen
data_Co2OF3
_symmetry_space_group_name_H-M   'P 1'
_cell_length_a   9.13335964
_cell_length_b   6.63649413
_cell_length_c   9.06721285
_cell_angle_alpha   90.00000000
_cell_angle_beta   94.28198690
_cell_angle_gamma   90.00000000
_symmetry_Int_Tables_number   1
_chemical_formula_structural   Co2OF3
_chemical_formula_sum   'Co16 O8 F24'
_cell_volume   548.06128391
_cell_formula_units_Z   8
loop_
 _symmetry_equiv_pos_site_id
 _symmetry_equiv_pos_as_xyz
  1  'x, y, z'
loop_
 _atom_site_type_symbol
 _atom_site_label
 _atom_site_symmetry_multiplicity
 _atom_site_fract_x
 _atom_site_fract_y
 _atom_site_fract_z
 _atom_site_occupancy
  Co  Co0  1  0.39303100  0.50000000  0.39753600  1
  Co  Co1  1  0.14162700  0.50000000  0.11746400  1
  Co  Co2  1  0.00000000  0.50000000  0.50000000  1
  Co  Co3  1  0.75565200  0.50000000  0.23210900  1
  Co  Co4  1  0.24434800  0.50000000  0.76789100  1
  Co  Co5  1  0.60696900  0.50000000  0.60246400  1
  Co  Co6  1  0.85837300  0.50000000  0.88253600  1
  Co  Co7  1  0.00000000  0.00000000  0.00000000  1
  Co  Co8  1  0.89303100  0.00000000  0.39753600  1
  Co  Co9  1  0.64162700  0.00000000  0.11746400  1
  Co  Co10  1  0.50000000  0.00000000  0.50000000  1
  Co  Co11  1  0.25565200  0.00000000  0.23210900  1
  Co  Co12  1  0.74434800  0.00000000  0.76789100  1
  Co  Co13  1  0.10696900  0.00000000  0.60246400  1
  Co  Co14  1  0.35837300  0.00000000  0.88253600  1
  Co  Co15  1  0.50000000  0.50000000  0.00000000  1
  O  O16  1  0.00000000  0.78134500  0.50000000  1
  O  O17  1  0.72423000  0.50000000  0.03125400  1
  O  O18  1  0.27577000  0.50000000  0.96874600  1
  O  O19  1  0.00000000  0.21865500  0.50000000  1
  O  O20  1  0.50000000  0.28134500  0.50000000  1
  O  O21  1  0.22423000  0.00000000  0.03125400  1
  O  O22  1  0.77577000  0.00000000  0.96874600  1
  O  O23  1  0.50000000  0.71865500  0.50000000  1
  F  F24  1  0.25770950  0.68987050  0.26000400  1
  F  F25  1  0.25770950  0.31012950  0.26000400  1
  F  F26  1  0.97900100  0.50000000  0.26936300  1
  F  F27  1  0.46922800  0.50000000  0.76802000  1
  F  F28  1  0.22648100  0.50000000  0.53995900  1
  F  F29  1  0.77351900  0.50000000  0.46004100  1
  F  F30  1  0.53077200  0.50000000  0.23198000  1
  F  F31  1  0.02099900  0.50000000  0.73063700  1
  F  F32  1  0.00000000  0.69583800  0.00000000  1
  F  F33  1  0.74229050  0.68987050  0.73999600  1
  F  F34  1  0.74229050  0.31012950  0.73999600  1
  F  F35  1  0.00000000  0.30416200  0.00000000  1
  F  F36  1  0.75770950  0.18987050  0.26000400  1
  F  F37  1  0.75770950  0.81012950  0.26000400  1
  F  F38  1  0.47900100  0.00000000  0.26936300  1
  F  F39  1  0.96922800  0.00000000  0.76802000  1
  F  F40  1  0.72648100  0.00000000  0.53995900  1
  F  F41  1  0.27351900  0.00000000  0.46004100  1
  F  F42  1  0.03077200  0.00000000  0.23198000  1
  F  F43  1  0.52099900  0.00000000  0.73063700  1
  F  F44  1  0.50000000  0.19583800  0.00000000  1
  F  F45  1  0.24229050  0.18987050  0.73999600  1
  F  F46  1  0.24229050  0.81012950  0.73999600  1
  F  F47  1  0.50000000  0.80416200  0.00000000  1
