# generated using pymatgen
data_Mn3Cr2Ni(PO4)6
_symmetry_space_group_name_H-M   'P 1'
_cell_length_a   8.61352936
_cell_length_b   8.61352936
_cell_length_c   20.32719709
_cell_angle_alpha   90.00000000
_cell_angle_beta   90.00000000
_cell_angle_gamma   120.00000000
_symmetry_Int_Tables_number   1
_chemical_formula_structural   Mn3Cr2Ni(PO4)6
_chemical_formula_sum   'Mn9 Cr6 Ni3 P18 O72'
_cell_volume   1306.08188727
_cell_formula_units_Z   3
loop_
 _symmetry_equiv_pos_site_id
 _symmetry_equiv_pos_as_xyz
  1  'x, y, z'
loop_
 _atom_site_type_symbol
 _atom_site_label
 _atom_site_symmetry_multiplicity
 _atom_site_fract_x
 _atom_site_fract_y
 _atom_site_fract_z
 _atom_site_occupancy
  Mn  Mn0  1  0.33333333  0.66666667  0.81056867  1
  Mn  Mn1  1  0.33333333  0.66666667  0.02307567  1
  Mn  Mn2  1  0.33333333  0.66666667  0.31148667  1
  Mn  Mn3  1  0.00000000  0.00000000  0.14390200  1
  Mn  Mn4  1  0.00000000  0.00000000  0.35640900  1
  Mn  Mn5  1  0.00000000  0.00000000  0.64482000  1
  Mn  Mn6  1  0.66666667  0.33333333  0.47723533  1
  Mn  Mn7  1  0.66666667  0.33333333  0.68974233  1
  Mn  Mn8  1  0.66666667  0.33333333  0.97815333  1
  Cr  Cr9  1  0.33333333  0.66666667  0.66538067  1
  Cr  Cr10  1  0.33333333  0.66666667  0.16690967  1
  Cr  Cr11  1  0.00000000  0.00000000  0.99871400  1
  Cr  Cr12  1  0.00000000  0.00000000  0.50024300  1
  Cr  Cr13  1  0.66666667  0.33333333  0.33204733  1
  Cr  Cr14  1  0.66666667  0.33333333  0.83357633  1
  Ni  Ni15  1  0.33333333  0.66666667  0.52326367  1
  Ni  Ni16  1  0.00000000  0.00000000  0.85659700  1
  Ni  Ni17  1  0.66666667  0.33333333  0.18993033  1
  P  P18  1  0.96329633  0.33267167  0.08311667  1
  P  P19  1  0.36937533  0.03670367  0.08311667  1
  P  P20  1  0.66732833  0.63062467  0.08311667  1
  P  P21  1  0.99884367  0.70314733  0.25065433  1
  P  P22  1  0.29685267  0.29569633  0.25065433  1
  P  P23  1  0.70430367  0.00115633  0.25065433  1
  P  P24  1  0.62996300  0.66600500  0.41645000  1
  P  P25  1  0.03604200  0.37003700  0.41645000  1
  P  P26  1  0.33399500  0.96395800  0.41645000  1
  P  P27  1  0.66551033  0.03648067  0.58398767  1
  P  P28  1  0.96351933  0.62902967  0.58398767  1
  P  P29  1  0.37097033  0.33448967  0.58398767  1
  P  P30  1  0.29662967  0.99933833  0.74978333  1
  P  P31  1  0.70270867  0.70337033  0.74978333  1
  P  P32  1  0.00066167  0.29729133  0.74978333  1
  P  P33  1  0.33217700  0.36981400  0.91732100  1
  P  P34  1  0.63018600  0.96236300  0.91732100  1
  P  P35  1  0.03763700  0.66782300  0.91732100  1
  O  O36  1  0.13384933  0.65786967  0.97969967  1
  O  O37  1  0.34213033  0.47597967  0.97969967  1
  O  O38  1  0.99493133  0.16959667  0.07097967  1
  O  O39  1  0.52402033  0.86615067  0.97969967  1
  O  O40  1  0.86988367  0.32787833  0.14580633  1
  O  O41  1  0.15970667  0.50422833  0.09231533  1
  O  O42  1  0.17466533  0.00506867  0.07097967  1
  O  O43  1  0.34452167  0.84029333  0.09231533  1
  O  O44  1  0.99309667  0.79463533  0.18775633  1
  O  O45  1  0.49577167  0.65547833  0.09231533  1
  O  O46  1  0.83566300  0.51243100  0.26298500  1
  O  O47  1  0.20536467  0.19846133  0.18775633  1
  O  O48  1  0.45799467  0.13011633  0.14580633  1
  O  O49  1  0.83040333  0.82533467  0.07097967  1
  O  O50  1  0.16875033  0.68069967  0.23993167  1
  O  O51  1  0.67212167  0.54200533  0.14580633  1
  O  O52  1  0.31930033  0.48805067  0.23993167  1
  O  O53  1  0.48756900  0.32323200  0.26298500  1
  O  O54  1  0.51194933  0.83124967  0.23993167  1
  O  O55  1  0.80153867  0.00690333  0.18775633  1
  O  O56  1  0.13385033  0.46138267  0.35319267  1
  O  O57  1  0.67676800  0.16433700  0.26298500  1
  O  O58  1  0.32753233  0.86614967  0.35319267  1
  O  O59  1  0.53861733  0.67246767  0.35319267  1
  O  O60  1  0.80051600  0.99120300  0.31303300  1
  O  O61  1  0.00879700  0.80931300  0.31303300  1
  O  O62  1  0.66159800  0.50293000  0.40431300  1
  O  O63  1  0.19068700  0.19948400  0.31303300  1
  O  O64  1  0.53655033  0.66121167  0.47913967  1
  O  O65  1  0.82637333  0.83756167  0.42564867  1
  O  O66  1  0.84133200  0.33840200  0.40431300  1
  O  O67  1  0.01118833  0.17362667  0.42564867  1
  O  O68  1  0.65976333  0.12796867  0.52108967  1
  O  O69  1  0.16243833  0.98881167  0.42564867  1
  O  O70  1  0.50232967  0.84576433  0.59631833  1
  O  O71  1  0.87203133  0.53179467  0.52108967  1
  O  O72  1  0.12466133  0.46344967  0.47913967  1
  O  O73  1  0.49707000  0.15866800  0.40431300  1
  O  O74  1  0.83541700  0.01403300  0.57326500  1
  O  O75  1  0.33878833  0.87533867  0.47913967  1
  O  O76  1  0.98596700  0.82138400  0.57326500  1
  O  O77  1  0.15423567  0.65656533  0.59631833  1
  O  O78  1  0.17861600  0.16458300  0.57326500  1
  O  O79  1  0.46820533  0.34023667  0.52108967  1
  O  O80  1  0.80051700  0.79471600  0.68652600  1
  O  O81  1  0.34343467  0.49767033  0.59631833  1
  O  O82  1  0.99419900  0.19948300  0.68652600  1
  O  O83  1  0.20528400  0.00580100  0.68652600  1
  O  O84  1  0.46718267  0.32453633  0.64636633  1
  O  O85  1  0.67546367  0.14264633  0.64636633  1
  O  O86  1  0.32826467  0.83626333  0.73764633  1
  O  O87  1  0.85735367  0.53281733  0.64636633  1
  O  O88  1  0.20321700  0.99454500  0.81247300  1
  O  O89  1  0.49304000  0.17089500  0.75898200  1
  O  O90  1  0.50799867  0.67173533  0.73764633  1
  O  O91  1  0.67785500  0.50696000  0.75898200  1
  O  O92  1  0.32643000  0.46130200  0.85442300  1
  O  O93  1  0.82910500  0.32214500  0.75898200  1
  O  O94  1  0.16899633  0.17909767  0.92965167  1
  O  O95  1  0.53869800  0.86512800  0.85442300  1
  O  O96  1  0.79132800  0.79678300  0.81247300  1
  O  O97  1  0.16373667  0.49200133  0.73764633  1
  O  O98  1  0.50208367  0.34736633  0.90659833  1
  O  O99  1  0.00545500  0.20867200  0.81247300  1
  O  O100  1  0.65263367  0.15471733  0.90659833  1
  O  O101  1  0.82090233  0.98989867  0.92965167  1
  O  O102  1  0.84528267  0.49791633  0.90659833  1
  O  O103  1  0.13487200  0.67357000  0.85442300  1
  O  O104  1  0.46718367  0.12804933  0.01985933  1
  O  O105  1  0.01010133  0.83100367  0.92965167  1
  O  O106  1  0.66086567  0.53281633  0.01985933  1
  O  O107  1  0.87195067  0.33913433  0.01985933  1
