# generated using pymatgen
data_MnPO4
_symmetry_space_group_name_H-M   'P 1'
_cell_length_a   9.16656600
_cell_length_b   9.22763200
_cell_length_c   9.58989700
_cell_angle_alpha   90.00000000
_cell_angle_beta   90.00000000
_cell_angle_gamma   90.00000000
_symmetry_Int_Tables_number   1
_chemical_formula_structural   MnPO4
_chemical_formula_sum   'Mn8 P8 O32'
_cell_volume   811.16812911
_cell_formula_units_Z   8
loop_
 _symmetry_equiv_pos_site_id
 _symmetry_equiv_pos_as_xyz
  1  'x, y, z'
loop_
 _atom_site_type_symbol
 _atom_site_label
 _atom_site_symmetry_multiplicity
 _atom_site_fract_x
 _atom_site_fract_y
 _atom_site_fract_z
 _atom_site_occupancy
  Mn  Mn0  1  0.60351500  0.06581500  0.21853000  1
  Mn  Mn1  1  0.10351500  0.06581500  0.28147000  1
  Mn  Mn2  1  0.10351500  0.43418500  0.78147000  1
  Mn  Mn3  1  0.60351500  0.43418500  0.71853000  1
  Mn  Mn4  1  0.39648500  0.56581500  0.28147000  1
  Mn  Mn5  1  0.89648500  0.56581500  0.21853000  1
  Mn  Mn6  1  0.89648500  0.93418500  0.71853000  1
  Mn  Mn7  1  0.39648500  0.93418500  0.78147000  1
  P  P8  1  0.18207700  0.12845600  0.60799700  1
  P  P9  1  0.68207700  0.12845600  0.89200300  1
  P  P10  1  0.18207700  0.37154400  0.10799700  1
  P  P11  1  0.68207700  0.37154400  0.39200300  1
  P  P12  1  0.31792300  0.62845600  0.60799700  1
  P  P13  1  0.81792300  0.62845600  0.89200300  1
  P  P14  1  0.31792300  0.87154400  0.10799700  1
  P  P15  1  0.81792300  0.87154400  0.39200300  1
  O  O16  1  0.42083500  0.99534300  0.15400500  1
  O  O17  1  0.92083500  0.99534300  0.34599500  1
  O  O18  1  0.33390900  0.09993400  0.67233600  1
  O  O19  1  0.83390900  0.09993400  0.82766400  1
  O  O20  1  0.19690900  0.13216300  0.44757000  1
  O  O21  1  0.69690900  0.13216300  0.05243000  1
  O  O22  1  0.12547800  0.22288700  0.15534600  1
  O  O23  1  0.62547800  0.22288700  0.34465400  1
  O  O24  1  0.12547800  0.27711300  0.65534600  1
  O  O25  1  0.62547800  0.27711300  0.84465400  1
  O  O26  1  0.19690900  0.36783700  0.94757000  1
  O  O27  1  0.69690900  0.36783700  0.55243000  1
  O  O28  1  0.33390900  0.40006600  0.17233600  1
  O  O29  1  0.83390900  0.40006600  0.32766400  1
  O  O30  1  0.42083500  0.50465700  0.65400500  1
  O  O31  1  0.92083500  0.50465700  0.84599500  1
  O  O32  1  0.07916500  0.49534300  0.15400500  1
  O  O33  1  0.57916500  0.49534300  0.34599500  1
  O  O34  1  0.16609100  0.59993400  0.67233600  1
  O  O35  1  0.66609100  0.59993400  0.82766400  1
  O  O36  1  0.30309100  0.63216300  0.44757000  1
  O  O37  1  0.80309100  0.63216300  0.05243000  1
  O  O38  1  0.37452200  0.72288700  0.15534600  1
  O  O39  1  0.87452200  0.72288700  0.34465400  1
  O  O40  1  0.37452200  0.77711300  0.65534600  1
  O  O41  1  0.87452200  0.77711300  0.84465400  1
  O  O42  1  0.30309100  0.86783700  0.94757000  1
  O  O43  1  0.80309100  0.86783700  0.55243000  1
  O  O44  1  0.16609100  0.90006600  0.17233600  1
  O  O45  1  0.66609100  0.90006600  0.32766400  1
  O  O46  1  0.07916500  0.00465700  0.65400500  1
  O  O47  1  0.57916500  0.00465700  0.84599500  1
