# generated using pymatgen
data_Na3Cd4P6H10(ClO8)3
_symmetry_space_group_name_H-M   'P 1'
_cell_length_a   9.32248400
_cell_length_b   9.41197864
_cell_length_c   10.45478129
_cell_angle_alpha   63.99590857
_cell_angle_beta   77.49459887
_cell_angle_gamma   64.13258054
_symmetry_Int_Tables_number   1
_chemical_formula_structural   Na3Cd4P6H10(ClO8)3
_chemical_formula_sum   'Na3 Cd4 P6 H10 Cl3 O24'
_cell_volume   741.49760501
_cell_formula_units_Z   1
loop_
 _symmetry_equiv_pos_site_id
 _symmetry_equiv_pos_as_xyz
  1  'x, y, z'
loop_
 _atom_site_type_symbol
 _atom_site_label
 _atom_site_symmetry_multiplicity
 _atom_site_fract_x
 _atom_site_fract_y
 _atom_site_fract_z
 _atom_site_occupancy
  Na  Na0  1  0.98038300  0.79119000  0.79537300  1
  Na  Na1  1  0.94997500  0.79882700  0.40645100  1
  Na  Na2  1  0.96016800  0.22216900  0.50423200  1
  Cd  Cd3  1  0.25148500  0.00199600  0.09968000  1
  Cd  Cd4  1  0.76771900  0.51012400  0.74071000  1
  Cd  Cd5  1  0.75104400  0.28601600  0.15328300  1
  Cd  Cd6  1  0.30122900  0.97983200  0.75790700  1
  P  P7  1  0.62317300  0.00660300  0.17714200  1
  P  P8  1  0.81978600  0.74711100  0.14196400  1
  P  P9  1  0.29263000  0.74803000  0.62175800  1
  P  P10  1  0.40358300  0.63058100  0.16615800  1
  P  P11  1  0.27215200  0.48616300  0.14703200  1
  P  P12  1  0.62784600  0.05221200  0.59086600  1
  H  H13  1  0.79526300  0.56386200  0.96045600  1
  H  H14  1  0.56766600  0.98176100  0.44348100  1
  H  H15  1  0.75481400  0.62960900  0.24636600  1
  H  H16  1  0.66226400  0.48534500  0.55124700  1
  H  H17  1  0.37665800  0.62382000  0.84338900  1
  H  H18  1  0.15635200  0.33451200  0.87952400  1
  H  H19  1  0.38492000  0.71672100  0.42059300  1
  H  H20  1  0.45254100  0.26340900  0.65372900  1
  H  H21  1  0.38699000  0.31327900  0.20460900  1
  H  H22  1  0.28300100  0.34052500  0.95078000  1
  Cl  Cl23  1  0.13942900  0.42011100  0.59142200  1
  Cl  Cl24  1  0.05673700  0.06190900  0.91440100  1
  Cl  Cl25  1  0.02081800  0.10874500  0.27105900  1
  O  O26  1  0.81961400  0.75191200  0.64578800  1
  O  O27  1  0.72869000  0.14125800  0.48780800  1
  O  O28  1  0.82610500  0.74358500  0.99955000  1
  O  O29  1  0.67236000  0.94901600  0.32713700  1
  O  O30  1  0.94285600  0.76743200  0.19613900  1
  O  O31  1  0.40536200  0.77122800  0.01542800  1
  O  O32  1  0.72168100  0.87361400  0.71757700  1
  O  O33  1  0.16714300  0.23969100  0.58488500  1
  O  O34  1  0.42583600  0.71713300  0.50223700  1
  O  O35  1  0.42166300  0.68039600  0.74650700  1
  O  O36  1  0.15215700  0.72340600  0.55606100  1
  O  O37  1  0.82169800  0.45610900  0.95049000  1
  O  O38  1  0.18863900  0.92874500  0.61881800  1
  O  O39  1  0.26337500  0.53555600  0.98689000  1
  O  O40  1  0.56464900  0.48367200  0.22202900  1
  O  O41  1  0.31746500  0.71933200  0.27230000  1
  O  O42  1  0.12687100  0.48304900  0.24410800  1
  O  O43  1  0.21332800  0.60630400  0.70985600  1
  O  O44  1  0.65983200  0.15880500  0.06613400  1
  O  O45  1  0.76617300  0.41509800  0.59473700  1
  O  O46  1  0.51293300  0.01764600  0.52890900  1
  O  O47  1  0.50813800  0.13846800  0.69637600  1
  O  O48  1  0.25745300  0.26239800  0.92821200  1
  O  O49  1  0.47735200  0.98650500  0.16221000  1
