# generated using pymatgen
data_Ga2P3H11O13
_symmetry_space_group_name_H-M   'P 1'
_cell_length_a   7.77610900
_cell_length_b   10.14515000
_cell_length_c   8.18735296
_cell_angle_alpha   90.00000000
_cell_angle_beta   111.41339448
_cell_angle_gamma   90.00000000
_symmetry_Int_Tables_number   1
_chemical_formula_structural   Ga2P3H11O13
_chemical_formula_sum   'Ga4 P6 H22 O26'
_cell_volume   601.31251203
_cell_formula_units_Z   2
loop_
 _symmetry_equiv_pos_site_id
 _symmetry_equiv_pos_as_xyz
  1  'x, y, z'
loop_
 _atom_site_type_symbol
 _atom_site_label
 _atom_site_symmetry_multiplicity
 _atom_site_fract_x
 _atom_site_fract_y
 _atom_site_fract_z
 _atom_site_occupancy
  Ga  Ga0  1  0.93480800  0.15049900  0.97490300  1
  Ga  Ga1  1  0.06519200  0.65049900  0.02509700  1
  Ga  Ga2  1  0.41084600  0.42227200  0.62400700  1
  Ga  Ga3  1  0.58915400  0.92227200  0.37599300  1
  P  P4  1  0.54280500  0.12299900  0.65546200  1
  P  P5  1  0.45719500  0.62299900  0.34453800  1
  P  P6  1  0.74938100  0.42473100  0.00677900  1
  P  P7  1  0.25061900  0.92473100  0.99322100  1
  P  P8  1  0.77718900  0.86999400  0.07883200  1
  P  P9  1  0.22281100  0.36999400  0.92116800  1
  H  H10  1  0.47331800  0.10816800  0.79001400  1
  H  H11  1  0.52668200  0.60816800  0.20998600  1
  H  H12  1  0.62026300  0.45632600  0.08449600  1
  H  H13  1  0.37973700  0.95632600  0.91550400  1
  H  H14  1  0.65430500  0.82126900  0.91711500  1
  H  H15  1  0.34569500  0.32126900  0.08288500  1
  H  H16  1  0.23666300  0.09258400  0.24616300  1
  H  H17  1  0.76333700  0.59258400  0.75383700  1
  H  H18  1  0.83524600  0.73160600  0.69676200  1
  H  H19  1  0.16475400  0.23160600  0.30323800  1
  H  H20  1  0.11243300  0.47066800  0.33189700  1
  H  H21  1  0.88756700  0.97066800  0.66810300  1
  H  H22  1  0.04209600  0.38654500  0.46115300  1
  H  H23  1  0.95790400  0.88654500  0.53884700  1
  H  H24  1  0.26765100  0.68003600  0.60142500  1
  H  H25  1  0.73234900  0.18003600  0.39857500  1
  H  H26  1  0.28030100  0.60291600  0.77650400  1
  H  H27  1  0.71969900  0.10291600  0.22349600  1
  H  H28  1  0.88916400  0.31136900  0.63294300  1
  H  H29  1  0.11083600  0.81136900  0.36705700  1
  H  H30  1  0.73749400  0.38912200  0.48599400  1
  H  H31  1  0.26250600  0.88912200  0.51400600  1
  O  O32  1  0.75483000  0.13094500  0.73513200  1
  O  O33  1  0.24517000  0.63094500  0.26486800  1
  O  O34  1  0.79849800  0.01980000  0.06303900  1
  O  O35  1  0.20150200  0.51980000  0.93696100  1
  O  O36  1  0.79389200  0.27917500  0.05397700  1
  O  O37  1  0.20610800  0.77917500  0.94602300  1
  O  O38  1  0.04052700  0.29450100  0.87765900  1
  O  O39  1  0.95947300  0.79450100  0.12234100  1
  O  O40  1  0.08367300  0.01660200  0.90940300  1
  O  O41  1  0.91632700  0.51660200  0.09059700  1
  O  O42  1  0.13330300  0.15664800  0.22174900  1
  O  O43  1  0.86669700  0.65664800  0.77825100  1
  O  O44  1  0.45598100  0.24724800  0.55057500  1
  O  O45  1  0.54401900  0.74724800  0.44942500  1
  O  O46  1  0.65758100  0.45235900  0.80769700  1
  O  O47  1  0.34241900  0.95235900  0.19230300  1
  O  O48  1  0.68946700  0.84162900  0.21539200  1
  O  O49  1  0.31053300  0.34162900  0.78460800  1
  O  O50  1  0.51694100  0.49775900  0.45998200  1
  O  O51  1  0.48305900  0.99775900  0.54001800  1
  O  O52  1  0.14926100  0.40070800  0.42275200  1
  O  O53  1  0.85073900  0.90070800  0.57724800  1
  O  O54  1  0.33143200  0.60654200  0.68179900  1
  O  O55  1  0.66856800  0.10654200  0.31820100  1
  O  O56  1  0.84448800  0.33068000  0.50538600  1
  O  O57  1  0.15551200  0.83068000  0.49461400  1
