# generated using pymatgen
data_V2OF5
_symmetry_space_group_name_H-M   'P 1'
_cell_length_a   5.30700600
_cell_length_b   5.43639194
_cell_length_c   17.46092160
_cell_angle_alpha   88.46206832
_cell_angle_beta   98.48260330
_cell_angle_gamma   119.16754746
_symmetry_Int_Tables_number   1
_chemical_formula_structural   V2OF5
_chemical_formula_sum   'V8 O4 F20'
_cell_volume   434.48181698
_cell_formula_units_Z   4
loop_
 _symmetry_equiv_pos_site_id
 _symmetry_equiv_pos_as_xyz
  1  'x, y, z'
loop_
 _atom_site_type_symbol
 _atom_site_label
 _atom_site_symmetry_multiplicity
 _atom_site_fract_x
 _atom_site_fract_y
 _atom_site_fract_z
 _atom_site_occupancy
  V  V0  1  0.24681800  0.62713100  0.87536600  1
  V  V1  1  0.23365600  0.09128600  0.37889500  1
  V  V2  1  0.50020300  0.27473400  0.74543000  1
  V  V3  1  0.50666700  0.73192100  0.24439300  1
  V  V4  1  0.74473700  0.86803800  0.62649800  1
  V  V5  1  0.74874300  0.38645800  0.12539000  1
  V  V6  1  0.99982100  0.03273900  0.99511100  1
  V  V7  1  0.99882600  0.49905400  0.49845100  1
  O  O8  1  0.04749800  0.31023800  0.94105100  1
  O  O9  1  0.05839300  0.81567900  0.43254700  1
  O  O10  1  0.54899700  0.54943200  0.69106300  1
  O  O11  1  0.58239800  0.58694900  0.17304200  1
  F  F12  1  0.07140500  0.83665500  0.91404700  1
  F  F13  1  0.46208500  0.94963300  0.81039700  1
  F  F14  1  0.07609400  0.04603900  0.71249200  1
  F  F15  1  0.07162800  0.31979500  0.41426500  1
  F  F16  1  0.08065000  0.53944500  0.21089200  1
  F  F17  1  0.57758000  0.79952900  0.96195300  1
  F  F18  1  0.42702600  0.41972700  0.83692800  1
  F  F19  1  0.42588600  0.91587400  0.33028100  1
  F  F20  1  0.42386300  0.70048900  0.53931500  1
  F  F21  1  0.45947300  0.43404000  0.31763000  1
  F  F22  1  0.56556500  0.07589800  0.66408500  1
  F  F23  1  0.57543600  0.28493000  0.46088900  1
  F  F24  1  0.41915100  0.20817700  0.03973000  1
  F  F25  1  0.93021500  0.66913400  0.58565400  1
  F  F26  1  0.92096800  0.45144500  0.78934900  1
  F  F27  1  0.92276800  0.96674900  0.28898800  1
  F  F28  1  0.52840800  0.05860700  0.18654100  1
  F  F29  1  0.96095400  0.69969200  0.05979900  1
  F  F30  1  0.96417700  0.18542800  0.56331900  1
  F  F31  1  0.91991300  0.16505500  0.08620700  1
