# generated using pymatgen
data_Ba5Sc6O14
_symmetry_space_group_name_H-M   'P 1'
_cell_length_a   12.46519600
_cell_length_b   12.96370800
_cell_length_c   11.79697100
_cell_angle_alpha   90.00000000
_cell_angle_beta   90.00000000
_cell_angle_gamma   90.00000000
_symmetry_Int_Tables_number   1
_chemical_formula_structural   Ba5Sc6O14
_chemical_formula_sum   'Ba20 Sc24 O56'
_cell_volume   1906.33342932
_cell_formula_units_Z   4
loop_
 _symmetry_equiv_pos_site_id
 _symmetry_equiv_pos_as_xyz
  1  'x, y, z'
loop_
 _atom_site_type_symbol
 _atom_site_label
 _atom_site_symmetry_multiplicity
 _atom_site_fract_x
 _atom_site_fract_y
 _atom_site_fract_z
 _atom_site_occupancy
  Ba  Ba0  1  0.61208600  0.34181100  0.25309000  1
  Ba  Ba1  1  0.38791400  0.34181100  0.75309000  1
  Ba  Ba2  1  0.82040900  0.14064200  0.19786000  1
  Ba  Ba3  1  0.17959100  0.14064200  0.69786000  1
  Ba  Ba4  1  0.52122000  0.00000000  0.23901900  1
  Ba  Ba5  1  0.47878000  0.00000000  0.73901900  1
  Ba  Ba6  1  0.82040900  0.85935800  0.19786000  1
  Ba  Ba7  1  0.17959100  0.85935800  0.69786000  1
  Ba  Ba8  1  0.38791400  0.65818900  0.75309000  1
  Ba  Ba9  1  0.61208600  0.65818900  0.25309000  1
  Ba  Ba10  1  0.11208600  0.84181100  0.25309000  1
  Ba  Ba11  1  0.88791400  0.84181100  0.75309000  1
  Ba  Ba12  1  0.32040900  0.64064200  0.19786000  1
  Ba  Ba13  1  0.67959100  0.64064200  0.69786000  1
  Ba  Ba14  1  0.02122000  0.50000000  0.23901900  1
  Ba  Ba15  1  0.97878000  0.50000000  0.73901900  1
  Ba  Ba16  1  0.32040900  0.35935800  0.19786000  1
  Ba  Ba17  1  0.67959100  0.35935800  0.69786000  1
  Ba  Ba18  1  0.88791400  0.15818900  0.75309000  1
  Ba  Ba19  1  0.11208600  0.15818900  0.25309000  1
  Sc  Sc20  1  0.59841300  0.24286300  0.97436500  1
  Sc  Sc21  1  0.40158700  0.24286300  0.47436500  1
  Sc  Sc22  1  0.64680450  0.14231650  0.50806300  1
  Sc  Sc23  1  0.35319550  0.14231650  0.00806300  1
  Sc  Sc24  1  0.70101500  0.00000000  0.93893400  1
  Sc  Sc25  1  0.00359500  0.00000000  0.96715700  1
  Sc  Sc26  1  0.29898500  0.00000000  0.43893400  1
  Sc  Sc27  1  0.99640500  0.00000000  0.46715700  1
  Sc  Sc28  1  0.64680450  0.85768350  0.50806300  1
  Sc  Sc29  1  0.35319550  0.85768350  0.00806300  1
  Sc  Sc30  1  0.59841300  0.75713700  0.97436500  1
  Sc  Sc31  1  0.40158700  0.75713700  0.47436500  1
  Sc  Sc32  1  0.09841300  0.74286300  0.97436500  1
  Sc  Sc33  1  0.90158700  0.74286300  0.47436500  1
  Sc  Sc34  1  0.14680450  0.64231650  0.50806300  1
  Sc  Sc35  1  0.85319550  0.64231650  0.00806300  1
  Sc  Sc36  1  0.20101500  0.50000000  0.93893400  1
  Sc  Sc37  1  0.50359500  0.50000000  0.96715700  1
  Sc  Sc38  1  0.79898500  0.50000000  0.43893400  1
  Sc  Sc39  1  0.49640500  0.50000000  0.46715700  1
  Sc  Sc40  1  0.14680450  0.35768350  0.50806300  1
  Sc  Sc41  1  0.85319550  0.35768350  0.00806300  1
  Sc  Sc42  1  0.09841300  0.25713700  0.97436500  1
  Sc  Sc43  1  0.90158700  0.25713700  0.47436500  1
  O  O44  1  0.43749450  0.37217850  0.38980400  1
  O  O45  1  0.56250550  0.37217850  0.88980400  1
  O  O46  1  0.52476850  0.22352250  0.58122400  1
  O  O47  1  0.47523150  0.22352250  0.08122400  1
  O  O48  1  0.22339350  0.21711250  0.07241400  1
  O  O49  1  0.77660650  0.21711250  0.57241400  1
  O  O50  1  0.64736250  0.15690650  0.34221600  1
  O  O51  1  0.35263750  0.15690650  0.84221600  1
  O  O52  1  0.36495050  0.12635150  0.37073300  1
  O  O53  1  0.63504950  0.12635150  0.87073300  1
  O  O54  1  0.85721600  0.00000000  0.89487900  1
  O  O55  1  0.36924100  0.00000000  0.06699700  1
  O  O56  1  0.69681200  0.00000000  0.10456800  1
  O  O57  1  0.14278400  0.00000000  0.39487900  1
  O  O58  1  0.00949900  0.00000000  0.63303200  1
  O  O59  1  0.30318800  0.00000000  0.60456800  1
  O  O60  1  0.99050100  0.00000000  0.13303200  1
  O  O61  1  0.63075900  0.00000000  0.56699700  1
  O  O62  1  0.36495050  0.87364850  0.37073300  1
  O  O63  1  0.63504950  0.87364850  0.87073300  1
  O  O64  1  0.35263750  0.84309350  0.84221600  1
  O  O65  1  0.64736250  0.84309350  0.34221600  1
  O  O66  1  0.77660650  0.78288750  0.57241400  1
  O  O67  1  0.22339350  0.78288750  0.07241400  1
  O  O68  1  0.47523150  0.77647750  0.08122400  1
  O  O69  1  0.52476850  0.77647750  0.58122400  1
  O  O70  1  0.43749450  0.62782150  0.38980400  1
  O  O71  1  0.56250550  0.62782150  0.88980400  1
  O  O72  1  0.93749450  0.87217850  0.38980400  1
  O  O73  1  0.06250550  0.87217850  0.88980400  1
  O  O74  1  0.02476850  0.72352250  0.58122400  1
  O  O75  1  0.97523150  0.72352250  0.08122400  1
  O  O76  1  0.72339350  0.71711250  0.07241400  1
  O  O77  1  0.27660650  0.71711250  0.57241400  1
  O  O78  1  0.14736250  0.65690650  0.34221600  1
  O  O79  1  0.85263750  0.65690650  0.84221600  1
  O  O80  1  0.86495050  0.62635150  0.37073300  1
  O  O81  1  0.13504950  0.62635150  0.87073300  1
  O  O82  1  0.35721600  0.50000000  0.89487900  1
  O  O83  1  0.86924100  0.50000000  0.06699700  1
  O  O84  1  0.19681200  0.50000000  0.10456800  1
  O  O85  1  0.64278400  0.50000000  0.39487900  1
  O  O86  1  0.50949900  0.50000000  0.63303200  1
  O  O87  1  0.80318800  0.50000000  0.60456800  1
  O  O88  1  0.49050100  0.50000000  0.13303200  1
  O  O89  1  0.13075900  0.50000000  0.56699700  1
  O  O90  1  0.86495050  0.37364850  0.37073300  1
  O  O91  1  0.13504950  0.37364850  0.87073300  1
  O  O92  1  0.85263750  0.34309350  0.84221600  1
  O  O93  1  0.14736250  0.34309350  0.34221600  1
  O  O94  1  0.27660650  0.28288750  0.57241400  1
  O  O95  1  0.72339350  0.28288750  0.07241400  1
  O  O96  1  0.97523150  0.27647750  0.08122400  1
  O  O97  1  0.02476850  0.27647750  0.58122400  1
  O  O98  1  0.93749450  0.12782150  0.38980400  1
  O  O99  1  0.06250550  0.12782150  0.88980400  1
