# generated using pymatgen
data_SrTaNO2
_symmetry_space_group_name_H-M   'P 1'
_cell_length_a   8.18200200
_cell_length_b   8.03137200
_cell_length_c   8.19214288
_cell_angle_alpha   90.00000000
_cell_angle_beta   90.21350608
_cell_angle_gamma   90.00000000
_symmetry_Int_Tables_number   1
_chemical_formula_structural   SrTaNO2
_chemical_formula_sum   'Sr8 Ta8 N8 O16'
_cell_volume   538.32410417
_cell_formula_units_Z   8
loop_
 _symmetry_equiv_pos_site_id
 _symmetry_equiv_pos_as_xyz
  1  'x, y, z'
loop_
 _atom_site_type_symbol
 _atom_site_label
 _atom_site_symmetry_multiplicity
 _atom_site_fract_x
 _atom_site_fract_y
 _atom_site_fract_z
 _atom_site_occupancy
  Sr  Sr0  1  0.00495000  0.99941000  0.75009800  1
  Sr  Sr1  1  0.50557550  0.99725350  0.75008200  1
  Sr  Sr2  1  0.49442450  0.99725350  0.24991800  1
  Sr  Sr3  1  0.99505000  0.99941000  0.24990200  1
  Sr  Sr4  1  0.50495000  0.49941000  0.75009800  1
  Sr  Sr5  1  0.00557550  0.49725350  0.75008200  1
  Sr  Sr6  1  0.99442450  0.49725350  0.24991800  1
  Sr  Sr7  1  0.49505000  0.49941000  0.24990200  1
  Ta  Ta8  1  0.74124550  0.24949450  0.50794500  1
  Ta  Ta9  1  0.25825550  0.74793050  0.99075700  1
  Ta  Ta10  1  0.74174450  0.74793050  0.00924300  1
  Ta  Ta11  1  0.25875450  0.24949450  0.49205500  1
  Ta  Ta12  1  0.24124550  0.74949450  0.50794500  1
  Ta  Ta13  1  0.75825550  0.24793050  0.99075700  1
  Ta  Ta14  1  0.24174450  0.24793050  0.00924300  1
  Ta  Ta15  1  0.75875450  0.74949450  0.49205500  1
  N  N16  1  0.50000000  0.72811300  0.00000000  1
  N  N17  1  0.25129100  0.22755000  0.25008100  1
  N  N18  1  0.74870900  0.22755000  0.74991900  1
  N  N19  1  0.50000000  0.27250300  0.50000000  1
  N  N20  1  0.00000000  0.22811300  0.00000000  1
  N  N21  1  0.75129100  0.72755000  0.25008100  1
  N  N22  1  0.24870900  0.72755000  0.74991900  1
  N  N23  1  0.00000000  0.77250300  0.50000000  1
  O  O24  1  0.50000000  0.72425800  0.50000000  1
  O  O25  1  0.74769750  0.77601050  0.74960900  1
  O  O26  1  0.25230250  0.77601050  0.25039100  1
  O  O27  1  0.27532050  0.00152450  0.97582500  1
  O  O28  1  0.72488150  0.99982850  0.47596300  1
  O  O29  1  0.27511850  0.99982850  0.52403700  1
  O  O30  1  0.72467950  0.00152450  0.02417500  1
  O  O31  1  0.50000000  0.27712000  0.00000000  1
  O  O32  1  0.00000000  0.22425800  0.50000000  1
  O  O33  1  0.24769750  0.27601050  0.74960900  1
  O  O34  1  0.75230250  0.27601050  0.25039100  1
  O  O35  1  0.77532050  0.50152450  0.97582500  1
  O  O36  1  0.22488150  0.49982850  0.47596300  1
  O  O37  1  0.77511850  0.49982850  0.52403700  1
  O  O38  1  0.22467950  0.50152450  0.02417500  1
  O  O39  1  0.00000000  0.77712000  0.00000000  1
