# generated using pymatgen
data_Ho2(SeO3)3
_symmetry_space_group_name_H-M   'P 1'
_cell_length_a   8.53378412
_cell_length_b   8.53378412
_cell_length_c   8.18910700
_cell_angle_alpha   90.00000000
_cell_angle_beta   90.00000000
_cell_angle_gamma   120.00000000
_symmetry_Int_Tables_number   1
_chemical_formula_structural   Ho2(SeO3)3
_chemical_formula_sum   'Ho4 Se6 O18'
_cell_volume   516.47639986
_cell_formula_units_Z   2
loop_
 _symmetry_equiv_pos_site_id
 _symmetry_equiv_pos_as_xyz
  1  'x, y, z'
loop_
 _atom_site_type_symbol
 _atom_site_label
 _atom_site_symmetry_multiplicity
 _atom_site_fract_x
 _atom_site_fract_y
 _atom_site_fract_z
 _atom_site_occupancy
  Ho  Ho0  1  0.66666667  0.33333333  0.53931900  1
  Ho  Ho1  1  0.66666667  0.33333333  0.96068100  1
  Ho  Ho2  1  0.33333333  0.66666667  0.03931900  1
  Ho  Ho3  1  0.33333333  0.66666667  0.46068100  1
  Se  Se4  1  0.73260100  0.70335200  0.25000000  1
  Se  Se5  1  0.29664800  0.02924900  0.25000000  1
  Se  Se6  1  0.97075100  0.26739900  0.25000000  1
  Se  Se7  1  0.02924900  0.73260100  0.75000000  1
  Se  Se8  1  0.70335200  0.97075100  0.75000000  1
  Se  Se9  1  0.26739900  0.29664800  0.75000000  1
  O  O10  1  0.75031700  0.58862300  0.41337500  1
  O  O11  1  0.75031700  0.58862300  0.08662500  1
  O  O12  1  0.50046900  0.37086400  0.75000000  1
  O  O13  1  0.87039500  0.49953100  0.75000000  1
  O  O14  1  0.41137700  0.16169400  0.08662500  1
  O  O15  1  0.41137700  0.16169400  0.41337500  1
  O  O16  1  0.83830600  0.24968300  0.08662500  1
  O  O17  1  0.83830600  0.24968300  0.41337500  1
  O  O18  1  0.62913600  0.12960500  0.75000000  1
  O  O19  1  0.37086400  0.87039500  0.25000000  1
  O  O20  1  0.16169400  0.75031700  0.91337500  1
  O  O21  1  0.16169400  0.75031700  0.58662500  1
  O  O22  1  0.58862300  0.83830600  0.58662500  1
  O  O23  1  0.58862300  0.83830600  0.91337500  1
  O  O24  1  0.12960500  0.50046900  0.25000000  1
  O  O25  1  0.49953100  0.62913600  0.25000000  1
  O  O26  1  0.24968300  0.41137700  0.58662500  1
  O  O27  1  0.24968300  0.41137700  0.91337500  1
