# generated using pymatgen
data_Gd2HgO4
_symmetry_space_group_name_H-M   'P 1'
_cell_length_a   13.80928200
_cell_length_b   3.70917800
_cell_length_c   10.23448182
_cell_angle_alpha   90.00000000
_cell_angle_beta   122.04770707
_cell_angle_gamma   90.00000000
_symmetry_Int_Tables_number   1
_chemical_formula_structural   Gd2HgO4
_chemical_formula_sum   'Gd8 Hg4 O16'
_cell_volume   444.33338517
_cell_formula_units_Z   4
loop_
 _symmetry_equiv_pos_site_id
 _symmetry_equiv_pos_as_xyz
  1  'x, y, z'
loop_
 _atom_site_type_symbol
 _atom_site_label
 _atom_site_symmetry_multiplicity
 _atom_site_fract_x
 _atom_site_fract_y
 _atom_site_fract_z
 _atom_site_occupancy
  Gd  Gd0  1  0.88030500  0.50000000  0.53858400  1
  Gd  Gd1  1  0.84063900  0.00000000  0.20064000  1
  Gd  Gd2  1  0.15936100  0.00000000  0.79936000  1
  Gd  Gd3  1  0.11969500  0.50000000  0.46141600  1
  Gd  Gd4  1  0.38030500  0.00000000  0.53858400  1
  Gd  Gd5  1  0.34063900  0.50000000  0.20064000  1
  Gd  Gd6  1  0.65936100  0.50000000  0.79936000  1
  Gd  Gd7  1  0.61969500  0.00000000  0.46141600  1
  Hg  Hg8  1  0.61382200  0.50000000  0.16148500  1
  Hg  Hg9  1  0.38617800  0.50000000  0.83851500  1
  Hg  Hg10  1  0.11382200  0.00000000  0.16148500  1
  Hg  Hg11  1  0.88617800  0.00000000  0.83851500  1
  O  O12  1  0.76931000  0.00000000  0.38863800  1
  O  O13  1  0.70324000  0.50000000  0.05579200  1
  O  O14  1  0.96484600  0.00000000  0.71876700  1
  O  O15  1  0.91817100  0.50000000  0.34721000  1
  O  O16  1  0.08182900  0.50000000  0.65279000  1
  O  O17  1  0.03515400  0.00000000  0.28123300  1
  O  O18  1  0.29676000  0.50000000  0.94420800  1
  O  O19  1  0.23069000  0.00000000  0.61136200  1
  O  O20  1  0.26931000  0.50000000  0.38863800  1
  O  O21  1  0.20324000  0.00000000  0.05579200  1
  O  O22  1  0.46484600  0.50000000  0.71876700  1
  O  O23  1  0.41817100  0.00000000  0.34721000  1
  O  O24  1  0.58182900  0.00000000  0.65279000  1
  O  O25  1  0.53515400  0.50000000  0.28123300  1
  O  O26  1  0.79676000  0.00000000  0.94420800  1
  O  O27  1  0.73069000  0.50000000  0.61136200  1
