# generated using pymatgen
data_Mg2P2H12O13
_symmetry_space_group_name_H-M   'P 1'
_cell_length_a   7.27880000
_cell_length_b   18.44245800
_cell_length_c   10.34086733
_cell_angle_alpha   90.00000000
_cell_angle_beta   132.01584677
_cell_angle_gamma   90.00000000
_symmetry_Int_Tables_number   1
_chemical_formula_structural   Mg2P2H12O13
_chemical_formula_sum   'Mg8 P8 H48 O52'
_cell_volume   1031.33755064
_cell_formula_units_Z   4
loop_
 _symmetry_equiv_pos_site_id
 _symmetry_equiv_pos_as_xyz
  1  'x, y, z'
loop_
 _atom_site_type_symbol
 _atom_site_label
 _atom_site_symmetry_multiplicity
 _atom_site_fract_x
 _atom_site_fract_y
 _atom_site_fract_z
 _atom_site_occupancy
  Mg  Mg0  1  0.00000000  0.50000000  0.50000000  1
  Mg  Mg1  1  0.00000000  0.00000000  0.00000000  1
  Mg  Mg2  1  0.00000000  0.50000000  0.00000000  1
  Mg  Mg3  1  0.00000000  0.00000000  0.50000000  1
  Mg  Mg4  1  0.32742000  0.24354200  0.02433900  1
  Mg  Mg5  1  0.32742000  0.25645800  0.52433900  1
  Mg  Mg6  1  0.67258000  0.75645800  0.97566100  1
  Mg  Mg7  1  0.67258000  0.74354200  0.47566100  1
  P  P8  1  0.49870400  0.40321500  0.20111700  1
  P  P9  1  0.49870400  0.09678500  0.70111700  1
  P  P10  1  0.50129600  0.59678500  0.79888300  1
  P  P11  1  0.50129600  0.90321500  0.29888300  1
  P  P12  1  0.15355400  0.39507900  0.82135000  1
  P  P13  1  0.15355400  0.10492100  0.32135000  1
  P  P14  1  0.84644600  0.60492100  0.17865000  1
  P  P15  1  0.84644600  0.89507900  0.67865000  1
  H  H16  1  0.57640800  0.50418100  0.41364300  1
  H  H17  1  0.57640800  0.99581900  0.91364300  1
  H  H18  1  0.42359200  0.49581900  0.58635700  1
  H  H19  1  0.42359200  0.00418100  0.08635700  1
  H  H20  1  0.78451800  0.48914400  0.62039000  1
  H  H21  1  0.78451800  0.01085600  0.12039000  1
  H  H22  1  0.21548200  0.51085600  0.37961000  1
  H  H23  1  0.21548200  0.98914400  0.87961000  1
  H  H24  1  0.26747100  0.11127300  0.90029600  1
  H  H25  1  0.26747100  0.38872700  0.40029600  1
  H  H26  1  0.73252900  0.88872700  0.09970400  1
  H  H27  1  0.73252900  0.61127300  0.59970400  1
  H  H28  1  0.29900800  0.16457300  0.79252900  1
  H  H29  1  0.29900800  0.33542700  0.29252900  1
  H  H30  1  0.70099200  0.83542700  0.20747100  1
  H  H31  1  0.70099200  0.66457300  0.70747100  1
  H  H32  1  0.67908600  0.14328600  0.28223300  1
  H  H33  1  0.67908600  0.35671400  0.78223300  1
  H  H34  1  0.32091400  0.85671400  0.71776700  1
  H  H35  1  0.32091400  0.64328600  0.21776700  1
  H  H36  1  0.41856800  0.12962500  0.22461400  1
  H  H37  1  0.41856800  0.37037500  0.72461400  1
  H  H38  1  0.58143200  0.87037500  0.77538600  1
  H  H39  1  0.58143200  0.62962500  0.27538600  1
  H  H40  1  0.05975500  0.21096800  0.10446500  1
  H  H41  1  0.05975500  0.28903200  0.60446500  1
  H  H42  1  0.94024500  0.78903200  0.89553500  1
  H  H43  1  0.94024500  0.71096800  0.39553500  1
  H  H44  1  0.93261300  0.17046100  0.92857900  1
  H  H45  1  0.93261300  0.32953900  0.42857900  1
  H  H46  1  0.06738700  0.82953900  0.07142100  1
  H  H47  1  0.06738700  0.67046100  0.57142100  1
  H  H48  1  0.04712400  0.61490600  0.85861000  1
  H  H49  1  0.04712400  0.88509400  0.35861000  1
  H  H50  1  0.95287600  0.38509400  0.14139000  1
  H  H51  1  0.95287600  0.11490600  0.64139000  1
  H  H52  1  0.29998600  0.57336200  0.96639900  1
  H  H53  1  0.29998600  0.92663800  0.46639900  1
  H  H54  1  0.70001400  0.42663800  0.03360100  1
  H  H55  1  0.70001400  0.07336200  0.53360100  1
  H  H56  1  0.64064600  0.25770400  0.96402900  1
  H  H57  1  0.64064600  0.24229600  0.46402900  1
  H  H58  1  0.35935400  0.74229600  0.03597100  1
  H  H59  1  0.35935400  0.75770400  0.53597100  1
  H  H60  1  0.81509900  0.23536600  0.16181800  1
  H  H61  1  0.81509900  0.26463400  0.66181800  1
  H  H62  1  0.18490100  0.76463400  0.83818200  1
  H  H63  1  0.18490100  0.73536600  0.33818200  1
  O  O64  1  0.18208800  0.42594700  0.69924800  1
  O  O65  1  0.18208800  0.07405300  0.19924800  1
  O  O66  1  0.81791200  0.57405300  0.30075200  1
  O  O67  1  0.81791200  0.92594700  0.80075200  1
  O  O68  1  0.12931500  0.31164400  0.80870700  1
  O  O69  1  0.12931500  0.18835600  0.30870700  1
  O  O70  1  0.87068500  0.68835600  0.19129300  1
  O  O71  1  0.87068500  0.81164400  0.69129300  1
  O  O72  1  0.41094800  0.32638900  0.19481600  1
  O  O73  1  0.41094800  0.17361100  0.69481600  1
  O  O74  1  0.58905200  0.67361100  0.80518400  1
  O  O75  1  0.58905200  0.82638900  0.30518400  1
  O  O76  1  0.42441500  0.41438700  0.01332200  1
  O  O77  1  0.42441500  0.08561300  0.51332200  1
  O  O78  1  0.57558500  0.58561300  0.98667800  1
  O  O79  1  0.57558500  0.91438700  0.48667800  1
  O  O80  1  0.95327800  0.43081600  0.81076900  1
  O  O81  1  0.95327800  0.06918400  0.31076900  1
  O  O82  1  0.04672200  0.56918400  0.18923100  1
  O  O83  1  0.04672200  0.93081600  0.68923100  1
  O  O84  1  0.77798400  0.41221100  0.33762300  1
  O  O85  1  0.77798400  0.08778900  0.83762300  1
  O  O86  1  0.22201600  0.58778900  0.66237700  1
  O  O87  1  0.22201600  0.91221100  0.16237700  1
  O  O88  1  0.35846200  0.46197900  0.21091600  1
  O  O89  1  0.35846200  0.03802100  0.71091600  1
  O  O90  1  0.64153800  0.53802100  0.78908400  1
  O  O91  1  0.64153800  0.96197900  0.28908400  1
  O  O92  1  0.73499500  0.52271700  0.52593100  1
  O  O93  1  0.73499500  0.97728300  0.02593100  1
  O  O94  1  0.26500500  0.47728300  0.47406900  1
  O  O95  1  0.26500500  0.02271700  0.97406900  1
  O  O96  1  0.22055500  0.15962700  0.84336900  1
  O  O97  1  0.22055500  0.34037300  0.34336900  1
  O  O98  1  0.77944500  0.84037300  0.15663100  1
  O  O99  1  0.77944500  0.65962700  0.65663100  1
  O  O100  1  0.52068600  0.16650600  0.22737900  1
  O  O101  1  0.52068600  0.33349400  0.72737900  1
  O  O102  1  0.47931400  0.83349400  0.77262100  1
  O  O103  1  0.47931400  0.66650600  0.27262100  1
  O  O104  1  0.02153900  0.21620600  0.99329200  1
  O  O105  1  0.02153900  0.28379400  0.49329200  1
  O  O106  1  0.97846100  0.78379400  0.00670800  1
  O  O107  1  0.97846100  0.71620600  0.50670800  1
  O  O108  1  0.15471900  0.57967200  0.95420200  1
  O  O109  1  0.15471900  0.92032800  0.45420200  1
  O  O110  1  0.84528100  0.42032800  0.04579800  1
  O  O111  1  0.84528100  0.07967200  0.54579800  1
  O  O112  1  0.65264000  0.25688100  0.06416900  1
  O  O113  1  0.65264000  0.24311900  0.56416900  1
  O  O114  1  0.34736000  0.74311900  0.93583100  1
  O  O115  1  0.34736000  0.75688100  0.43583100  1
