# generated using pymatgen
data_LiCuF4
_symmetry_space_group_name_H-M   'P 1'
_cell_length_a   5.23387400
_cell_length_b   5.23387400
_cell_length_c   9.77242000
_cell_angle_alpha   90.00000000
_cell_angle_beta   90.00000000
_cell_angle_gamma   90.00000000
_symmetry_Int_Tables_number   1
_chemical_formula_structural   LiCuF4
_chemical_formula_sum   'Li4 Cu4 F16'
_cell_volume   267.70017208
_cell_formula_units_Z   4
loop_
 _symmetry_equiv_pos_site_id
 _symmetry_equiv_pos_as_xyz
  1  'x, y, z'
loop_
 _atom_site_type_symbol
 _atom_site_label
 _atom_site_symmetry_multiplicity
 _atom_site_fract_x
 _atom_site_fract_y
 _atom_site_fract_z
 _atom_site_occupancy
  Li  Li0  1  0.50000000  0.50000000  0.25000000  1
  Li  Li1  1  0.00000000  0.00000000  0.25000000  1
  Li  Li2  1  0.00000000  0.00000000  0.75000000  1
  Li  Li3  1  0.50000000  0.50000000  0.75000000  1
  Cu  Cu4  1  0.00000000  0.50000000  0.00000000  1
  Cu  Cu5  1  0.50000000  0.00000000  0.00000000  1
  Cu  Cu6  1  0.50000000  0.00000000  0.50000000  1
  Cu  Cu7  1  0.00000000  0.50000000  0.50000000  1
  F  F8  1  0.17441650  0.32558350  0.12799350  1
  F  F9  1  0.32558350  0.82558350  0.12799350  1
  F  F10  1  0.67441650  0.82558350  0.37200650  1
  F  F11  1  0.67441650  0.17441650  0.12799350  1
  F  F12  1  0.82558350  0.32558350  0.37200650  1
  F  F13  1  0.82558350  0.67441650  0.12799350  1
  F  F14  1  0.17441650  0.67441650  0.37200650  1
  F  F15  1  0.32558350  0.17441650  0.37200650  1
  F  F16  1  0.67441650  0.82558350  0.62799350  1
  F  F17  1  0.82558350  0.32558350  0.62799350  1
  F  F18  1  0.17441650  0.32558350  0.87200650  1
  F  F19  1  0.17441650  0.67441650  0.62799350  1
  F  F20  1  0.32558350  0.82558350  0.87200650  1
  F  F21  1  0.32558350  0.17441650  0.62799350  1
  F  F22  1  0.67441650  0.17441650  0.87200650  1
  F  F23  1  0.82558350  0.67441650  0.87200650  1
