# generated using pymatgen
data_ZnAs2
_symmetry_space_group_name_H-M   'P 1'
_cell_length_a   8.14417800
_cell_length_b   7.80152100
_cell_length_c   9.40739489
_cell_angle_alpha   90.00000000
_cell_angle_beta   102.50070545
_cell_angle_gamma   90.00000000
_symmetry_Int_Tables_number   1
_chemical_formula_structural   ZnAs2
_chemical_formula_sum   'Zn8 As16'
_cell_volume   583.54753822
_cell_formula_units_Z   8
loop_
 _symmetry_equiv_pos_site_id
 _symmetry_equiv_pos_as_xyz
  1  'x, y, z'
loop_
 _atom_site_type_symbol
 _atom_site_label
 _atom_site_symmetry_multiplicity
 _atom_site_fract_x
 _atom_site_fract_y
 _atom_site_fract_z
 _atom_site_occupancy
  Zn  Zn0  1  0.39439500  0.25131800  0.08081300  1
  Zn  Zn1  1  0.10560500  0.75131800  0.91918700  1
  Zn  Zn2  1  0.60560500  0.74868200  0.91918700  1
  Zn  Zn3  1  0.89439500  0.24868200  0.08081300  1
  Zn  Zn4  1  0.22294000  0.89931700  0.38873900  1
  Zn  Zn5  1  0.27706000  0.39931700  0.61126100  1
  Zn  Zn6  1  0.77706000  0.10068300  0.61126100  1
  Zn  Zn7  1  0.72294000  0.60068300  0.38873900  1
  As  As8  1  0.21942500  0.57576700  0.38511000  1
  As  As9  1  0.28057500  0.07576700  0.61489000  1
  As  As10  1  0.78057500  0.42423300  0.61489000  1
  As  As11  1  0.71942500  0.92423300  0.38511000  1
  As  As12  1  0.43285300  0.98809600  0.23818400  1
  As  As13  1  0.06714700  0.48809600  0.76181600  1
  As  As14  1  0.56714700  0.01190400  0.76181600  1
  As  As15  1  0.93285300  0.51190400  0.23818400  1
  As  As16  1  0.43626000  0.50877900  0.24315600  1
  As  As17  1  0.06374000  0.00877900  0.75684400  1
  As  As18  1  0.56374000  0.49122100  0.75684400  1
  As  As19  1  0.93626000  0.99122100  0.24315600  1
  As  As20  1  0.39240200  0.74537000  0.06738000  1
  As  As21  1  0.10759800  0.24537000  0.93262000  1
  As  As22  1  0.60759800  0.25463000  0.93262000  1
  As  As23  1  0.89240200  0.75463000  0.06738000  1
