# generated using pymatgen
data_Li2Ti3MnO8
_symmetry_space_group_name_H-M   'P 1'
_cell_length_a   5.96844324
_cell_length_b   5.96844324
_cell_length_c   9.93601800
_cell_angle_alpha   90.00000000
_cell_angle_beta   90.00000000
_cell_angle_gamma   120.00000000
_symmetry_Int_Tables_number   1
_chemical_formula_structural   Li2Ti3MnO8
_chemical_formula_sum   'Li4 Ti6 Mn2 O16'
_cell_volume   306.52446121
_cell_formula_units_Z   2
loop_
 _symmetry_equiv_pos_site_id
 _symmetry_equiv_pos_as_xyz
  1  'x, y, z'
loop_
 _atom_site_type_symbol
 _atom_site_label
 _atom_site_symmetry_multiplicity
 _atom_site_fract_x
 _atom_site_fract_y
 _atom_site_fract_z
 _atom_site_occupancy
  Li  Li0  1  0.33333333  0.66666667  0.11128750  1
  Li  Li1  1  0.66666667  0.33333333  0.61128750  1
  Li  Li2  1  0.00000000  0.00000000  0.00093600  1
  Li  Li3  1  0.00000000  0.00000000  0.50093600  1
  Ti  Ti4  1  0.16858150  0.83141850  0.78424600  1
  Ti  Ti5  1  0.66283700  0.83141850  0.78424600  1
  Ti  Ti6  1  0.16858150  0.33716300  0.78424600  1
  Ti  Ti7  1  0.83141850  0.66283700  0.28424600  1
  Ti  Ti8  1  0.33716300  0.16858150  0.28424600  1
  Ti  Ti9  1  0.83141850  0.16858150  0.28424600  1
  Mn  Mn10  1  0.33333333  0.66666667  0.50324750  1
  Mn  Mn11  1  0.66666667  0.33333333  0.00324750  1
  O  O12  1  0.33333333  0.66666667  0.89375350  1
  O  O13  1  0.66666667  0.33333333  0.39375350  1
  O  O14  1  0.00000000  0.00000000  0.68387700  1
  O  O15  1  0.00000000  0.00000000  0.18387700  1
  O  O16  1  0.15510525  0.84489475  0.39136100  1
  O  O17  1  0.68978950  0.84489475  0.39136100  1
  O  O18  1  0.84489475  0.68978950  0.89136100  1
  O  O19  1  0.15510525  0.31021050  0.39136100  1
  O  O20  1  0.31021050  0.15510525  0.89136100  1
  O  O21  1  0.84489475  0.15510525  0.89136100  1
  O  O22  1  0.48361250  0.96722500  0.67536400  1
  O  O23  1  0.03277500  0.51638750  0.67536400  1
  O  O24  1  0.48361250  0.51638750  0.67536400  1
  O  O25  1  0.51638750  0.48361250  0.17536400  1
  O  O26  1  0.96722500  0.48361250  0.17536400  1
  O  O27  1  0.51638750  0.03277500  0.17536400  1
