# generated using pymatgen
data_Li4Ti3Co3(NiO8)2
_symmetry_space_group_name_H-M   'P 1'
_cell_length_a   9.95711627
_cell_length_b   5.81190668
_cell_length_c   9.64508379
_cell_angle_alpha   90.00000000
_cell_angle_beta   90.19054819
_cell_angle_gamma   90.00000000
_symmetry_Int_Tables_number   1
_chemical_formula_structural   Li4Ti3Co3(NiO8)2
_chemical_formula_sum   'Li8 Ti6 Co6 Ni4 O32'
_cell_volume   558.15627776
_cell_formula_units_Z   2
loop_
 _symmetry_equiv_pos_site_id
 _symmetry_equiv_pos_as_xyz
  1  'x, y, z'
loop_
 _atom_site_type_symbol
 _atom_site_label
 _atom_site_symmetry_multiplicity
 _atom_site_fract_x
 _atom_site_fract_y
 _atom_site_fract_z
 _atom_site_occupancy
  Li  Li0  1  0.32606550  0.00000000  0.10976900  1
  Li  Li1  1  0.01386400  0.00000000  0.00399200  1
  Li  Li2  1  0.01091200  0.00000000  0.50082700  1
  Li  Li3  1  0.65911100  0.00000000  0.60318700  1
  Li  Li4  1  0.82606550  0.50000000  0.10976900  1
  Li  Li5  1  0.51386400  0.50000000  0.00399200  1
  Li  Li6  1  0.51091200  0.50000000  0.50082700  1
  Li  Li7  1  0.15911100  0.50000000  0.60318700  1
  Ti  Ti8  1  0.41259050  0.75351650  0.78473900  1
  Ti  Ti9  1  0.41259050  0.24648350  0.78473900  1
  Ti  Ti10  1  0.82774100  0.00000000  0.28539400  1
  Ti  Ti11  1  0.91259050  0.25351650  0.78473900  1
  Ti  Ti12  1  0.91259050  0.74648350  0.78473900  1
  Ti  Ti13  1  0.32774100  0.50000000  0.28539400  1
  Co  Co14  1  0.16923200  0.00000000  0.78703300  1
  Co  Co15  1  0.58281800  0.75346100  0.28632100  1
  Co  Co16  1  0.58281800  0.24653900  0.28632100  1
  Co  Co17  1  0.66923200  0.50000000  0.78703300  1
  Co  Co18  1  0.08281800  0.25346100  0.28632100  1
  Co  Co19  1  0.08281800  0.74653900  0.28632100  1
  Ni  Ni20  1  0.33492900  0.00000000  0.50859400  1
  Ni  Ni21  1  0.66730650  0.00000000  0.01330400  1
  Ni  Ni22  1  0.83492900  0.50000000  0.50859400  1
  Ni  Ni23  1  0.16730650  0.50000000  0.01330400  1
  O  O24  1  0.42374500  0.74042100  0.39410800  1
  O  O25  1  0.48008000  0.00000000  0.66785500  1
  O  O26  1  0.33457450  0.00000000  0.89958900  1
  O  O27  1  0.00395700  0.00000000  0.68619200  1
  O  O28  1  0.00310700  0.00000000  0.18860200  1
  O  O29  1  0.42374500  0.25957900  0.39410800  1
  O  O30  1  0.25221800  0.77870500  0.66721800  1
  O  O31  1  0.25221800  0.22129500  0.66721800  1
  O  O32  1  0.84096100  0.00000000  0.89814900  1
  O  O33  1  0.16120300  0.00000000  0.38392500  1
  O  O34  1  0.73516400  0.77375900  0.16773300  1
  O  O35  1  0.73516400  0.22624100  0.16773300  1
  O  O36  1  0.66244050  0.00000000  0.39471000  1
  O  O37  1  0.58631400  0.73634800  0.89123800  1
  O  O38  1  0.51532150  0.00000000  0.17794900  1
  O  O39  1  0.58631400  0.26365200  0.89123800  1
  O  O40  1  0.92374500  0.24042100  0.39410800  1
  O  O41  1  0.98008000  0.50000000  0.66785500  1
  O  O42  1  0.83457450  0.50000000  0.89958900  1
  O  O43  1  0.50395700  0.50000000  0.68619200  1
  O  O44  1  0.50310700  0.50000000  0.18860200  1
  O  O45  1  0.92374500  0.75957900  0.39410800  1
  O  O46  1  0.75221800  0.27870500  0.66721800  1
  O  O47  1  0.75221800  0.72129500  0.66721800  1
  O  O48  1  0.34096100  0.50000000  0.89814900  1
  O  O49  1  0.66120300  0.50000000  0.38392500  1
  O  O50  1  0.23516400  0.27375900  0.16773300  1
  O  O51  1  0.23516400  0.72624100  0.16773300  1
  O  O52  1  0.16244050  0.50000000  0.39471000  1
  O  O53  1  0.08631400  0.23634800  0.89123800  1
  O  O54  1  0.01532150  0.50000000  0.17794900  1
  O  O55  1  0.08631400  0.76365200  0.89123800  1
