# generated using pymatgen
data_VH10S2(NO4)2
_symmetry_space_group_name_H-M   'P 1'
_cell_length_a   7.50767900
_cell_length_b   7.34800600
_cell_length_c   10.24963713
_cell_angle_alpha   90.00000000
_cell_angle_beta   125.83252481
_cell_angle_gamma   90.00000000
_symmetry_Int_Tables_number   1
_chemical_formula_structural   VH10S2(NO4)2
_chemical_formula_sum   'V2 H20 S4 N4 O16'
_cell_volume   458.41709440
_cell_formula_units_Z   2
loop_
 _symmetry_equiv_pos_site_id
 _symmetry_equiv_pos_as_xyz
  1  'x, y, z'
loop_
 _atom_site_type_symbol
 _atom_site_label
 _atom_site_symmetry_multiplicity
 _atom_site_fract_x
 _atom_site_fract_y
 _atom_site_fract_z
 _atom_site_occupancy
  V  V0  1  0.00000000  0.00000000  0.50000000  1
  V  V1  1  0.00000000  0.50000000  0.00000000  1
  H  H2  1  0.56857600  0.93577300  0.78902700  1
  H  H3  1  0.33213400  0.86534400  0.89265700  1
  H  H4  1  0.68824900  0.33000100  0.97400400  1
  H  H5  1  0.43142400  0.06422700  0.21097300  1
  H  H6  1  0.71960600  0.27699000  0.35877000  1
  H  H7  1  0.20720500  0.39500300  0.54234300  1
  H  H8  1  0.28039400  0.77699000  0.14123000  1
  H  H9  1  0.79279500  0.89500300  0.95765700  1
  H  H10  1  0.56857600  0.56422700  0.28902700  1
  H  H11  1  0.68824900  0.16999900  0.47400400  1
  H  H12  1  0.33213400  0.63465600  0.39265700  1
  H  H13  1  0.43142400  0.43577300  0.71097300  1
  H  H14  1  0.66786600  0.36534400  0.60734300  1
  H  H15  1  0.31175100  0.83000100  0.52599600  1
  H  H16  1  0.20720500  0.10499700  0.04234300  1
  H  H17  1  0.71960600  0.22301000  0.85877000  1
  H  H18  1  0.79279500  0.60499700  0.45765700  1
  H  H19  1  0.28039400  0.72301000  0.64123000  1
  H  H20  1  0.66786600  0.13465600  0.10734300  1
  H  H21  1  0.31175100  0.66999900  0.02599600  1
  S  S22  1  0.96845000  0.81640300  0.75306700  1
  S  S23  1  0.96845000  0.68359700  0.25306700  1
  S  S24  1  0.03155000  0.31640300  0.74693300  1
  S  S25  1  0.03155000  0.18359700  0.24693300  1
  N  N26  1  0.10661600  0.32068500  0.92290700  1
  N  N27  1  0.10661600  0.17931500  0.42290700  1
  N  N28  1  0.89338400  0.82068500  0.57709300  1
  N  N29  1  0.89338400  0.67931500  0.07709300  1
  O  O30  1  0.11731300  0.14244400  0.71447200  1
  O  O31  1  0.30039300  0.49419600  0.61745500  1
  O  O32  1  0.74670800  0.25157400  0.13791500  1
  O  O33  1  0.29824300  0.64706700  0.11767600  1
  O  O34  1  0.70175700  0.14706700  0.38232400  1
  O  O35  1  0.25329200  0.75157400  0.36208500  1
  O  O36  1  0.69960700  0.99419600  0.88254500  1
  O  O37  1  0.88268700  0.64244400  0.78552800  1
  O  O38  1  0.11731300  0.35755600  0.21447200  1
  O  O39  1  0.30039300  0.00580400  0.11745500  1
  O  O40  1  0.74670800  0.24842600  0.63791500  1
  O  O41  1  0.29824300  0.85293300  0.61767600  1
  O  O42  1  0.70175700  0.35293300  0.88232400  1
  O  O43  1  0.25329200  0.74842600  0.86208500  1
  O  O44  1  0.69960700  0.50580400  0.38254500  1
  O  O45  1  0.88268700  0.85755600  0.28552800  1
