# generated using pymatgen
data_Bi2OF4
_symmetry_space_group_name_H-M   'P 1'
_cell_length_a   13.03126800
_cell_length_b   5.66671000
_cell_length_c   5.83137712
_cell_angle_alpha   90.00000000
_cell_angle_beta   102.14004808
_cell_angle_gamma   90.00000000
_symmetry_Int_Tables_number   1
_chemical_formula_structural   Bi2OF4
_chemical_formula_sum   'Bi8 O4 F16'
_cell_volume   420.98458267
_cell_formula_units_Z   4
loop_
 _symmetry_equiv_pos_site_id
 _symmetry_equiv_pos_as_xyz
  1  'x, y, z'
loop_
 _atom_site_type_symbol
 _atom_site_label
 _atom_site_symmetry_multiplicity
 _atom_site_fract_x
 _atom_site_fract_y
 _atom_site_fract_z
 _atom_site_occupancy
  Bi  Bi0  1  0.60578050  0.28549350  0.58150600  1
  Bi  Bi1  1  0.60578050  0.71450650  0.08150600  1
  Bi  Bi2  1  0.89421950  0.78549350  0.91849400  1
  Bi  Bi3  1  0.89421950  0.21450650  0.41849400  1
  Bi  Bi4  1  0.10578050  0.78549350  0.58150600  1
  Bi  Bi5  1  0.10578050  0.21450650  0.08150600  1
  Bi  Bi6  1  0.39421950  0.28549350  0.91849400  1
  Bi  Bi7  1  0.39421950  0.71450650  0.41849400  1
  O  O8  1  0.00000000  0.03878100  0.75000000  1
  O  O9  1  0.00000000  0.96121900  0.25000000  1
  O  O10  1  0.50000000  0.53878100  0.75000000  1
  O  O11  1  0.50000000  0.46121900  0.25000000  1
  F  F12  1  0.57851000  0.11710000  0.93957100  1
  F  F13  1  0.57851000  0.88290000  0.43957100  1
  F  F14  1  0.71430400  0.56649000  0.82282800  1
  F  F15  1  0.71430400  0.43351000  0.32282800  1
  F  F16  1  0.78569600  0.06649000  0.67717200  1
  F  F17  1  0.78569600  0.93351000  0.17717200  1
  F  F18  1  0.92149000  0.61710000  0.56042900  1
  F  F19  1  0.92149000  0.38290000  0.06042900  1
  F  F20  1  0.07851000  0.61710000  0.93957100  1
  F  F21  1  0.07851000  0.38290000  0.43957100  1
  F  F22  1  0.21430400  0.06649000  0.82282800  1
  F  F23  1  0.21430400  0.93351000  0.32282800  1
  F  F24  1  0.28569600  0.56649000  0.67717200  1
  F  F25  1  0.28569600  0.43351000  0.17717200  1
  F  F26  1  0.42149000  0.11710000  0.56042900  1
  F  F27  1  0.42149000  0.88290000  0.06042900  1
