# generated using pymatgen
data_LiCuCO3
_symmetry_space_group_name_H-M   'P 1'
_cell_length_a   5.38872800
_cell_length_b   5.68182600
_cell_length_c   17.33858200
_cell_angle_alpha   90.00000000
_cell_angle_beta   90.00000000
_cell_angle_gamma   90.00000000
_symmetry_Int_Tables_number   1
_chemical_formula_structural   LiCuCO3
_chemical_formula_sum   'Li8 Cu8 C8 O24'
_cell_volume   530.86949356
_cell_formula_units_Z   8
loop_
 _symmetry_equiv_pos_site_id
 _symmetry_equiv_pos_as_xyz
  1  'x, y, z'
loop_
 _atom_site_type_symbol
 _atom_site_label
 _atom_site_symmetry_multiplicity
 _atom_site_fract_x
 _atom_site_fract_y
 _atom_site_fract_z
 _atom_site_occupancy
  Li  Li0  1  0.75229900  0.00000000  0.75000000  1
  Li  Li1  1  0.25229900  0.00000000  0.75000000  1
  Li  Li2  1  0.24770100  0.50000000  0.75000000  1
  Li  Li3  1  0.74770100  0.50000000  0.75000000  1
  Li  Li4  1  0.25229900  0.50000000  0.25000000  1
  Li  Li5  1  0.75229900  0.50000000  0.25000000  1
  Li  Li6  1  0.74770100  0.00000000  0.25000000  1
  Li  Li7  1  0.24770100  0.00000000  0.25000000  1
  Cu  Cu8  1  0.75000000  0.84238000  0.00000000  1
  Cu  Cu9  1  0.25000000  0.65762000  0.00000000  1
  Cu  Cu10  1  0.75000000  0.34238000  0.00000000  1
  Cu  Cu11  1  0.25000000  0.15762000  0.00000000  1
  Cu  Cu12  1  0.25000000  0.34238000  0.50000000  1
  Cu  Cu13  1  0.75000000  0.15762000  0.50000000  1
  Cu  Cu14  1  0.25000000  0.84238000  0.50000000  1
  Cu  Cu15  1  0.75000000  0.65762000  0.50000000  1
  C  C16  1  0.00000000  0.25000000  0.63882000  1
  C  C17  1  0.00000000  0.75000000  0.86118000  1
  C  C18  1  0.50000000  0.75000000  0.63882000  1
  C  C19  1  0.50000000  0.25000000  0.86118000  1
  C  C20  1  0.50000000  0.75000000  0.13882000  1
  C  C21  1  0.50000000  0.25000000  0.36118000  1
  C  C22  1  0.00000000  0.25000000  0.13882000  1
  C  C23  1  0.00000000  0.75000000  0.36118000  1
  O  O24  1  0.18606950  0.34807350  0.60554150  1
  O  O25  1  0.00000000  0.25000000  0.71533500  1
  O  O26  1  0.81393050  0.15192650  0.60554150  1
  O  O27  1  0.81393050  0.84807350  0.89445850  1
  O  O28  1  0.31393050  0.84807350  0.60554150  1
  O  O29  1  0.00000000  0.75000000  0.78466500  1
  O  O30  1  0.50000000  0.75000000  0.71533500  1
  O  O31  1  0.18606950  0.65192650  0.89445850  1
  O  O32  1  0.68606950  0.65192650  0.60554150  1
  O  O33  1  0.68606950  0.34807350  0.89445850  1
  O  O34  1  0.50000000  0.25000000  0.78466500  1
  O  O35  1  0.31393050  0.15192650  0.89445850  1
  O  O36  1  0.68606950  0.84807350  0.10554150  1
  O  O37  1  0.50000000  0.75000000  0.21533500  1
  O  O38  1  0.31393050  0.65192650  0.10554150  1
  O  O39  1  0.31393050  0.34807350  0.39445850  1
  O  O40  1  0.81393050  0.34807350  0.10554150  1
  O  O41  1  0.50000000  0.25000000  0.28466500  1
  O  O42  1  0.00000000  0.25000000  0.21533500  1
  O  O43  1  0.68606950  0.15192650  0.39445850  1
  O  O44  1  0.18606950  0.15192650  0.10554150  1
  O  O45  1  0.18606950  0.84807350  0.39445850  1
  O  O46  1  0.00000000  0.75000000  0.28466500  1
  O  O47  1  0.81393050  0.65192650  0.39445850  1
