# generated using pymatgen
data_Li2Cu4S3
_symmetry_space_group_name_H-M   'P 1'
_cell_length_a   11.26024000
_cell_length_b   9.28899200
_cell_length_c   6.04105662
_cell_angle_alpha   90.00000000
_cell_angle_beta   118.18657092
_cell_angle_gamma   90.00000000
_symmetry_Int_Tables_number   1
_chemical_formula_structural   Li2Cu4S3
_chemical_formula_sum   'Li8 Cu16 S12'
_cell_volume   556.94098417
_cell_formula_units_Z   4
loop_
 _symmetry_equiv_pos_site_id
 _symmetry_equiv_pos_as_xyz
  1  'x, y, z'
loop_
 _atom_site_type_symbol
 _atom_site_label
 _atom_site_symmetry_multiplicity
 _atom_site_fract_x
 _atom_site_fract_y
 _atom_site_fract_z
 _atom_site_occupancy
  Li  Li0  1  0.15984950  0.56320950  0.66718600  1
  Li  Li1  1  0.15984950  0.43679050  0.16718600  1
  Li  Li2  1  0.84015050  0.56320950  0.83281400  1
  Li  Li3  1  0.84015050  0.43679050  0.33281400  1
  Li  Li4  1  0.65984950  0.06320950  0.66718600  1
  Li  Li5  1  0.65984950  0.93679050  0.16718600  1
  Li  Li6  1  0.34015050  0.06320950  0.83281400  1
  Li  Li7  1  0.34015050  0.93679050  0.33281400  1
  Cu  Cu8  1  0.14590650  0.73383950  0.11547000  1
  Cu  Cu9  1  0.14590650  0.26616050  0.61547000  1
  Cu  Cu10  1  0.11864850  0.13276150  0.96571500  1
  Cu  Cu11  1  0.11864850  0.86723850  0.46571500  1
  Cu  Cu12  1  0.88135150  0.13276150  0.53428500  1
  Cu  Cu13  1  0.88135150  0.86723850  0.03428500  1
  Cu  Cu14  1  0.85409350  0.73383950  0.38453000  1
  Cu  Cu15  1  0.85409350  0.26616050  0.88453000  1
  Cu  Cu16  1  0.64590650  0.23383950  0.11547000  1
  Cu  Cu17  1  0.64590650  0.76616050  0.61547000  1
  Cu  Cu18  1  0.61864850  0.63276150  0.96571500  1
  Cu  Cu19  1  0.61864850  0.36723850  0.46571500  1
  Cu  Cu20  1  0.38135150  0.63276150  0.53428500  1
  Cu  Cu21  1  0.38135150  0.36723850  0.03428500  1
  Cu  Cu22  1  0.35409350  0.23383950  0.38453000  1
  Cu  Cu23  1  0.35409350  0.76616050  0.88453000  1
  S  S24  1  0.67906150  0.40932850  0.88310500  1
  S  S25  1  0.67906150  0.59067150  0.38310500  1
  S  S26  1  0.00000000  0.33997100  0.75000000  1
  S  S27  1  0.00000000  0.66002900  0.25000000  1
  S  S28  1  0.32093850  0.40932850  0.61689500  1
  S  S29  1  0.32093850  0.59067150  0.11689500  1
  S  S30  1  0.17906150  0.90932850  0.88310500  1
  S  S31  1  0.17906150  0.09067150  0.38310500  1
  S  S32  1  0.50000000  0.83997100  0.75000000  1
  S  S33  1  0.50000000  0.16002900  0.25000000  1
  S  S34  1  0.82093850  0.90932850  0.61689500  1
  S  S35  1  0.82093850  0.09067150  0.11689500  1
