# generated using pymatgen
data_Li8ZrO6
_symmetry_space_group_name_H-M   'P 1'
_cell_length_a   5.53737740
_cell_length_b   5.53737740
_cell_length_c   15.64976421
_cell_angle_alpha   90.00000000
_cell_angle_beta   90.00000000
_cell_angle_gamma   120.00000000
_symmetry_Int_Tables_number   1
_chemical_formula_structural   Li8ZrO6
_chemical_formula_sum   'Li24 Zr3 O18'
_cell_volume   415.57238174
_cell_formula_units_Z   3
loop_
 _symmetry_equiv_pos_site_id
 _symmetry_equiv_pos_as_xyz
  1  'x, y, z'
loop_
 _atom_site_type_symbol
 _atom_site_label
 _atom_site_symmetry_multiplicity
 _atom_site_fract_x
 _atom_site_fract_y
 _atom_site_fract_z
 _atom_site_occupancy
  Li  Li0  1  0.68486433  0.70645867  0.21178967  1
  Li  Li1  1  0.37312533  0.35492767  0.12154367  1
  Li  Li2  1  0.64507233  0.01819767  0.12154367  1
  Li  Li3  1  0.33333333  0.66666667  0.32177167  1
  Li  Li4  1  0.33333333  0.66666667  0.01156167  1
  Li  Li5  1  0.02159433  0.31513567  0.21178967  1
  Li  Li6  1  0.29354133  0.97840567  0.21178967  1
  Li  Li7  1  0.98180233  0.62687467  0.12154367  1
  Li  Li8  1  0.35153100  0.03979200  0.54512300  1
  Li  Li9  1  0.03979200  0.68826100  0.45487700  1
  Li  Li10  1  0.31173900  0.35153100  0.45487700  1
  Li  Li11  1  0.00000000  0.00000000  0.65510500  1
  Li  Li12  1  0.00000000  0.00000000  0.34489500  1
  Li  Li13  1  0.68826100  0.64846900  0.54512300  1
  Li  Li14  1  0.96020800  0.31173900  0.54512300  1
  Li  Li15  1  0.64846900  0.96020800  0.45487700  1
  Li  Li16  1  0.01819767  0.37312533  0.87845633  1
  Li  Li17  1  0.70645867  0.02159433  0.78821033  1
  Li  Li18  1  0.97840567  0.68486433  0.78821033  1
  Li  Li19  1  0.66666667  0.33333333  0.98843833  1
  Li  Li20  1  0.66666667  0.33333333  0.67822833  1
  Li  Li21  1  0.35492767  0.98180233  0.87845633  1
  Li  Li22  1  0.62687467  0.64507233  0.87845633  1
  Li  Li23  1  0.31513567  0.29354133  0.78821033  1
  Zr  Zr24  1  0.00000000  0.00000000  0.00000000  1
  Zr  Zr25  1  0.66666667  0.33333333  0.33333333  1
  Zr  Zr26  1  0.33333333  0.66666667  0.66666667  1
  O  O27  1  0.68301033  0.69416967  0.08142167  1
  O  O28  1  0.36083633  0.34449267  0.25191167  1
  O  O29  1  0.65550733  0.01634367  0.25191167  1
  O  O30  1  0.01115933  0.31698967  0.08142167  1
  O  O31  1  0.30583033  0.98884067  0.08142167  1
  O  O32  1  0.98365633  0.63916367  0.25191167  1
  O  O33  1  0.34967700  0.02750300  0.41475500  1
  O  O34  1  0.02750300  0.67782600  0.58524500  1
  O  O35  1  0.32217400  0.34967700  0.58524500  1
  O  O36  1  0.67782600  0.65032300  0.41475500  1
  O  O37  1  0.97249700  0.32217400  0.41475500  1
  O  O38  1  0.65032300  0.97249700  0.58524500  1
  O  O39  1  0.01634367  0.36083633  0.74808833  1
  O  O40  1  0.69416967  0.01115933  0.91857833  1
  O  O41  1  0.98884067  0.68301033  0.91857833  1
  O  O42  1  0.34449267  0.98365633  0.74808833  1
  O  O43  1  0.63916367  0.65550733  0.74808833  1
  O  O44  1  0.31698967  0.30583033  0.91857833  1
