# generated using pymatgen
data_SrH3C3O7
_symmetry_space_group_name_H-M   'P 1'
_cell_length_a   5.80551900
_cell_length_b   17.04841100
_cell_length_c   8.06929771
_cell_angle_alpha   90.00000000
_cell_angle_beta   127.98065914
_cell_angle_gamma   90.00000000
_symmetry_Int_Tables_number   1
_chemical_formula_structural   SrH3C3O7
_chemical_formula_sum   'Sr4 H12 C12 O28'
_cell_volume   629.51681922
_cell_formula_units_Z   4
loop_
 _symmetry_equiv_pos_site_id
 _symmetry_equiv_pos_as_xyz
  1  'x, y, z'
loop_
 _atom_site_type_symbol
 _atom_site_label
 _atom_site_symmetry_multiplicity
 _atom_site_fract_x
 _atom_site_fract_y
 _atom_site_fract_z
 _atom_site_occupancy
  Sr  Sr0  1  0.85680000  0.91848100  0.62103500  1
  Sr  Sr1  1  0.85680000  0.58151900  0.12103500  1
  Sr  Sr2  1  0.14320000  0.08151900  0.37896500  1
  Sr  Sr3  1  0.14320000  0.41848100  0.87896500  1
  H  H4  1  0.24382400  0.56926300  0.71847500  1
  H  H5  1  0.24382400  0.93073700  0.21847500  1
  H  H6  1  0.75617600  0.43073700  0.28152500  1
  H  H7  1  0.75617600  0.06926300  0.78152500  1
  H  H8  1  0.17251900  0.60397500  0.87120900  1
  H  H9  1  0.17251900  0.89602500  0.37120900  1
  H  H10  1  0.82748100  0.39602500  0.12879100  1
  H  H11  1  0.82748100  0.10397500  0.62879100  1
  H  H12  1  0.35622800  0.74584100  0.35516800  1
  H  H13  1  0.35622800  0.75415900  0.85516800  1
  H  H14  1  0.64377200  0.25415900  0.64483200  1
  H  H15  1  0.64377200  0.24584100  0.14483200  1
  C  C16  1  0.94558800  0.73811500  0.87045900  1
  C  C17  1  0.94558800  0.76188500  0.37045900  1
  C  C18  1  0.05441200  0.26188500  0.12954100  1
  C  C19  1  0.05441200  0.23811500  0.62954100  1
  C  C20  1  0.50939500  0.01781000  0.91479500  1
  C  C21  1  0.50939500  0.48219000  0.41479500  1
  C  C22  1  0.49060500  0.98219000  0.08520500  1
  C  C23  1  0.49060500  0.51781000  0.58520500  1
  C  C24  1  0.68813800  0.77917600  0.84866200  1
  C  C25  1  0.68813800  0.72082400  0.34866200  1
  C  C26  1  0.31186200  0.22082400  0.15133800  1
  C  C27  1  0.31186200  0.27917600  0.65133800  1
  O  O28  1  0.54137400  0.73049400  0.88053400  1
  O  O29  1  0.54137400  0.76950600  0.38053400  1
  O  O30  1  0.45862600  0.26950600  0.11946600  1
  O  O31  1  0.45862600  0.23049400  0.61946600  1
  O  O32  1  0.07935400  0.78103200  0.82519600  1
  O  O33  1  0.07935400  0.71896800  0.32519600  1
  O  O34  1  0.92064600  0.21896800  0.17480400  1
  O  O35  1  0.92064600  0.28103200  0.67480400  1
  O  O36  1  0.71409100  0.06405700  0.64134500  1
  O  O37  1  0.71409100  0.43594300  0.14134500  1
  O  O38  1  0.28590900  0.93594300  0.35865500  1
  O  O39  1  0.28590900  0.56405700  0.85865500  1
  O  O40  1  0.29289700  0.00783800  0.72338800  1
  O  O41  1  0.29289700  0.49216200  0.22338800  1
  O  O42  1  0.70710300  0.99216200  0.27661200  1
  O  O43  1  0.70710300  0.50783800  0.77661200  1
  O  O44  1  0.99562300  0.66731900  0.92566000  1
  O  O45  1  0.99562300  0.83268100  0.42566000  1
  O  O46  1  0.00437700  0.33268100  0.07434000  1
  O  O47  1  0.00437700  0.16731900  0.57434000  1
  O  O48  1  0.74254200  0.05460300  0.98257100  1
  O  O49  1  0.74254200  0.44539700  0.48257100  1
  O  O50  1  0.25745800  0.94539700  0.01742900  1
  O  O51  1  0.25745800  0.55460300  0.51742900  1
  O  O52  1  0.63239200  0.84919500  0.80314600  1
  O  O53  1  0.63239200  0.65080500  0.30314600  1
  O  O54  1  0.36760800  0.15080500  0.19685400  1
  O  O55  1  0.36760800  0.34919500  0.69685400  1
