# generated using pymatgen
data_Zr2N2O
_symmetry_space_group_name_H-M   'P 1'
_cell_length_a   13.01701000
_cell_length_b   3.50637800
_cell_length_c   12.15906667
_cell_angle_alpha   90.00000000
_cell_angle_beta   117.69836917
_cell_angle_gamma   90.00000000
_symmetry_Int_Tables_number   1
_chemical_formula_structural   Zr2N2O
_chemical_formula_sum   'Zr16 N16 O8'
_cell_volume   491.37503966
_cell_formula_units_Z   8
loop_
 _symmetry_equiv_pos_site_id
 _symmetry_equiv_pos_as_xyz
  1  'x, y, z'
loop_
 _atom_site_type_symbol
 _atom_site_label
 _atom_site_symmetry_multiplicity
 _atom_site_fract_x
 _atom_site_fract_y
 _atom_site_fract_z
 _atom_site_occupancy
  Zr  Zr0  1  0.86859000  0.50000000  0.34950200  1
  Zr  Zr1  1  0.88101900  0.00000000  0.60715800  1
  Zr  Zr2  1  0.63125700  0.00000000  0.14979500  1
  Zr  Zr3  1  0.87660100  0.00000000  0.09968400  1
  Zr  Zr4  1  0.12494900  0.00000000  0.40343000  1
  Zr  Zr5  1  0.12329900  0.00000000  0.88791000  1
  Zr  Zr6  1  0.37743400  0.00000000  0.86200700  1
  Zr  Zr7  1  0.12332600  0.50000000  0.64391100  1
  Zr  Zr8  1  0.36859000  0.00000000  0.34950200  1
  Zr  Zr9  1  0.38101900  0.50000000  0.60715800  1
  Zr  Zr10  1  0.13125700  0.50000000  0.14979500  1
  Zr  Zr11  1  0.37660100  0.50000000  0.09968400  1
  Zr  Zr12  1  0.62494900  0.50000000  0.40343000  1
  Zr  Zr13  1  0.62329900  0.50000000  0.88791000  1
  Zr  Zr14  1  0.87743400  0.50000000  0.86200700  1
  Zr  Zr15  1  0.62332600  0.00000000  0.64391100  1
  N  N16  1  0.18465200  0.50000000  0.50883800  1
  N  N17  1  0.18263000  0.00000000  0.75546100  1
  N  N18  1  0.31786700  0.00000000  0.99645600  1
  N  N19  1  0.82209200  0.00000000  0.23897600  1
  N  N20  1  0.99467200  0.00000000  0.49985700  1
  N  N21  1  0.67492900  0.50000000  0.25950400  1
  N  N22  1  0.99720300  0.50000000  0.74683600  1
  N  N23  1  0.49676400  0.50000000  0.99565400  1
  N  N24  1  0.68465200  0.00000000  0.50883800  1
  N  N25  1  0.68263000  0.50000000  0.75546100  1
  N  N26  1  0.81786700  0.50000000  0.99645600  1
  N  N27  1  0.32209200  0.50000000  0.23897600  1
  N  N28  1  0.49467200  0.50000000  0.49985700  1
  N  N29  1  0.17492900  0.00000000  0.25950400  1
  N  N30  1  0.49720300  0.00000000  0.74683600  1
  N  N31  1  0.99676400  0.00000000  0.99565400  1
  O  O32  1  0.32469000  0.50000000  0.74581600  1
  O  O33  1  0.00010100  0.50000000  0.25224100  1
  O  O34  1  0.67461300  0.00000000  0.00098400  1
  O  O35  1  0.82254700  0.50000000  0.49597800  1
  O  O36  1  0.82469000  0.00000000  0.74581600  1
  O  O37  1  0.50010100  0.00000000  0.25224100  1
  O  O38  1  0.17461300  0.50000000  0.00098400  1
  O  O39  1  0.32254700  0.00000000  0.49597800  1
