# generated using pymatgen
data_Li2TiFeO4
_symmetry_space_group_name_H-M   'P 1'
_cell_length_a   5.87377256
_cell_length_b   5.84935322
_cell_length_c   8.93895557
_cell_angle_alpha   90.00000000
_cell_angle_beta   90.06927335
_cell_angle_gamma   90.00000000
_symmetry_Int_Tables_number   1
_chemical_formula_structural   Li2TiFeO4
_chemical_formula_sum   'Li8 Ti4 Fe4 O16'
_cell_volume   307.12235902
_cell_formula_units_Z   4
loop_
 _symmetry_equiv_pos_site_id
 _symmetry_equiv_pos_as_xyz
  1  'x, y, z'
loop_
 _atom_site_type_symbol
 _atom_site_label
 _atom_site_symmetry_multiplicity
 _atom_site_fract_x
 _atom_site_fract_y
 _atom_site_fract_z
 _atom_site_occupancy
  Li  Li0  1  0.50578150  0.99423150  0.24986100  1
  Li  Li1  1  0.00578150  0.50576850  0.74986100  1
  Li  Li2  1  0.24627650  0.75079650  0.03227350  1
  Li  Li3  1  0.74627650  0.74920350  0.53227350  1
  Li  Li4  1  0.00578150  0.49423150  0.24986100  1
  Li  Li5  1  0.50578150  0.00576850  0.74986100  1
  Li  Li6  1  0.74627650  0.25079650  0.03227350  1
  Li  Li7  1  0.24627650  0.24920350  0.53227350  1
  Ti  Ti8  1  0.72164550  0.75959950  0.99213250  1
  Ti  Ti9  1  0.22164550  0.74040050  0.49213250  1
  Ti  Ti10  1  0.22164550  0.25959950  0.99213250  1
  Ti  Ti11  1  0.72164550  0.24040050  0.49213250  1
  Fe  Fe12  1  0.50812600  0.49401150  0.25256200  1
  Fe  Fe13  1  0.50812600  0.50598850  0.75256200  1
  Fe  Fe14  1  0.00812600  0.99401150  0.25256200  1
  Fe  Fe15  1  0.00812600  0.00598850  0.75256200  1
  O  O16  1  0.51158750  0.98915200  0.99382600  1
  O  O17  1  0.01158750  0.51084800  0.49382600  1
  O  O18  1  0.76223750  0.74476200  0.20833250  1
  O  O19  1  0.26223750  0.75523800  0.70833250  1
  O  O20  1  0.26209550  0.74664300  0.27447950  1
  O  O21  1  0.76209550  0.75335700  0.77447950  1
  O  O22  1  0.50680050  0.50235800  0.99723800  1
  O  O23  1  0.00680050  0.99764200  0.49723800  1
  O  O24  1  0.01158750  0.48915200  0.99382600  1
  O  O25  1  0.51158750  0.01084800  0.49382600  1
  O  O26  1  0.26223750  0.24476200  0.20833250  1
  O  O27  1  0.76223750  0.25523800  0.70833250  1
  O  O28  1  0.76209550  0.24664300  0.27447950  1
  O  O29  1  0.26209550  0.25335700  0.77447950  1
  O  O30  1  0.00680050  0.00235800  0.99723800  1
  O  O31  1  0.50680050  0.49764200  0.49723800  1
