# generated using pymatgen
data_LiMnVO4
_symmetry_space_group_name_H-M   'P 1'
_cell_length_a   4.99937300
_cell_length_b   6.27652900
_cell_length_c   10.79546301
_cell_angle_alpha   90.00000000
_cell_angle_beta   90.00000000
_cell_angle_gamma   90.00000000
_symmetry_Int_Tables_number   1
_chemical_formula_structural   LiMnVO4
_chemical_formula_sum   'Li4 Mn4 V4 O16'
_cell_volume   338.74769911
_cell_formula_units_Z   4
loop_
 _symmetry_equiv_pos_site_id
 _symmetry_equiv_pos_as_xyz
  1  'x, y, z'
loop_
 _atom_site_type_symbol
 _atom_site_label
 _atom_site_symmetry_multiplicity
 _atom_site_fract_x
 _atom_site_fract_y
 _atom_site_fract_z
 _atom_site_occupancy
  Li  Li0  1  0.00000000  0.00000000  0.50000000  1
  Li  Li1  1  0.50000000  0.00000000  0.00000000  1
  Li  Li2  1  0.00000000  0.50000000  0.50000000  1
  Li  Li3  1  0.50000000  0.50000000  0.00000000  1
  Mn  Mn4  1  0.51545500  0.25000000  0.72669350  1
  Mn  Mn5  1  0.48454500  0.75000000  0.27330650  1
  Mn  Mn6  1  0.98454500  0.25000000  0.22669350  1
  Mn  Mn7  1  0.01545500  0.75000000  0.77330650  1
  V  V8  1  0.07524500  0.25000000  0.90905050  1
  V  V9  1  0.92475500  0.75000000  0.09094950  1
  V  V10  1  0.42475500  0.25000000  0.40905050  1
  V  V11  1  0.57524500  0.75000000  0.59094950  1
  O  O12  1  0.21166100  0.25000000  0.05721450  1
  O  O13  1  0.28833900  0.25000000  0.55721450  1
  O  O14  1  0.78833900  0.75000000  0.94278550  1
  O  O15  1  0.71166100  0.75000000  0.44278550  1
  O  O16  1  0.77311900  0.25000000  0.40588550  1
  O  O17  1  0.72688100  0.25000000  0.90588550  1
  O  O18  1  0.27311900  0.75000000  0.09411450  1
  O  O19  1  0.22688100  0.75000000  0.59411450  1
  O  O20  1  0.27727500  0.03004550  0.33510050  1
  O  O21  1  0.22272500  0.03004550  0.83510050  1
  O  O22  1  0.27727500  0.46995450  0.33510050  1
  O  O23  1  0.22272500  0.46995450  0.83510050  1
  O  O24  1  0.72272500  0.53004550  0.66489950  1
  O  O25  1  0.77727500  0.53004550  0.16489950  1
  O  O26  1  0.77727500  0.96995450  0.16489950  1
  O  O27  1  0.72272500  0.96995450  0.66489950  1
