# generated using pymatgen
data_Li2Fe3F8
_symmetry_space_group_name_H-M   'P 1'
_cell_length_a   6.16837175
_cell_length_b   6.16837175
_cell_length_c   15.34781018
_cell_angle_alpha   90.00000000
_cell_angle_beta   90.00000000
_cell_angle_gamma   120.00000000
_symmetry_Int_Tables_number   1
_chemical_formula_structural   Li2Fe3F8
_chemical_formula_sum   'Li6 Fe9 F24'
_cell_volume   505.72931730
_cell_formula_units_Z   3
loop_
 _symmetry_equiv_pos_site_id
 _symmetry_equiv_pos_as_xyz
  1  'x, y, z'
loop_
 _atom_site_type_symbol
 _atom_site_label
 _atom_site_symmetry_multiplicity
 _atom_site_fract_x
 _atom_site_fract_y
 _atom_site_fract_z
 _atom_site_occupancy
  Li  Li0  1  0.00000000  0.00000000  0.13298500  1
  Li  Li1  1  0.66666667  0.33333333  0.20034833  1
  Li  Li2  1  0.66666667  0.33333333  0.46631833  1
  Li  Li3  1  0.33333333  0.66666667  0.53368167  1
  Li  Li4  1  0.33333333  0.66666667  0.79965167  1
  Li  Li5  1  0.00000000  0.00000000  0.86701500  1
  Fe  Fe6  1  0.50000000  0.50000000  0.00000000  1
  Fe  Fe7  1  0.50000000  0.00000000  0.00000000  1
  Fe  Fe8  1  0.00000000  0.50000000  0.00000000  1
  Fe  Fe9  1  0.16666667  0.83333333  0.33333333  1
  Fe  Fe10  1  0.16666667  0.33333333  0.33333333  1
  Fe  Fe11  1  0.66666667  0.83333333  0.33333333  1
  Fe  Fe12  1  0.83333333  0.16666667  0.66666667  1
  Fe  Fe13  1  0.83333333  0.66666667  0.66666667  1
  Fe  Fe14  1  0.33333333  0.16666667  0.66666667  1
  F  F15  1  0.31439533  0.15719767  0.25560567  1
  F  F16  1  0.84280233  0.68560467  0.25560567  1
  F  F17  1  0.84280233  0.15719767  0.25560567  1
  F  F18  1  0.33333333  0.66666667  0.26271267  1
  F  F19  1  0.33333333  0.66666667  0.07062067  1
  F  F20  1  0.82386433  0.17613567  0.07772767  1
  F  F21  1  0.82386433  0.64772867  0.07772767  1
  F  F22  1  0.35227133  0.17613567  0.07772767  1
  F  F23  1  0.98106200  0.49053100  0.58893900  1
  F  F24  1  0.50946900  0.01893800  0.58893900  1
  F  F25  1  0.50946900  0.49053100  0.58893900  1
  F  F26  1  0.00000000  0.00000000  0.59604600  1
  F  F27  1  0.00000000  0.00000000  0.40395400  1
  F  F28  1  0.49053100  0.50946900  0.41106100  1
  F  F29  1  0.49053100  0.98106200  0.41106100  1
  F  F30  1  0.01893800  0.50946900  0.41106100  1
  F  F31  1  0.64772867  0.82386433  0.92227233  1
  F  F32  1  0.17613567  0.35227133  0.92227233  1
  F  F33  1  0.17613567  0.82386433  0.92227233  1
  F  F34  1  0.66666667  0.33333333  0.92937933  1
  F  F35  1  0.66666667  0.33333333  0.73728733  1
  F  F36  1  0.15719767  0.84280233  0.74439433  1
  F  F37  1  0.15719767  0.31439533  0.74439433  1
  F  F38  1  0.68560467  0.84280233  0.74439433  1
