# generated using pymatgen
data_LiFeF3
_symmetry_space_group_name_H-M   'P 1'
_cell_length_a   14.59344759
_cell_length_b   14.59344759
_cell_length_c   7.76376886
_cell_angle_alpha   90.00000000
_cell_angle_beta   90.00000000
_cell_angle_gamma   120.00000000
_symmetry_Int_Tables_number   1
_chemical_formula_structural   LiFeF3
_chemical_formula_sum   'Li18 Fe18 F54'
_cell_volume   1431.92092113
_cell_formula_units_Z   18
loop_
 _symmetry_equiv_pos_site_id
 _symmetry_equiv_pos_as_xyz
  1  'x, y, z'
loop_
 _atom_site_type_symbol
 _atom_site_label
 _atom_site_symmetry_multiplicity
 _atom_site_fract_x
 _atom_site_fract_y
 _atom_site_fract_z
 _atom_site_occupancy
  Li  Li0  1  0.15938733  0.98335467  0.89782667  1
  Li  Li1  1  0.17603267  0.15938733  0.10217333  1
  Li  Li2  1  0.31668800  0.49063400  0.76884000  1
  Li  Li3  1  0.34997867  0.84269933  0.56449333  1
  Li  Li4  1  0.49063400  0.17394600  0.23116000  1
  Li  Li5  1  0.50727933  0.34997867  0.43550667  1
  Li  Li6  1  0.82605400  0.31668800  0.23116000  1
  Li  Li7  1  0.84269933  0.49272067  0.43550667  1
  Li  Li8  1  0.98335467  0.82396733  0.10217333  1
  Li  Li9  1  0.01664533  0.17603267  0.89782667  1
  Li  Li10  1  0.15730067  0.50727933  0.56449333  1
  Li  Li11  1  0.17394600  0.68331200  0.76884000  1
  Li  Li12  1  0.49272067  0.65002133  0.56449333  1
  Li  Li13  1  0.50936600  0.82605400  0.76884000  1
  Li  Li14  1  0.65002133  0.15730067  0.43550667  1
  Li  Li15  1  0.68331200  0.50936600  0.23116000  1
  Li  Li16  1  0.82396733  0.84061267  0.89782667  1
  Li  Li17  1  0.84061267  0.01664533  0.10217333  1
  Fe  Fe18  1  0.37999633  0.93489967  0.92470267  1
  Fe  Fe19  1  0.26823300  0.22157000  0.74196400  1
  Fe  Fe20  1  0.44509667  0.37999633  0.07529733  1
  Fe  Fe21  1  0.22157000  0.95333700  0.25803600  1
  Fe  Fe22  1  0.39843367  0.11176333  0.59136933  1
  Fe  Fe23  1  0.28667033  0.39843367  0.40863067  1
  Fe  Fe24  1  0.04666300  0.26823300  0.25803600  1
  Fe  Fe25  1  0.93489967  0.55490333  0.07529733  1
  Fe  Fe26  1  0.11176333  0.71332967  0.40863067  1
  Fe  Fe27  1  0.88823667  0.28667033  0.59136933  1
  Fe  Fe28  1  0.06510033  0.44509667  0.92470267  1
  Fe  Fe29  1  0.95333700  0.73176700  0.74196400  1
  Fe  Fe30  1  0.71332967  0.60156633  0.59136933  1
  Fe  Fe31  1  0.60156633  0.88823667  0.40863067  1
  Fe  Fe32  1  0.77843000  0.04666300  0.74196400  1
  Fe  Fe33  1  0.55490333  0.62000367  0.92470267  1
  Fe  Fe34  1  0.73176700  0.77843000  0.25803600  1
  Fe  Fe35  1  0.62000367  0.06510033  0.07529733  1
  F  F36  1  0.35530833  0.53950367  0.52759767  1
  F  F37  1  0.41572700  0.99016100  0.67092000  1
  F  F38  1  0.14913800  0.02197500  0.13906900  1
  F  F39  1  0.26606767  0.07433333  0.73230733  1
  F  F40  1  0.19173433  0.26606767  0.26769267  1
  F  F41  1  0.32349433  0.24110067  0.99574667  1
  F  F42  1  0.42556600  0.41572700  0.32908000  1
  F  F43  1  0.53950367  0.18419533  0.47240233  1
  F  F44  1  0.40766667  0.47493233  0.93435933  1
  F  F45  1  0.25900000  0.85840100  0.39897400  1
  F  F46  1  0.12716300  0.14913800  0.86093100  1
  F  F47  1  0.24110067  0.91760633  0.00425333  1
  F  F48  1  0.34317233  0.09223267  0.33758667  1
  F  F49  1  0.47493233  0.06726567  0.06564067  1
  F  F50  1  0.40059900  0.25900000  0.60102600  1
  F  F51  1  0.51752867  0.31135833  0.19426433  1
  F  F52  1  0.25093967  0.34317233  0.66241333  1
  F  F53  1  0.31135833  0.79382967  0.80573567  1
  F  F54  1  0.02197500  0.87283700  0.86093100  1
  F  F55  1  0.08239367  0.32349433  0.00425333  1
  F  F56  1  0.81580467  0.35530833  0.47240233  1
  F  F57  1  0.93273433  0.40766667  0.06564067  1
  F  F58  1  0.85840100  0.59940100  0.60102600  1
  F  F59  1  0.99016100  0.57443400  0.32908000  1
  F  F60  1  0.09223267  0.74906033  0.66241333  1
  F  F61  1  0.20617033  0.51752867  0.80573567  1
  F  F62  1  0.07433333  0.80826567  0.26769267  1
  F  F63  1  0.92566667  0.19173433  0.73230733  1
  F  F64  1  0.79382967  0.48247133  0.19426433  1
  F  F65  1  0.90776733  0.25093967  0.33758667  1
  F  F66  1  0.00983900  0.42556600  0.67092000  1
  F  F67  1  0.14159900  0.40059900  0.39897400  1
  F  F68  1  0.06726567  0.59233333  0.93435933  1
  F  F69  1  0.18419533  0.64469167  0.52759767  1
  F  F70  1  0.91760633  0.67650567  0.99574667  1
  F  F71  1  0.97802500  0.12716300  0.13906900  1
  F  F72  1  0.68864167  0.20617033  0.19426433  1
  F  F73  1  0.74906033  0.65682767  0.33758667  1
  F  F74  1  0.48247133  0.68864167  0.80573567  1
  F  F75  1  0.59940100  0.74100000  0.39897400  1
  F  F76  1  0.52506767  0.93273433  0.93435933  1
  F  F77  1  0.65682767  0.90776733  0.66241333  1
  F  F78  1  0.75889933  0.08239367  0.99574667  1
  F  F79  1  0.87283700  0.85086200  0.13906900  1
  F  F80  1  0.74100000  0.14159900  0.60102600  1
  F  F81  1  0.59233333  0.52506767  0.06564067  1
  F  F82  1  0.46049633  0.81580467  0.52759767  1
  F  F83  1  0.57443400  0.58427300  0.67092000  1
  F  F84  1  0.67650567  0.75889933  0.00425333  1
  F  F85  1  0.80826567  0.73393233  0.73230733  1
  F  F86  1  0.73393233  0.92566667  0.26769267  1
  F  F87  1  0.85086200  0.97802500  0.86093100  1
  F  F88  1  0.58427300  0.00983900  0.32908000  1
  F  F89  1  0.64469167  0.46049633  0.47240233  1
