# generated using pymatgen
data_NdAl11O18
_symmetry_space_group_name_H-M   'P 1'
_cell_length_a   5.60902526
_cell_length_b   5.63921016
_cell_length_c   11.49493475
_cell_angle_alpha   102.91604939
_cell_angle_beta   90.08964244
_cell_angle_gamma   118.25582622
_symmetry_Int_Tables_number   1
_chemical_formula_structural   NdAl11O18
_chemical_formula_sum   'Nd1 Al11 O18'
_cell_volume   309.71132824
_cell_formula_units_Z   1
loop_
 _symmetry_equiv_pos_site_id
 _symmetry_equiv_pos_as_xyz
  1  'x, y, z'
loop_
 _atom_site_type_symbol
 _atom_site_label
 _atom_site_symmetry_multiplicity
 _atom_site_fract_x
 _atom_site_fract_y
 _atom_site_fract_z
 _atom_site_occupancy
  Nd  Nd0  1  0.00000000  0.00000000  0.50000000  1
  Al  Al1  1  0.39766360  0.09347449  0.21782426  1
  Al  Al2  1  0.00000000  0.00000000  0.00000000  1
  Al  Al3  1  0.89663507  0.58670800  0.22501206  1
  Al  Al4  1  0.89055796  0.09677527  0.20731149  1
  Al  Al5  1  0.64816115  0.35394972  0.94339170  1
  Al  Al6  1  0.54733918  0.45790126  0.62683961  1
  Al  Al7  1  0.45266082  0.54209874  0.37316039  1
  Al  Al8  1  0.35183885  0.64605028  0.05660830  1
  Al  Al9  1  0.10944204  0.90322473  0.79268851  1
  Al  Al10  1  0.10336493  0.41329200  0.77498794  1
  Al  Al11  1  0.60233640  0.90652551  0.78217574  1
  O  O12  1  0.69151165  0.29084262  0.10807944  1
  O  O13  1  0.91602006  0.10058697  0.70561528  1
  O  O14  1  0.19085847  0.80766715  0.10797208  1
  O  O15  1  0.27991598  0.18594031  0.89663556  1
  O  O16  1  0.42762891  0.60407992  0.71300009  1
  O  O17  1  0.08137864  0.37955791  0.29202513  1
  O  O18  1  0.72915378  0.55508057  0.49646604  1
  O  O19  1  0.82112293  0.72601678  0.90258374  1
  O  O20  1  0.60182509  0.90889064  0.30504263  1
  O  O21  1  0.39817491  0.09110936  0.69495737  1
  O  O22  1  0.17887707  0.27398322  0.09741626  1
  O  O23  1  0.27084622  0.44491943  0.50353396  1
  O  O24  1  0.91862136  0.62044209  0.70797487  1
  O  O25  1  0.57237109  0.39592008  0.28699991  1
  O  O26  1  0.72008402  0.81405969  0.10336444  1
  O  O27  1  0.80914153  0.19233285  0.89202792  1
  O  O28  1  0.30848835  0.70915738  0.89192056  1
  O  O29  1  0.08397994  0.89941303  0.29438472  1
