# generated using pymatgen
data_TiNi3Sb2(PO4)6
_symmetry_space_group_name_H-M   'P 1'
_cell_length_a   8.72085386
_cell_length_b   8.72085386
_cell_length_c   21.18629187
_cell_angle_alpha   90.00000000
_cell_angle_beta   90.00000000
_cell_angle_gamma   120.00000000
_symmetry_Int_Tables_number   1
_chemical_formula_structural   TiNi3Sb2(PO4)6
_chemical_formula_sum   'Ti3 Ni9 Sb6 P18 O72'
_cell_volume   1395.41568457
_cell_formula_units_Z   3
loop_
 _symmetry_equiv_pos_site_id
 _symmetry_equiv_pos_as_xyz
  1  'x, y, z'
loop_
 _atom_site_type_symbol
 _atom_site_label
 _atom_site_symmetry_multiplicity
 _atom_site_fract_x
 _atom_site_fract_y
 _atom_site_fract_z
 _atom_site_occupancy
  Ti  Ti0  1  0.33333333  0.66666667  0.52292467  1
  Ti  Ti1  1  0.00000000  0.00000000  0.85625800  1
  Ti  Ti2  1  0.66666667  0.33333333  0.18959133  1
  Ni  Ni3  1  0.33333333  0.66666667  0.81841167  1
  Ni  Ni4  1  0.33333333  0.66666667  0.01464067  1
  Ni  Ni5  1  0.33333333  0.66666667  0.31478167  1
  Ni  Ni6  1  0.00000000  0.00000000  0.15174500  1
  Ni  Ni7  1  0.00000000  0.00000000  0.34797400  1
  Ni  Ni8  1  0.00000000  0.00000000  0.64811500  1
  Ni  Ni9  1  0.66666667  0.33333333  0.48507833  1
  Ni  Ni10  1  0.66666667  0.33333333  0.68130733  1
  Ni  Ni11  1  0.66666667  0.33333333  0.98144833  1
  Sb  Sb12  1  0.33333333  0.66666667  0.67915467  1
  Sb  Sb13  1  0.33333333  0.66666667  0.16859967  1
  Sb  Sb14  1  0.00000000  0.00000000  0.01248800  1
  Sb  Sb15  1  0.00000000  0.00000000  0.50193300  1
  Sb  Sb16  1  0.66666667  0.33333333  0.34582133  1
  Sb  Sb17  1  0.66666667  0.33333333  0.83526633  1
  P  P18  1  0.29406667  0.29414333  0.24638033  1
  P  P19  1  0.70585667  0.99992333  0.24638033  1
  P  P20  1  0.00007667  0.70593333  0.24638033  1
  P  P21  1  0.66398533  0.62382567  0.08492467  1
  P  P22  1  0.95984033  0.33601467  0.08492467  1
  P  P23  1  0.37617433  0.04015967  0.08492467  1
  P  P24  1  0.96073333  0.62747667  0.57971367  1
  P  P25  1  0.37252333  0.33325667  0.57971367  1
  P  P26  1  0.66674333  0.03926667  0.57971367  1
  P  P27  1  0.33065200  0.95715900  0.41825800  1
  P  P28  1  0.62650700  0.66934800  0.41825800  1
  P  P29  1  0.04284100  0.37349300  0.41825800  1
  P  P30  1  0.62740000  0.96081000  0.91304700  1
  P  P31  1  0.03919000  0.66659000  0.91304700  1
  P  P32  1  0.33341000  0.37260000  0.91304700  1
  P  P33  1  0.99731867  0.29049233  0.75159133  1
  P  P34  1  0.29317367  0.00268133  0.75159133  1
  P  P35  1  0.70950767  0.70682633  0.75159133  1
  O  O36  1  0.33507867  0.45977233  0.97493433  1
  O  O37  1  0.54022767  0.87530633  0.97493433  1
  O  O38  1  0.82310100  0.81841600  0.08152100  1
  O  O39  1  0.12469367  0.66492133  0.97493433  1
  O  O40  1  0.34589167  0.85968433  0.47599933  1
  O  O41  1  0.49136467  0.64215733  0.09767533  1
  O  O42  1  0.99531500  0.17689900  0.08152100  1
  O  O43  1  0.15079267  0.50863533  0.09767533  1
  O  O44  1  0.20256000  0.20421900  0.18638900  1
  O  O45  1  0.35784267  0.84920733  0.09767533  1
  O  O46  1  0.48974000  0.33100200  0.24961300  1
  O  O47  1  0.79578100  0.99834100  0.18638900  1
  O  O48  1  0.51379267  0.65410833  0.47599933  1
  O  O49  1  0.18158400  0.00468500  0.08152100  1
  O  O50  1  0.32359333  0.49371067  0.23955767  1
  O  O51  1  0.14031567  0.48620733  0.47599933  1
  O  O52  1  0.50628933  0.82988267  0.23955767  1
  O  O53  1  0.66899800  0.15873800  0.24961300  1
  O  O54  1  0.17011733  0.67640667  0.23955767  1
  O  O55  1  0.00165900  0.79744000  0.18638900  1
  O  O56  1  0.54750400  0.68136600  0.35683500  1
  O  O57  1  0.84126200  0.51026000  0.24961300  1
  O  O58  1  0.13386200  0.45249600  0.35683500  1
  O  O59  1  0.31863400  0.86613800  0.35683500  1
  O  O60  1  0.00174533  0.79310567  0.30826767  1
  O  O61  1  0.20689433  0.20863967  0.30826767  1
  O  O62  1  0.48976767  0.15174933  0.41485433  1
  O  O63  1  0.79136033  0.99825467  0.30826767  1
  O  O64  1  0.01255833  0.19301767  0.80933267  1
  O  O65  1  0.15803133  0.97549067  0.43100867  1
  O  O66  1  0.66198167  0.51023233  0.41485433  1
  O  O67  1  0.81745933  0.84196867  0.43100867  1
  O  O68  1  0.86922667  0.53755233  0.51972233  1
  O  O69  1  0.02450933  0.18254067  0.43100867  1
  O  O70  1  0.15640667  0.66433533  0.58294633  1
  O  O71  1  0.46244767  0.33167433  0.51972233  1
  O  O72  1  0.18045933  0.98744167  0.80933267  1
  O  O73  1  0.84825067  0.33801833  0.41485433  1
  O  O74  1  0.99026000  0.82704400  0.57289100  1
  O  O75  1  0.80698233  0.81954067  0.80933267  1
  O  O76  1  0.17295600  0.16321600  0.57289100  1
  O  O77  1  0.33566467  0.49207133  0.58294633  1
  O  O78  1  0.83678400  0.00974000  0.57289100  1
  O  O79  1  0.66832567  0.13077333  0.51972233  1
  O  O80  1  0.21417067  0.01469933  0.69016833  1
  O  O81  1  0.50792867  0.84359333  0.58294633  1
  O  O82  1  0.80052867  0.78582933  0.69016833  1
  O  O83  1  0.98530067  0.19947133  0.69016833  1
  O  O84  1  0.66841200  0.12643900  0.64160100  1
  O  O85  1  0.87356100  0.54197300  0.64160100  1
  O  O86  1  0.15643433  0.48508267  0.74818767  1
  O  O87  1  0.45802700  0.33158800  0.64160100  1
  O  O88  1  0.67922500  0.52635100  0.14266600  1
  O  O89  1  0.82469800  0.30882400  0.76434200  1
  O  O90  1  0.32864833  0.84356567  0.74818767  1
  O  O91  1  0.48412600  0.17530200  0.76434200  1
  O  O92  1  0.53589333  0.87088567  0.85305567  1
  O  O93  1  0.69117600  0.51587400  0.76434200  1
  O  O94  1  0.82307333  0.99766867  0.91627967  1
  O  O95  1  0.12911433  0.66500767  0.85305567  1
  O  O96  1  0.84712600  0.32077500  0.14266600  1
  O  O97  1  0.51491733  0.67135167  0.74818767  1
  O  O98  1  0.65692667  0.16037733  0.90622433  1
  O  O99  1  0.47364900  0.15287400  0.14266600  1
  O  O100  1  0.83962267  0.49654933  0.90622433  1
  O  O101  1  0.00233133  0.82540467  0.91627967  1
  O  O102  1  0.50345067  0.34307333  0.90622433  1
  O  O103  1  0.33499233  0.46410667  0.85305567  1
  O  O104  1  0.88083733  0.34803267  0.02350167  1
  O  O105  1  0.17459533  0.17692667  0.91627967  1
  O  O106  1  0.46719533  0.11916267  0.02350167  1
  O  O107  1  0.65196733  0.53280467  0.02350167  1
