# generated using pymatgen
data_Lu(BiO2)3
_symmetry_space_group_name_H-M   'P 1'
_cell_length_a   10.12198497
_cell_length_b   10.12198497
_cell_length_c   11.37795827
_cell_angle_alpha   90.00000000
_cell_angle_beta   90.00000000
_cell_angle_gamma   120.00000000
_symmetry_Int_Tables_number   1
_chemical_formula_structural   Lu(BiO2)3
_chemical_formula_sum   'Lu6 Bi18 O36'
_cell_volume   1009.54653907
_cell_formula_units_Z   6
loop_
 _symmetry_equiv_pos_site_id
 _symmetry_equiv_pos_as_xyz
  1  'x, y, z'
loop_
 _atom_site_type_symbol
 _atom_site_label
 _atom_site_symmetry_multiplicity
 _atom_site_fract_x
 _atom_site_fract_y
 _atom_site_fract_z
 _atom_site_occupancy
  Lu  Lu0  1  0.00000000  0.00000000  0.00000000  1
  Lu  Lu1  1  0.00000000  0.00000000  0.50000000  1
  Lu  Lu2  1  0.66666667  0.33333333  0.33333333  1
  Lu  Lu3  1  0.66666667  0.33333333  0.83333333  1
  Lu  Lu4  1  0.33333333  0.66666667  0.66666667  1
  Lu  Lu5  1  0.33333333  0.66666667  0.16666667  1
  Bi  Bi6  1  0.77941400  0.73797200  0.29207900  1
  Bi  Bi7  1  0.95855800  0.22058600  0.29207900  1
  Bi  Bi8  1  0.73797200  0.95855800  0.70792100  1
  Bi  Bi9  1  0.26202800  0.04144200  0.29207900  1
  Bi  Bi10  1  0.04144200  0.77941400  0.70792100  1
  Bi  Bi11  1  0.22058600  0.26202800  0.70792100  1
  Bi  Bi12  1  0.44608067  0.07130533  0.62541233  1
  Bi  Bi13  1  0.62522467  0.55391933  0.62541233  1
  Bi  Bi14  1  0.40463867  0.29189133  0.04125433  1
  Bi  Bi15  1  0.92869467  0.37477533  0.62541233  1
  Bi  Bi16  1  0.70810867  0.11274733  0.04125433  1
  Bi  Bi17  1  0.88725267  0.59536133  0.04125433  1
  Bi  Bi18  1  0.11274733  0.40463867  0.95874567  1
  Bi  Bi19  1  0.29189133  0.88725267  0.95874567  1
  Bi  Bi20  1  0.07130533  0.62522467  0.37458767  1
  Bi  Bi21  1  0.59536133  0.70810867  0.95874567  1
  Bi  Bi22  1  0.37477533  0.44608067  0.37458767  1
  Bi  Bi23  1  0.55391933  0.92869467  0.37458767  1
  O  O24  1  0.50305133  0.86793367  0.56351467  1
  O  O25  1  0.63511767  0.50305133  0.43648533  1
  O  O26  1  0.81897733  0.97248367  0.37497667  1
  O  O27  1  0.86793367  0.36488233  0.43648533  1
  O  O28  1  0.02751633  0.84649367  0.37497667  1
  O  O29  1  0.84649367  0.81897733  0.62502333  1
  O  O30  1  0.15350633  0.18102267  0.37497667  1
  O  O31  1  0.97248367  0.15350633  0.62502333  1
  O  O32  1  0.13206633  0.63511767  0.56351467  1
  O  O33  1  0.18102267  0.02751633  0.62502333  1
  O  O34  1  0.36488233  0.49694867  0.56351467  1
  O  O35  1  0.49694867  0.13206633  0.43648533  1
  O  O36  1  0.16971800  0.20126700  0.89684800  1
  O  O37  1  0.30178433  0.83638467  0.76981867  1
  O  O38  1  0.48564400  0.30581700  0.70831000  1
  O  O39  1  0.53460033  0.69821567  0.76981867  1
  O  O40  1  0.69418300  0.17982700  0.70831000  1
  O  O41  1  0.51316033  0.15231067  0.95835667  1
  O  O42  1  0.82017300  0.51435600  0.70831000  1
  O  O43  1  0.63915033  0.48683967  0.95835667  1
  O  O44  1  0.79873300  0.96845100  0.89684800  1
  O  O45  1  0.84768933  0.36084967  0.95835667  1
  O  O46  1  0.03154900  0.83028200  0.89684800  1
  O  O47  1  0.16361533  0.46539967  0.76981867  1
  O  O48  1  0.83638467  0.53460033  0.23018133  1
  O  O49  1  0.96845100  0.16971800  0.10315200  1
  O  O50  1  0.15231067  0.63915033  0.04164333  1
  O  O51  1  0.20126700  0.03154900  0.10315200  1
  O  O52  1  0.36084967  0.51316033  0.04164333  1
  O  O53  1  0.17982700  0.48564400  0.29169000  1
  O  O54  1  0.48683967  0.84768933  0.04164333  1
  O  O55  1  0.30581700  0.82017300  0.29169000  1
  O  O56  1  0.46539967  0.30178433  0.23018133  1
  O  O57  1  0.51435600  0.69418300  0.29169000  1
  O  O58  1  0.69821567  0.16361533  0.23018133  1
  O  O59  1  0.83028200  0.79873300  0.10315200  1
