# generated using pymatgen
data_LiVSiO4
_symmetry_space_group_name_H-M   'P 1'
_cell_length_a   4.78417200
_cell_length_b   6.22459303
_cell_length_c   10.31094505
_cell_angle_alpha   90.00000000
_cell_angle_beta   90.00000000
_cell_angle_gamma   90.00000000
_symmetry_Int_Tables_number   1
_chemical_formula_structural   LiVSiO4
_chemical_formula_sum   'Li4 V4 Si4 O16'
_cell_volume   307.05503215
_cell_formula_units_Z   4
loop_
 _symmetry_equiv_pos_site_id
 _symmetry_equiv_pos_as_xyz
  1  'x, y, z'
loop_
 _atom_site_type_symbol
 _atom_site_label
 _atom_site_symmetry_multiplicity
 _atom_site_fract_x
 _atom_site_fract_y
 _atom_site_fract_z
 _atom_site_occupancy
  Li  Li0  1  0.02001900  0.75000000  0.28628750  1
  Li  Li1  1  0.47998100  0.75000000  0.78628750  1
  Li  Li2  1  0.52001900  0.25000000  0.21371250  1
  Li  Li3  1  0.97998100  0.25000000  0.71371250  1
  V  V4  1  0.50000000  0.00000000  0.50000000  1
  V  V5  1  0.00000000  0.50000000  0.00000000  1
  V  V6  1  0.00000000  0.00000000  0.00000000  1
  V  V7  1  0.50000000  0.50000000  0.50000000  1
  Si  Si8  1  0.08137700  0.25000000  0.41207950  1
  Si  Si9  1  0.41862300  0.25000000  0.91207950  1
  Si  Si10  1  0.58137700  0.75000000  0.08792050  1
  Si  Si11  1  0.91862300  0.75000000  0.58792050  1
  O  O12  1  0.23977900  0.25000000  0.55912150  1
  O  O13  1  0.26022100  0.25000000  0.05912150  1
  O  O14  1  0.73977900  0.75000000  0.94087850  1
  O  O15  1  0.76022100  0.75000000  0.44087850  1
  O  O16  1  0.23689000  0.75000000  0.08037250  1
  O  O17  1  0.26311000  0.75000000  0.58037250  1
  O  O18  1  0.73689000  0.25000000  0.41962750  1
  O  O19  1  0.76311000  0.25000000  0.91962750  1
  O  O20  1  0.22212900  0.03094200  0.35162950  1
  O  O21  1  0.22212900  0.46905800  0.35162950  1
  O  O22  1  0.27787100  0.46905800  0.85162950  1
  O  O23  1  0.27787100  0.03094200  0.85162950  1
  O  O24  1  0.72212900  0.53094200  0.14837050  1
  O  O25  1  0.72212900  0.96905800  0.14837050  1
  O  O26  1  0.77787100  0.96905800  0.64837050  1
  O  O27  1  0.77787100  0.53094200  0.64837050  1
