# generated using pymatgen
data_Li2TiCo3O8
_symmetry_space_group_name_H-M   'P 1'
_cell_length_a   12.03939600
_cell_length_b   12.05804400
_cell_length_c   8.16691096
_cell_angle_alpha   90.00000000
_cell_angle_beta   90.16523164
_cell_angle_gamma   90.00000000
_symmetry_Int_Tables_number   1
_chemical_formula_structural   Li2TiCo3O8
_chemical_formula_sum   'Li16 Ti8 Co24 O64'
_cell_volume   1185.59832915
_cell_formula_units_Z   8
loop_
 _symmetry_equiv_pos_site_id
 _symmetry_equiv_pos_as_xyz
  1  'x, y, z'
loop_
 _atom_site_type_symbol
 _atom_site_label
 _atom_site_symmetry_multiplicity
 _atom_site_fract_x
 _atom_site_fract_y
 _atom_site_fract_z
 _atom_site_occupancy
  Li  Li0  1  0.12664650  0.87481250  0.62937100  1
  Li  Li1  1  0.87335350  0.87481250  0.37062900  1
  Li  Li2  1  0.12581300  0.12253600  0.87901300  1
  Li  Li3  1  0.62536550  0.87580950  0.61855300  1
  Li  Li4  1  0.87418700  0.12253600  0.12098700  1
  Li  Li5  1  0.37463450  0.87580950  0.38144700  1
  Li  Li6  1  0.62846900  0.12519800  0.86897600  1
  Li  Li7  1  0.37153100  0.12519800  0.13102400  1
  Li  Li8  1  0.62664650  0.37481250  0.62937100  1
  Li  Li9  1  0.37335350  0.37481250  0.37062900  1
  Li  Li10  1  0.62581300  0.62253600  0.87901300  1
  Li  Li11  1  0.12536550  0.37580950  0.61855300  1
  Li  Li12  1  0.37418700  0.62253600  0.12098700  1
  Li  Li13  1  0.87463450  0.37580950  0.38144700  1
  Li  Li14  1  0.12846900  0.62519800  0.86897600  1
  Li  Li15  1  0.87153100  0.62519800  0.13102400  1
  Ti  Ti16  1  0.36754400  0.25430300  0.74237800  1
  Ti  Ti17  1  0.50000000  0.61144200  0.50000000  1
  Ti  Ti18  1  0.50000000  0.88370900  0.00000000  1
  Ti  Ti19  1  0.63245600  0.25430300  0.25762200  1
  Ti  Ti20  1  0.86754400  0.75430300  0.74237800  1
  Ti  Ti21  1  0.00000000  0.11144200  0.50000000  1
  Ti  Ti22  1  0.00000000  0.38370900  0.00000000  1
  Ti  Ti23  1  0.13245600  0.75430300  0.25762200  1
  Co  Co24  1  0.25192700  0.12398600  0.49765500  1
  Co  Co25  1  0.12288850  0.00201750  0.24438900  1
  Co  Co26  1  0.50000000  0.37071000  0.00000000  1
  Co  Co27  1  0.62192550  0.74858050  0.24778900  1
  Co  Co28  1  0.75547800  0.87373900  0.00810400  1
  Co  Co29  1  0.87711150  0.00201750  0.75561100  1
  Co  Co30  1  0.62736550  0.99766250  0.25305900  1
  Co  Co31  1  0.74807300  0.12398600  0.50234500  1
  Co  Co32  1  0.37807450  0.74858050  0.75221100  1
  Co  Co33  1  0.50000000  0.12653100  0.50000000  1
  Co  Co34  1  0.37263450  0.99766250  0.74694100  1
  Co  Co35  1  0.24452200  0.87373900  0.99189600  1
  Co  Co36  1  0.75192700  0.62398600  0.49765500  1
  Co  Co37  1  0.62288850  0.50201750  0.24438900  1
  Co  Co38  1  0.00000000  0.87071000  0.00000000  1
  Co  Co39  1  0.12192550  0.24858050  0.24778900  1
  Co  Co40  1  0.25547800  0.37373900  0.00810400  1
  Co  Co41  1  0.37711150  0.50201750  0.75561100  1
  Co  Co42  1  0.12736550  0.49766250  0.25305900  1
  Co  Co43  1  0.24807300  0.62398600  0.50234500  1
  Co  Co44  1  0.87807450  0.24858050  0.75221100  1
  Co  Co45  1  0.00000000  0.62653100  0.50000000  1
  Co  Co46  1  0.87263450  0.49766250  0.74694100  1
  Co  Co47  1  0.74452200  0.37373900  0.99189600  1
  O  O48  1  0.37585150  0.23994150  0.50926000  1
  O  O49  1  0.26528300  0.13059200  0.74350800  1
  O  O50  1  0.12065600  0.98394100  0.00752400  1
  O  O51  1  0.12220700  0.01261100  0.49134000  1
  O  O52  1  0.51335450  0.37132650  0.23889900  1
  O  O53  1  0.23003750  0.12617750  0.25616700  1
  O  O54  1  0.38132350  0.25837950  0.98833800  1
  O  O55  1  0.48664550  0.37132650  0.76110100  1
  O  O56  1  0.62461150  0.73846050  0.47360100  1
  O  O57  1  0.50580850  0.62422950  0.26337400  1
  O  O58  1  0.87934400  0.98394100  0.99247600  1
  O  O59  1  0.62239500  0.75885900  0.02401500  1
  O  O60  1  0.76176650  0.86994550  0.76394500  1
  O  O61  1  0.73956500  0.87753200  0.23654300  1
  O  O62  1  0.87779300  0.01261100  0.50866000  1
  O  O63  1  0.49419150  0.62422950  0.73662600  1
  O  O64  1  0.51296000  0.86956000  0.23918100  1
  O  O65  1  0.61992250  0.98731650  0.00971700  1
  O  O66  1  0.76996250  0.12617750  0.74383300  1
  O  O67  1  0.73471700  0.13059200  0.25649200  1
  O  O68  1  0.37538850  0.73846050  0.52639900  1
  O  O69  1  0.62604750  0.01464050  0.48798700  1
  O  O70  1  0.48704000  0.86956000  0.76081900  1
  O  O71  1  0.37760500  0.75885900  0.97598500  1
  O  O72  1  0.50933300  0.12710200  0.27684900  1
  O  O73  1  0.62414850  0.23994150  0.49074000  1
  O  O74  1  0.26043500  0.87753200  0.76345700  1
  O  O75  1  0.49066700  0.12710200  0.72315100  1
  O  O76  1  0.38007750  0.98731650  0.99028300  1
  O  O77  1  0.37395250  0.01464050  0.51201300  1
  O  O78  1  0.23823350  0.86994550  0.23605500  1
  O  O79  1  0.61867650  0.25837950  0.01166200  1
  O  O80  1  0.87585150  0.73994150  0.50926000  1
  O  O81  1  0.76528300  0.63059200  0.74350800  1
  O  O82  1  0.62065600  0.48394100  0.00752400  1
  O  O83  1  0.62220700  0.51261100  0.49134000  1
  O  O84  1  0.01335450  0.87132650  0.23889900  1
  O  O85  1  0.73003750  0.62617750  0.25616700  1
  O  O86  1  0.88132350  0.75837950  0.98833800  1
  O  O87  1  0.98664550  0.87132650  0.76110100  1
  O  O88  1  0.12461150  0.23846050  0.47360100  1
  O  O89  1  0.00580850  0.12422950  0.26337400  1
  O  O90  1  0.37934400  0.48394100  0.99247600  1
  O  O91  1  0.12239500  0.25885900  0.02401500  1
  O  O92  1  0.26176650  0.36994550  0.76394500  1
  O  O93  1  0.23956500  0.37753200  0.23654300  1
  O  O94  1  0.37779300  0.51261100  0.50866000  1
  O  O95  1  0.99419150  0.12422950  0.73662600  1
  O  O96  1  0.01296000  0.36956000  0.23918100  1
  O  O97  1  0.11992250  0.48731650  0.00971700  1
  O  O98  1  0.26996250  0.62617750  0.74383300  1
  O  O99  1  0.23471700  0.63059200  0.25649200  1
  O  O100  1  0.87538850  0.23846050  0.52639900  1
  O  O101  1  0.12604750  0.51464050  0.48798700  1
  O  O102  1  0.98704000  0.36956000  0.76081900  1
  O  O103  1  0.87760500  0.25885900  0.97598500  1
  O  O104  1  0.00933300  0.62710200  0.27684900  1
  O  O105  1  0.12414850  0.73994150  0.49074000  1
  O  O106  1  0.76043500  0.37753200  0.76345700  1
  O  O107  1  0.99066700  0.62710200  0.72315100  1
  O  O108  1  0.88007750  0.48731650  0.99028300  1
  O  O109  1  0.87395250  0.51464050  0.51201300  1
  O  O110  1  0.73823350  0.36994550  0.23605500  1
  O  O111  1  0.11867650  0.75837950  0.01166200  1
