# generated using pymatgen
data_Ni3(PO4)2
_symmetry_space_group_name_H-M   'P 1'
_cell_length_a   6.10637000
_cell_length_b   11.11555800
_cell_length_c   8.70088060
_cell_angle_alpha   90.00000000
_cell_angle_beta   99.96827304
_cell_angle_gamma   90.00000000
_symmetry_Int_Tables_number   1
_chemical_formula_structural   Ni3(PO4)2
_chemical_formula_sum   'Ni12 P8 O32'
_cell_volume   581.66293230
_cell_formula_units_Z   4
loop_
 _symmetry_equiv_pos_site_id
 _symmetry_equiv_pos_as_xyz
  1  'x, y, z'
loop_
 _atom_site_type_symbol
 _atom_site_label
 _atom_site_symmetry_multiplicity
 _atom_site_fract_x
 _atom_site_fract_y
 _atom_site_fract_z
 _atom_site_occupancy
  Ni  Ni0  1  0.62237000  0.38635200  0.07581800  1
  Ni  Ni1  1  0.12237000  0.11364800  0.07581800  1
  Ni  Ni2  1  0.66574700  0.08252500  0.27456200  1
  Ni  Ni3  1  0.16574700  0.41747500  0.27456200  1
  Ni  Ni4  1  0.61693400  0.69431800  0.36367300  1
  Ni  Ni5  1  0.11693400  0.80568200  0.36367300  1
  Ni  Ni6  1  0.88306600  0.19431800  0.63632700  1
  Ni  Ni7  1  0.38306600  0.30568200  0.63632700  1
  Ni  Ni8  1  0.83425300  0.58252500  0.72543800  1
  Ni  Ni9  1  0.33425300  0.91747500  0.72543800  1
  Ni  Ni10  1  0.87763000  0.88635200  0.92418200  1
  Ni  Ni11  1  0.37763000  0.61364800  0.92418200  1
  P  P12  1  0.88916900  0.63527000  0.09261400  1
  P  P13  1  0.38916900  0.86473000  0.09261400  1
  P  P14  1  0.69388500  0.41372400  0.39610400  1
  P  P15  1  0.19388500  0.08627600  0.39610400  1
  P  P16  1  0.80611500  0.91372400  0.60389600  1
  P  P17  1  0.30611500  0.58627600  0.60389600  1
  P  P18  1  0.61083100  0.13527000  0.90738600  1
  P  P19  1  0.11083100  0.36473000  0.90738600  1
  O  O20  1  0.60354700  0.20598600  0.06054700  1
  O  O21  1  0.66479400  0.56486900  0.07296800  1
  O  O22  1  0.10354700  0.29401400  0.06054700  1
  O  O23  1  0.16479400  0.93513100  0.07296800  1
  O  O24  1  0.59997300  0.94063600  0.13390700  1
  O  O25  1  0.09997300  0.55936400  0.13390700  1
  O  O26  1  0.87061900  0.72178300  0.23037400  1
  O  O27  1  0.98008000  0.08383800  0.27006900  1
  O  O28  1  0.37061900  0.77821700  0.23037400  1
  O  O29  1  0.86639800  0.37453900  0.29503500  1
  O  O30  1  0.48008000  0.41616200  0.27006900  1
  O  O31  1  0.36639800  0.12546100  0.29503500  1
  O  O32  1  0.74357400  0.53860100  0.47550800  1
  O  O33  1  0.83077800  0.81702400  0.48113900  1
  O  O34  1  0.24357400  0.96139900  0.47550800  1
  O  O35  1  0.66922200  0.31702400  0.51886100  1
  O  O36  1  0.33077800  0.68297600  0.48113900  1
  O  O37  1  0.75642600  0.03860100  0.52449200  1
  O  O38  1  0.16922200  0.18297600  0.51886100  1
  O  O39  1  0.25642600  0.46139900  0.52449200  1
  O  O40  1  0.63360200  0.87453900  0.70496500  1
  O  O41  1  0.51992000  0.58383800  0.72993100  1
  O  O42  1  0.13360200  0.62546100  0.70496500  1
  O  O43  1  0.62938100  0.22178300  0.76962600  1
  O  O44  1  0.01992000  0.91616200  0.72993100  1
  O  O45  1  0.12938100  0.27821700  0.76962600  1
  O  O46  1  0.90002700  0.44063600  0.86609300  1
  O  O47  1  0.40002700  0.05936400  0.86609300  1
  O  O48  1  0.83520600  0.06486900  0.92703200  1
  O  O49  1  0.89645300  0.70598600  0.93945300  1
  O  O50  1  0.33520600  0.43513100  0.92703200  1
  O  O51  1  0.39645300  0.79401400  0.93945300  1
