# generated using pymatgen
data_Cs3ScO3
_symmetry_space_group_name_H-M   'P 1'
_cell_length_a   7.93884000
_cell_length_b   12.61422800
_cell_length_c   7.44461448
_cell_angle_alpha   90.00000000
_cell_angle_beta   103.11451146
_cell_angle_gamma   90.00000000
_symmetry_Int_Tables_number   1
_chemical_formula_structural   Cs3ScO3
_chemical_formula_sum   'Cs12 Sc4 O12'
_cell_volume   726.07681293
_cell_formula_units_Z   4
loop_
 _symmetry_equiv_pos_site_id
 _symmetry_equiv_pos_as_xyz
  1  'x, y, z'
loop_
 _atom_site_type_symbol
 _atom_site_label
 _atom_site_symmetry_multiplicity
 _atom_site_fract_x
 _atom_site_fract_y
 _atom_site_fract_z
 _atom_site_occupancy
  Cs  Cs0  1  0.36549300  0.00000000  0.65660400  1
  Cs  Cs1  1  0.50000000  0.70304300  0.50000000  1
  Cs  Cs2  1  0.50000000  0.29695700  0.50000000  1
  Cs  Cs3  1  0.50000000  0.76119000  0.00000000  1
  Cs  Cs4  1  0.50000000  0.23881000  0.00000000  1
  Cs  Cs5  1  0.63450700  0.00000000  0.34339600  1
  Cs  Cs6  1  0.86549300  0.50000000  0.65660400  1
  Cs  Cs7  1  0.00000000  0.20304300  0.50000000  1
  Cs  Cs8  1  0.00000000  0.79695700  0.50000000  1
  Cs  Cs9  1  0.00000000  0.26119000  0.00000000  1
  Cs  Cs10  1  0.00000000  0.73881000  0.00000000  1
  Cs  Cs11  1  0.13450700  0.50000000  0.34339600  1
  Sc  Sc12  1  0.16530000  0.00000000  0.14667700  1
  Sc  Sc13  1  0.83470000  0.00000000  0.85332300  1
  Sc  Sc14  1  0.66530000  0.50000000  0.14667700  1
  Sc  Sc15  1  0.33470000  0.50000000  0.85332300  1
  O  O16  1  0.09444300  0.00000000  0.86075500  1
  O  O17  1  0.28727550  0.12864750  0.26151100  1
  O  O18  1  0.28727550  0.87135250  0.26151100  1
  O  O19  1  0.71272450  0.12864750  0.73848900  1
  O  O20  1  0.71272450  0.87135250  0.73848900  1
  O  O21  1  0.90555700  0.00000000  0.13924500  1
  O  O22  1  0.59444300  0.50000000  0.86075500  1
  O  O23  1  0.78727550  0.62864750  0.26151100  1
  O  O24  1  0.78727550  0.37135250  0.26151100  1
  O  O25  1  0.21272450  0.62864750  0.73848900  1
  O  O26  1  0.21272450  0.37135250  0.73848900  1
  O  O27  1  0.40555700  0.50000000  0.13924500  1
