# generated using pymatgen
data_LiSn3(P3O10)2
_symmetry_space_group_name_H-M   'P 1'
_cell_length_a   10.60949200
_cell_length_b   13.96202400
_cell_length_c   12.51792400
_cell_angle_alpha   90.00000000
_cell_angle_beta   90.00000000
_cell_angle_gamma   90.00000000
_symmetry_Int_Tables_number   1
_chemical_formula_structural   LiSn3(P3O10)2
_chemical_formula_sum   'Li4 Sn12 P24 O80'
_cell_volume   1854.27985594
_cell_formula_units_Z   4
loop_
 _symmetry_equiv_pos_site_id
 _symmetry_equiv_pos_as_xyz
  1  'x, y, z'
loop_
 _atom_site_type_symbol
 _atom_site_label
 _atom_site_symmetry_multiplicity
 _atom_site_fract_x
 _atom_site_fract_y
 _atom_site_fract_z
 _atom_site_occupancy
  Li  Li0  1  0.58274100  0.00000000  0.50000000  1
  Li  Li1  1  0.41725900  0.00000000  0.00000000  1
  Li  Li2  1  0.08274100  0.50000000  0.50000000  1
  Li  Li3  1  0.91725900  0.50000000  0.00000000  1
  Sn  Sn4  1  0.12638100  0.00000000  0.00000000  1
  Sn  Sn5  1  0.50000000  0.79710400  0.25000000  1
  Sn  Sn6  1  0.50000000  0.72364500  0.75000000  1
  Sn  Sn7  1  0.50000000  0.20289600  0.75000000  1
  Sn  Sn8  1  0.50000000  0.27635500  0.25000000  1
  Sn  Sn9  1  0.87361900  0.00000000  0.50000000  1
  Sn  Sn10  1  0.62638100  0.50000000  0.00000000  1
  Sn  Sn11  1  0.00000000  0.29710400  0.25000000  1
  Sn  Sn12  1  0.00000000  0.22364500  0.75000000  1
  Sn  Sn13  1  0.00000000  0.70289600  0.75000000  1
  Sn  Sn14  1  0.00000000  0.77635500  0.25000000  1
  Sn  Sn15  1  0.37361900  0.50000000  0.50000000  1
  P  P16  1  0.23532750  0.14264950  0.31799100  1
  P  P17  1  0.23532750  0.85735050  0.68200900  1
  P  P18  1  0.26825850  0.04891550  0.77745000  1
  P  P19  1  0.26825850  0.95108450  0.22255000  1
  P  P20  1  0.42985450  0.71527650  0.01640400  1
  P  P21  1  0.42985450  0.28472350  0.98359600  1
  P  P22  1  0.57014550  0.71527650  0.48359600  1
  P  P23  1  0.57014550  0.28472350  0.51640400  1
  P  P24  1  0.73174150  0.04891550  0.72255000  1
  P  P25  1  0.73174150  0.95108450  0.27745000  1
  P  P26  1  0.76467250  0.85735050  0.81799100  1
  P  P27  1  0.76467250  0.14264950  0.18200900  1
  P  P28  1  0.73532750  0.64264950  0.31799100  1
  P  P29  1  0.73532750  0.35735050  0.68200900  1
  P  P30  1  0.76825850  0.54891550  0.77745000  1
  P  P31  1  0.76825850  0.45108450  0.22255000  1
  P  P32  1  0.92985450  0.21527650  0.01640400  1
  P  P33  1  0.92985450  0.78472350  0.98359600  1
  P  P34  1  0.07014550  0.21527650  0.48359600  1
  P  P35  1  0.07014550  0.78472350  0.51640400  1
  P  P36  1  0.23174150  0.54891550  0.72255000  1
  P  P37  1  0.23174150  0.45108450  0.27745000  1
  P  P38  1  0.26467250  0.35735050  0.81799100  1
  P  P39  1  0.26467250  0.64264950  0.18200900  1
  O  O40  1  0.21317950  0.97017250  0.69131400  1
  O  O41  1  0.21317950  0.02982750  0.30868600  1
  O  O42  1  0.20005000  0.83585200  0.56070800  1
  O  O43  1  0.20005000  0.16414800  0.43929200  1
  O  O44  1  0.32130050  0.00504850  0.12652800  1
  O  O45  1  0.32130050  0.99495150  0.87347200  1
  O  O46  1  0.35766450  0.30820350  0.74288400  1
  O  O47  1  0.35766450  0.69179650  0.25711600  1
  O  O48  1  0.36753750  0.89828250  0.29033700  1
  O  O49  1  0.36753750  0.10171750  0.70966300  1
  O  O50  1  0.84611650  0.89080650  0.30962200  1
  O  O51  1  0.84611650  0.10919350  0.69037800  1
  O  O52  1  0.37401750  0.16290750  0.30478000  1
  O  O53  1  0.37401750  0.83709250  0.69522000  1
  O  O54  1  0.39735450  0.25390350  0.09637700  1
  O  O55  1  0.39735450  0.74609650  0.90362300  1
  O  O56  1  0.46614800  0.35770200  0.52991400  1
  O  O57  1  0.46614800  0.64229800  0.47008600  1
  O  O58  1  0.45066800  0.19556900  0.91054700  1
  O  O59  1  0.45066800  0.80443100  0.08945300  1
  O  O60  1  0.54933200  0.80443100  0.41054700  1
  O  O61  1  0.54933200  0.19556900  0.58945300  1
  O  O62  1  0.53385200  0.64229800  0.02991400  1
  O  O63  1  0.53385200  0.35770200  0.97008600  1
  O  O64  1  0.60264550  0.74609650  0.59637700  1
  O  O65  1  0.60264550  0.25390350  0.40362300  1
  O  O66  1  0.62598250  0.83709250  0.80478000  1
  O  O67  1  0.62598250  0.16290750  0.19522000  1
  O  O68  1  0.15388350  0.10919350  0.80962200  1
  O  O69  1  0.15388350  0.89080650  0.19037800  1
  O  O70  1  0.63246250  0.10171750  0.79033700  1
  O  O71  1  0.63246250  0.89828250  0.20966300  1
  O  O72  1  0.64233550  0.69179650  0.24288400  1
  O  O73  1  0.64233550  0.30820350  0.75711600  1
  O  O74  1  0.67869950  0.99495150  0.62652800  1
  O  O75  1  0.67869950  0.00504850  0.37347200  1
  O  O76  1  0.79995000  0.83585200  0.93929200  1
  O  O77  1  0.79995000  0.16414800  0.06070800  1
  O  O78  1  0.78682050  0.97017250  0.80868600  1
  O  O79  1  0.78682050  0.02982750  0.19131400  1
  O  O80  1  0.71317950  0.47017250  0.69131400  1
  O  O81  1  0.71317950  0.52982750  0.30868600  1
  O  O82  1  0.70005000  0.33585200  0.56070800  1
  O  O83  1  0.70005000  0.66414800  0.43929200  1
  O  O84  1  0.82130050  0.50504850  0.12652800  1
  O  O85  1  0.82130050  0.49495150  0.87347200  1
  O  O86  1  0.85766450  0.80820350  0.74288400  1
  O  O87  1  0.85766450  0.19179650  0.25711600  1
  O  O88  1  0.86753750  0.39828250  0.29033700  1
  O  O89  1  0.86753750  0.60171750  0.70966300  1
  O  O90  1  0.34611650  0.39080650  0.30962200  1
  O  O91  1  0.34611650  0.60919350  0.69037800  1
  O  O92  1  0.87401750  0.66290750  0.30478000  1
  O  O93  1  0.87401750  0.33709250  0.69522000  1
  O  O94  1  0.89735450  0.75390350  0.09637700  1
  O  O95  1  0.89735450  0.24609650  0.90362300  1
  O  O96  1  0.96614800  0.85770200  0.52991400  1
  O  O97  1  0.96614800  0.14229800  0.47008600  1
  O  O98  1  0.95066800  0.69556900  0.91054700  1
  O  O99  1  0.95066800  0.30443100  0.08945300  1
  O  O100  1  0.04933200  0.30443100  0.41054700  1
  O  O101  1  0.04933200  0.69556900  0.58945300  1
  O  O102  1  0.03385200  0.14229800  0.02991400  1
  O  O103  1  0.03385200  0.85770200  0.97008600  1
  O  O104  1  0.10264550  0.24609650  0.59637700  1
  O  O105  1  0.10264550  0.75390350  0.40362300  1
  O  O106  1  0.12598250  0.33709250  0.80478000  1
  O  O107  1  0.12598250  0.66290750  0.19522000  1
  O  O108  1  0.65388350  0.60919350  0.80962200  1
  O  O109  1  0.65388350  0.39080650  0.19037800  1
  O  O110  1  0.13246250  0.60171750  0.79033700  1
  O  O111  1  0.13246250  0.39828250  0.20966300  1
  O  O112  1  0.14233550  0.19179650  0.24288400  1
  O  O113  1  0.14233550  0.80820350  0.75711600  1
  O  O114  1  0.17869950  0.49495150  0.62652800  1
  O  O115  1  0.17869950  0.50504850  0.37347200  1
  O  O116  1  0.29995000  0.33585200  0.93929200  1
  O  O117  1  0.29995000  0.66414800  0.06070800  1
  O  O118  1  0.28682050  0.47017250  0.80868600  1
  O  O119  1  0.28682050  0.52982750  0.19131400  1
