# generated using pymatgen
data_Li3Fe2OF5
_symmetry_space_group_name_H-M   'P 1'
_cell_length_a   6.09473946
_cell_length_b   8.56885969
_cell_length_c   9.44360798
_cell_angle_alpha   90.00000000
_cell_angle_beta   108.26126641
_cell_angle_gamma   90.00000000
_symmetry_Int_Tables_number   1
_chemical_formula_structural   Li3Fe2OF5
_chemical_formula_sum   'Li12 Fe8 O4 F20'
_cell_volume   468.35374362
_cell_formula_units_Z   4
loop_
 _symmetry_equiv_pos_site_id
 _symmetry_equiv_pos_as_xyz
  1  'x, y, z'
loop_
 _atom_site_type_symbol
 _atom_site_label
 _atom_site_symmetry_multiplicity
 _atom_site_fract_x
 _atom_site_fract_y
 _atom_site_fract_z
 _atom_site_occupancy
  Li  Li0  1  0.50000000  0.95888700  0.00000000  1
  Li  Li1  1  0.67151250  0.20625550  0.84446400  1
  Li  Li2  1  0.50000000  0.70608600  0.50000000  1
  Li  Li3  1  0.82782350  0.95492350  0.64834600  1
  Li  Li4  1  0.67217650  0.45492350  0.35165400  1
  Li  Li5  1  0.82848750  0.70625550  0.15553600  1
  Li  Li6  1  0.00000000  0.45888700  0.00000000  1
  Li  Li7  1  0.17151250  0.70625550  0.84446400  1
  Li  Li8  1  0.00000000  0.20608600  0.50000000  1
  Li  Li9  1  0.32782350  0.45492350  0.64834600  1
  Li  Li10  1  0.17217650  0.95492350  0.35165400  1
  Li  Li11  1  0.32848750  0.20625550  0.15553600  1
  Fe  Fe12  1  0.00000000  0.95342200  0.00000000  1
  Fe  Fe13  1  0.00000000  0.70446100  0.50000000  1
  Fe  Fe14  1  0.67329750  0.70322750  0.84748300  1
  Fe  Fe15  1  0.32670250  0.70322750  0.15251700  1
  Fe  Fe16  1  0.50000000  0.45342200  0.00000000  1
  Fe  Fe17  1  0.50000000  0.20446100  0.50000000  1
  Fe  Fe18  1  0.17329750  0.20322750  0.84748300  1
  Fe  Fe19  1  0.82670250  0.20322750  0.15251700  1
  O  O20  1  0.00000000  0.70456500  0.00000000  1
  O  O21  1  0.50000000  0.70555400  0.00000000  1
  O  O22  1  0.50000000  0.20456500  0.00000000  1
  O  O23  1  0.00000000  0.20555400  0.00000000  1
  F  F24  1  0.66181050  0.45003550  0.83262200  1
  F  F25  1  0.50000000  0.97003550  0.50000000  1
  F  F26  1  0.68256550  0.95962150  0.83679500  1
  F  F27  1  0.34516200  0.68370000  0.66315600  1
  F  F28  1  0.65483800  0.68370000  0.33684400  1
  F  F29  1  0.82161150  0.72610450  0.66391700  1
  F  F30  1  0.00000000  0.93877050  0.50000000  1
  F  F31  1  0.83818950  0.95003550  0.16737800  1
  F  F32  1  0.67838850  0.22610450  0.33608300  1
  F  F33  1  0.31743450  0.95962150  0.16320500  1
  F  F34  1  0.16181050  0.95003550  0.83262200  1
  F  F35  1  0.00000000  0.47003550  0.50000000  1
  F  F36  1  0.18256550  0.45962150  0.83679500  1
  F  F37  1  0.84516200  0.18370000  0.66315600  1
  F  F38  1  0.15483800  0.18370000  0.33684400  1
  F  F39  1  0.32161150  0.22610450  0.66391700  1
  F  F40  1  0.50000000  0.43877050  0.50000000  1
  F  F41  1  0.33818950  0.45003550  0.16737800  1
  F  F42  1  0.17838850  0.72610450  0.33608300  1
  F  F43  1  0.81743450  0.45962150  0.16320500  1
