# generated using pymatgen
data_ZrH14C2(N4F3)2
_symmetry_space_group_name_H-M   'P 1'
_cell_length_a   6.44958500
_cell_length_b   6.46430800
_cell_length_c   14.75295458
_cell_angle_alpha   90.00000000
_cell_angle_beta   98.54395328
_cell_angle_gamma   90.00000000
_symmetry_Int_Tables_number   1
_chemical_formula_structural   ZrH14C2(N4F3)2
_chemical_formula_sum   'Zr2 H28 C4 N16 F12'
_cell_volume   608.25565147
_cell_formula_units_Z   2
loop_
 _symmetry_equiv_pos_site_id
 _symmetry_equiv_pos_as_xyz
  1  'x, y, z'
loop_
 _atom_site_type_symbol
 _atom_site_label
 _atom_site_symmetry_multiplicity
 _atom_site_fract_x
 _atom_site_fract_y
 _atom_site_fract_z
 _atom_site_occupancy
  Zr  Zr0  1  0.00000000  0.50000000  0.50000000  1
  Zr  Zr1  1  0.00000000  0.00000000  0.00000000  1
  H  H2  1  0.00164500  0.50640000  0.72968100  1
  H  H3  1  0.99835500  0.00640000  0.77031900  1
  H  H4  1  0.99835500  0.49360000  0.27031900  1
  H  H5  1  0.00164500  0.99360000  0.22968100  1
  H  H6  1  0.03639100  0.50504200  0.84931500  1
  H  H7  1  0.96360900  0.00504200  0.65068500  1
  H  H8  1  0.96360900  0.49495800  0.15068500  1
  H  H9  1  0.03639100  0.99495800  0.34931500  1
  H  H10  1  0.56026900  0.96261500  0.78542200  1
  H  H11  1  0.43973100  0.46261500  0.71457800  1
  H  H12  1  0.43973100  0.03738500  0.21457800  1
  H  H13  1  0.56026900  0.53738500  0.28542200  1
  H  H14  1  0.34833400  0.95731700  0.84845500  1
  H  H15  1  0.65166600  0.45731700  0.65154500  1
  H  H16  1  0.65166600  0.04268300  0.15154500  1
  H  H17  1  0.34833400  0.54268300  0.34845500  1
  H  H18  1  0.23910400  0.02392300  0.57025300  1
  H  H19  1  0.76089600  0.52392300  0.92974700  1
  H  H20  1  0.76089600  0.97607700  0.42974700  1
  H  H21  1  0.23910400  0.47607700  0.07025300  1
  H  H22  1  0.59228300  0.85959000  0.58907200  1
  H  H23  1  0.40771700  0.35959000  0.91092800  1
  H  H24  1  0.40771700  0.14041000  0.41092800  1
  H  H25  1  0.59228300  0.64041000  0.08907200  1
  H  H26  1  0.59658700  0.11714400  0.59317200  1
  H  H27  1  0.40341300  0.61714400  0.90682800  1
  H  H28  1  0.40341300  0.88285600  0.40682800  1
  H  H29  1  0.59658700  0.38285600  0.09317200  1
  C  C30  1  0.73083400  0.48895200  0.79014200  1
  C  C31  1  0.26916600  0.98895200  0.70985800  1
  C  C32  1  0.26916600  0.51104800  0.20985800  1
  C  C33  1  0.73083400  0.01104800  0.29014200  1
  N  N34  1  0.93694400  0.50691200  0.78923900  1
  N  N35  1  0.06305600  0.00691200  0.71076100  1
  N  N36  1  0.06305600  0.49308800  0.21076100  1
  N  N37  1  0.93694400  0.99308800  0.28923900  1
  N  N38  1  0.40294300  0.97407100  0.78752700  1
  N  N39  1  0.59705700  0.47407100  0.71247300  1
  N  N40  1  0.59705700  0.02592900  0.21247300  1
  N  N41  1  0.40294300  0.52592900  0.28752700  1
  N  N42  1  0.33972200  0.98686800  0.62838600  1
  N  N43  1  0.66027800  0.48686800  0.87161400  1
  N  N44  1  0.66027800  0.01313200  0.37161400  1
  N  N45  1  0.33972200  0.51313200  0.12838600  1
  N  N46  1  0.55614100  0.98549500  0.62550400  1
  N  N47  1  0.44385900  0.48549500  0.87449600  1
  N  N48  1  0.44385900  0.01450500  0.37449600  1
  N  N49  1  0.55614100  0.51450500  0.12550400  1
  F  F50  1  0.14529400  0.49483600  0.63287400  1
  F  F51  1  0.85470600  0.99483600  0.86712600  1
  F  F52  1  0.85470600  0.50516400  0.36712600  1
  F  F53  1  0.14529400  0.00516400  0.13287400  1
  F  F54  1  0.87884000  0.78789400  0.52160700  1
  F  F55  1  0.12116000  0.28789400  0.97839300  1
  F  F56  1  0.12116000  0.21210600  0.47839300  1
  F  F57  1  0.87884000  0.71210600  0.02160700  1
  F  F58  1  0.25098700  0.86395500  0.95298600  1
  F  F59  1  0.74901300  0.36395500  0.54701400  1
  F  F60  1  0.74901300  0.13604500  0.04701400  1
  F  F61  1  0.25098700  0.63604500  0.45298600  1
