# generated using pymatgen
data_SrCaI4
_symmetry_space_group_name_H-M   'P 1'
_cell_length_a   15.38172400
_cell_length_b   13.87316200
_cell_length_c   13.06277547
_cell_angle_alpha   90.00000000
_cell_angle_beta   115.29773526
_cell_angle_gamma   90.00000000
_symmetry_Int_Tables_number   1
_chemical_formula_structural   SrCaI4
_chemical_formula_sum   'Sr8 Ca8 I32'
_cell_volume   2520.18333128
_cell_formula_units_Z   8
loop_
 _symmetry_equiv_pos_site_id
 _symmetry_equiv_pos_as_xyz
  1  'x, y, z'
loop_
 _atom_site_type_symbol
 _atom_site_label
 _atom_site_symmetry_multiplicity
 _atom_site_fract_x
 _atom_site_fract_y
 _atom_site_fract_z
 _atom_site_occupancy
  Sr  Sr0  1  0.19555700  0.50000000  0.34933200  1
  Sr  Sr1  1  0.00000000  0.30416100  0.00000000  1
  Sr  Sr2  1  0.00000000  0.69583900  0.00000000  1
  Sr  Sr3  1  0.80444300  0.50000000  0.65066800  1
  Sr  Sr4  1  0.69555700  0.00000000  0.34933200  1
  Sr  Sr5  1  0.50000000  0.80416100  0.00000000  1
  Sr  Sr6  1  0.50000000  0.19583900  0.00000000  1
  Sr  Sr7  1  0.30444300  0.00000000  0.65066800  1
  Ca  Ca8  1  0.18212200  0.50000000  0.84161900  1
  Ca  Ca9  1  0.00000000  0.31700700  0.50000000  1
  Ca  Ca10  1  0.00000000  0.68299300  0.50000000  1
  Ca  Ca11  1  0.81787800  0.50000000  0.15838100  1
  Ca  Ca12  1  0.68212200  0.00000000  0.84161900  1
  Ca  Ca13  1  0.50000000  0.81700700  0.50000000  1
  Ca  Ca14  1  0.50000000  0.18299300  0.50000000  1
  Ca  Ca15  1  0.31787800  0.00000000  0.15838100  1
  I  I16  1  0.83727950  0.82368950  0.42034800  1
  I  I17  1  0.83727950  0.17631050  0.42034800  1
  I  I18  1  0.67659850  0.33738350  0.08973400  1
  I  I19  1  0.67659850  0.66261650  0.08973400  1
  I  I20  1  0.15252700  0.50000000  0.07277700  1
  I  I21  1  0.15019300  0.50000000  0.57996300  1
  I  I22  1  0.99984800  0.65197500  0.25399500  1
  I  I23  1  0.99984800  0.34802500  0.25399500  1
  I  I24  1  0.00015200  0.34802500  0.74600500  1
  I  I25  1  0.00015200  0.65197500  0.74600500  1
  I  I26  1  0.84980700  0.50000000  0.42003700  1
  I  I27  1  0.84747300  0.50000000  0.92722300  1
  I  I28  1  0.32340150  0.66261650  0.91026600  1
  I  I29  1  0.32340150  0.33738350  0.91026600  1
  I  I30  1  0.16272050  0.82368950  0.57965200  1
  I  I31  1  0.16272050  0.17631050  0.57965200  1
  I  I32  1  0.33727950  0.32368950  0.42034800  1
  I  I33  1  0.33727950  0.67631050  0.42034800  1
  I  I34  1  0.17659850  0.83738350  0.08973400  1
  I  I35  1  0.17659850  0.16261650  0.08973400  1
  I  I36  1  0.65252700  0.00000000  0.07277700  1
  I  I37  1  0.65019300  0.00000000  0.57996300  1
  I  I38  1  0.49984800  0.15197500  0.25399500  1
  I  I39  1  0.49984800  0.84802500  0.25399500  1
  I  I40  1  0.50015200  0.84802500  0.74600500  1
  I  I41  1  0.50015200  0.15197500  0.74600500  1
  I  I42  1  0.34980700  0.00000000  0.42003700  1
  I  I43  1  0.34747300  0.00000000  0.92722300  1
  I  I44  1  0.82340150  0.16261650  0.91026600  1
  I  I45  1  0.82340150  0.83738350  0.91026600  1
  I  I46  1  0.66272050  0.32368950  0.57965200  1
  I  I47  1  0.66272050  0.67631050  0.57965200  1
