# generated using pymatgen
data_Fe3OF5
_symmetry_space_group_name_H-M   'P 1'
_cell_length_a   3.17908000
_cell_length_b   4.83578800
_cell_length_c   14.45084100
_cell_angle_alpha   90.00000000
_cell_angle_beta   90.00000000
_cell_angle_gamma   90.00000000
_symmetry_Int_Tables_number   1
_chemical_formula_structural   Fe3OF5
_chemical_formula_sum   'Fe6 O2 F10'
_cell_volume   222.15793642
_cell_formula_units_Z   2
loop_
 _symmetry_equiv_pos_site_id
 _symmetry_equiv_pos_as_xyz
  1  'x, y, z'
loop_
 _atom_site_type_symbol
 _atom_site_label
 _atom_site_symmetry_multiplicity
 _atom_site_fract_x
 _atom_site_fract_y
 _atom_site_fract_z
 _atom_site_occupancy
  Fe  Fe0  1  0.50000000  0.76552700  0.00428100  1
  Fe  Fe1  1  0.50000000  0.73930900  0.33384800  1
  Fe  Fe2  1  0.50000000  0.78209600  0.65698100  1
  Fe  Fe3  1  0.00000000  0.21790400  0.15698100  1
  Fe  Fe4  1  0.00000000  0.23447300  0.50428100  1
  Fe  Fe5  1  0.00000000  0.26069100  0.83384800  1
  O  O6  1  0.00000000  0.94108500  0.60448000  1
  O  O7  1  0.50000000  0.05891500  0.10448000  1
  F  F8  1  0.00000000  0.95640800  0.26669600  1
  F  F9  1  0.00000000  0.95421100  0.92954000  1
  F  F10  1  0.50000000  0.04359200  0.76669600  1
  F  F11  1  0.50000000  0.04578900  0.42954000  1
  F  F12  1  0.50000000  0.43912400  0.23093900  1
  F  F13  1  0.50000000  0.45811700  0.57077600  1
  F  F14  1  0.50000000  0.46091000  0.90238500  1
  F  F15  1  0.00000000  0.54188300  0.07077600  1
  F  F16  1  0.00000000  0.53909000  0.40238500  1
  F  F17  1  0.00000000  0.56087600  0.73093900  1
