# generated using pymatgen
data_BaCaI4
_symmetry_space_group_name_H-M   'P 1'
_cell_length_a   5.76044011
_cell_length_b   5.76044011
_cell_length_c   27.66501855
_cell_angle_alpha   90.00000000
_cell_angle_beta   90.00000000
_cell_angle_gamma   120.00000000
_symmetry_Int_Tables_number   1
_chemical_formula_structural   BaCaI4
_chemical_formula_sum   'Ba3 Ca3 I12'
_cell_volume   795.01061780
_cell_formula_units_Z   3
loop_
 _symmetry_equiv_pos_site_id
 _symmetry_equiv_pos_as_xyz
  1  'x, y, z'
loop_
 _atom_site_type_symbol
 _atom_site_label
 _atom_site_symmetry_multiplicity
 _atom_site_fract_x
 _atom_site_fract_y
 _atom_site_fract_z
 _atom_site_occupancy
  Ba  Ba0  1  0.00000000  0.00000000  0.00000000  1
  Ba  Ba1  1  0.66666667  0.33333333  0.33333333  1
  Ba  Ba2  1  0.33333333  0.66666667  0.66666667  1
  Ca  Ca3  1  0.33333333  0.66666667  0.16666667  1
  Ca  Ca4  1  1.00000000  1.00000000  0.50000000  1
  Ca  Ca5  1  0.66666667  0.33333333  0.83333333  1
  I  I6  1  0.33333333  0.66666667  0.04773267  1
  I  I7  1  0.00000000  0.00000000  0.13088000  1
  I  I8  1  0.66666667  0.33333333  0.20245333  1
  I  I9  1  0.33333333  0.66666667  0.28560067  1
  I  I10  1  0.00000000  0.00000000  0.38106600  1
  I  I11  1  0.66666667  0.33333333  0.46421333  1
  I  I12  1  0.33333333  0.66666667  0.53578667  1
  I  I13  1  0.00000000  0.00000000  0.61893400  1
  I  I14  1  0.66666667  0.33333333  0.71439933  1
  I  I15  1  0.33333333  0.66666667  0.79754667  1
  I  I16  1  0.00000000  0.00000000  0.86912000  1
  I  I17  1  0.66666667  0.33333333  0.95226733  1
