# generated using pymatgen
data_Ba2CaI6
_symmetry_space_group_name_H-M   'P 1'
_cell_length_a   8.29486900
_cell_length_b   9.44043900
_cell_length_c   23.73917000
_cell_angle_alpha   90.00000000
_cell_angle_beta   90.00000000
_cell_angle_gamma   90.00000000
_symmetry_Int_Tables_number   1
_chemical_formula_structural   Ba2CaI6
_chemical_formula_sum   'Ba8 Ca4 I24'
_cell_volume   1858.94804715
_cell_formula_units_Z   4
loop_
 _symmetry_equiv_pos_site_id
 _symmetry_equiv_pos_as_xyz
  1  'x, y, z'
loop_
 _atom_site_type_symbol
 _atom_site_label
 _atom_site_symmetry_multiplicity
 _atom_site_fract_x
 _atom_site_fract_y
 _atom_site_fract_z
 _atom_site_occupancy
  Ba  Ba0  1  0.26738500  0.33425300  0.84133800  1
  Ba  Ba1  1  0.76738500  0.66574700  0.84133800  1
  Ba  Ba2  1  0.76738500  0.16574700  0.65866200  1
  Ba  Ba3  1  0.26738500  0.83425300  0.65866200  1
  Ba  Ba4  1  0.73261500  0.16574700  0.34133800  1
  Ba  Ba5  1  0.23261500  0.83425300  0.34133800  1
  Ba  Ba6  1  0.23261500  0.33425300  0.15866200  1
  Ba  Ba7  1  0.73261500  0.66574700  0.15866200  1
  Ca  Ca8  1  0.75000000  0.14871300  0.00000000  1
  Ca  Ca9  1  0.25000000  0.85128700  0.00000000  1
  Ca  Ca10  1  0.25000000  0.35128700  0.50000000  1
  Ca  Ca11  1  0.75000000  0.64871300  0.50000000  1
  I  I12  1  0.94877900  0.92058800  0.92409500  1
  I  I13  1  0.44877900  0.07941200  0.92409500  1
  I  I14  1  0.92060700  0.38302600  0.92361400  1
  I  I15  1  0.42060700  0.61697400  0.92361400  1
  I  I16  1  0.11277800  0.60974400  0.76117600  1
  I  I17  1  0.61277800  0.39025600  0.76117600  1
  I  I18  1  0.11277800  0.10974400  0.73882400  1
  I  I19  1  0.61277800  0.89025600  0.73882400  1
  I  I20  1  0.42060700  0.11697400  0.57638600  1
  I  I21  1  0.92060700  0.88302600  0.57638600  1
  I  I22  1  0.94877900  0.42058800  0.57590500  1
  I  I23  1  0.44877900  0.57941200  0.57590500  1
  I  I24  1  0.55122100  0.42058800  0.42409500  1
  I  I25  1  0.05122100  0.57941200  0.42409500  1
  I  I26  1  0.07939300  0.11697400  0.42361400  1
  I  I27  1  0.57939300  0.88302600  0.42361400  1
  I  I28  1  0.38722200  0.10974400  0.26117600  1
  I  I29  1  0.88722200  0.89025600  0.26117600  1
  I  I30  1  0.88722200  0.39025600  0.23882400  1
  I  I31  1  0.38722200  0.60974400  0.23882400  1
  I  I32  1  0.57939300  0.38302600  0.07638600  1
  I  I33  1  0.07939300  0.61697400  0.07638600  1
  I  I34  1  0.05122100  0.07941200  0.07590500  1
  I  I35  1  0.55122100  0.92058800  0.07590500  1
