# generated using pymatgen
data_La2WO6
_symmetry_space_group_name_H-M   'P 1'
_cell_length_a   8.02409000
_cell_length_b   5.65217700
_cell_length_c   11.99763521
_cell_angle_alpha   90.00000000
_cell_angle_beta   103.44967776
_cell_angle_gamma   90.00000000
_symmetry_Int_Tables_number   1
_chemical_formula_structural   La2WO6
_chemical_formula_sum   'La8 W4 O24'
_cell_volume   529.21252116
_cell_formula_units_Z   4
loop_
 _symmetry_equiv_pos_site_id
 _symmetry_equiv_pos_as_xyz
  1  'x, y, z'
loop_
 _atom_site_type_symbol
 _atom_site_label
 _atom_site_symmetry_multiplicity
 _atom_site_fract_x
 _atom_site_fract_y
 _atom_site_fract_z
 _atom_site_occupancy
  La  La0  1  0.00000000  0.26195100  0.75000000  1
  La  La1  1  0.00000000  0.73804900  0.25000000  1
  La  La2  1  0.79697000  0.80406400  0.92353100  1
  La  La3  1  0.79697000  0.19593600  0.42353100  1
  La  La4  1  0.50000000  0.31544000  0.75000000  1
  La  La5  1  0.50000000  0.68456000  0.25000000  1
  La  La6  1  0.20303000  0.80406400  0.57646900  1
  La  La7  1  0.20303000  0.19593600  0.07646900  1
  W  W8  1  0.72210700  0.74782100  0.61370200  1
  W  W9  1  0.72210700  0.25217900  0.11370200  1
  W  W10  1  0.27789300  0.74782100  0.88629800  1
  W  W11  1  0.27789300  0.25217900  0.38629800  1
  O  O12  1  0.93136400  0.95606300  0.60321900  1
  O  O13  1  0.85091900  0.49103600  0.57028800  1
  O  O14  1  0.93136400  0.04393700  0.10321900  1
  O  O15  1  0.78060000  0.54229500  0.76524300  1
  O  O16  1  0.85091900  0.50896400  0.07028800  1
  O  O17  1  0.70791600  0.00327100  0.72384700  1
  O  O18  1  0.78060000  0.45770500  0.26524300  1
  O  O19  1  0.63773400  0.15106300  0.95958800  1
  O  O20  1  0.49885000  0.63677000  0.61134900  1
  O  O21  1  0.70791600  0.99672900  0.22384700  1
  O  O22  1  0.50115000  0.63677000  0.88865100  1
  O  O23  1  0.36226600  0.15106300  0.54041200  1
  O  O24  1  0.63773400  0.84893700  0.45958800  1
  O  O25  1  0.49885000  0.36323000  0.11134900  1
  O  O26  1  0.29208400  0.00327100  0.77615300  1
  O  O27  1  0.50115000  0.36323000  0.38865100  1
  O  O28  1  0.36226600  0.84893700  0.04041200  1
  O  O29  1  0.21940000  0.54229500  0.73475700  1
  O  O30  1  0.29208400  0.99672900  0.27615300  1
  O  O31  1  0.14908100  0.49103600  0.92971200  1
  O  O32  1  0.21940000  0.45770500  0.23475700  1
  O  O33  1  0.06863600  0.95606300  0.89678100  1
  O  O34  1  0.14908100  0.50896400  0.42971200  1
  O  O35  1  0.06863600  0.04393700  0.39678100  1
