# generated using pymatgen
data_Lu3AlO6
_symmetry_space_group_name_H-M   'P 1'
_cell_length_a   9.06272600
_cell_length_b   9.06272600
_cell_length_c   10.51966236
_cell_angle_alpha   90.00000000
_cell_angle_beta   90.00000000
_cell_angle_gamma   120.00000000
_symmetry_Int_Tables_number   1
_chemical_formula_structural   Lu3AlO6
_chemical_formula_sum   'Lu18 Al6 O36'
_cell_volume   748.25586996
_cell_formula_units_Z   6
loop_
 _symmetry_equiv_pos_site_id
 _symmetry_equiv_pos_as_xyz
  1  'x, y, z'
loop_
 _atom_site_type_symbol
 _atom_site_label
 _atom_site_symmetry_multiplicity
 _atom_site_fract_x
 _atom_site_fract_y
 _atom_site_fract_z
 _atom_site_occupancy
  Lu  Lu0  1  0.22565767  0.95839633  0.70479433  1
  Lu  Lu1  1  0.26726133  0.22565767  0.29520567  1
  Lu  Lu2  1  0.95839633  0.73273867  0.29520567  1
  Lu  Lu3  1  0.04160367  0.26726133  0.70479433  1
  Lu  Lu4  1  0.73273867  0.77434233  0.70479433  1
  Lu  Lu5  1  0.77434233  0.04160367  0.29520567  1
  Lu  Lu6  1  0.89232433  0.29172967  0.03812767  1
  Lu  Lu7  1  0.93392800  0.55899100  0.62853900  1
  Lu  Lu8  1  0.62506300  0.06607200  0.62853900  1
  Lu  Lu9  1  0.70827033  0.60059467  0.03812767  1
  Lu  Lu10  1  0.39940533  0.10767567  0.03812767  1
  Lu  Lu11  1  0.44100900  0.37493700  0.62853900  1
  Lu  Lu12  1  0.55899100  0.62506300  0.37146100  1
  Lu  Lu13  1  0.60059467  0.89232433  0.96187233  1
  Lu  Lu14  1  0.29172967  0.39940533  0.96187233  1
  Lu  Lu15  1  0.37493700  0.93392800  0.37146100  1
  Lu  Lu16  1  0.06607200  0.44100900  0.37146100  1
  Lu  Lu17  1  0.10767567  0.70827033  0.96187233  1
  Al  Al18  1  0.00000000  0.00000000  0.00000000  1
  Al  Al19  1  0.00000000  0.00000000  0.50000000  1
  Al  Al20  1  0.66666667  0.33333333  0.33333333  1
  Al  Al21  1  0.66666667  0.33333333  0.83333333  1
  Al  Al22  1  0.33333333  0.66666667  0.66666667  1
  Al  Al23  1  0.33333333  0.66666667  0.16666667  1
  O  O24  1  0.35992833  0.86618567  0.56990967  1
  O  O25  1  0.49374267  0.35992833  0.43009033  1
  O  O26  1  0.15479167  0.97254533  0.38715233  1
  O  O27  1  0.86618567  0.50625733  0.43009033  1
  O  O28  1  0.18224633  0.15479167  0.61284767  1
  O  O29  1  0.97254533  0.81775367  0.61284767  1
  O  O30  1  0.02745467  0.18224633  0.38715233  1
  O  O31  1  0.81775367  0.84520833  0.38715233  1
  O  O32  1  0.13381433  0.49374267  0.56990967  1
  O  O33  1  0.84520833  0.02745467  0.61284767  1
  O  O34  1  0.50625733  0.64007167  0.56990967  1
  O  O35  1  0.64007167  0.13381433  0.43009033  1
  O  O36  1  0.02659500  0.19951900  0.90324300  1
  O  O37  1  0.16040933  0.69326167  0.76342367  1
  O  O38  1  0.82145833  0.30587867  0.72048567  1
  O  O39  1  0.53285233  0.83959067  0.76342367  1
  O  O40  1  0.84891300  0.48812500  0.94618100  1
  O  O41  1  0.63921200  0.15108700  0.94618100  1
  O  O42  1  0.69412133  0.51557967  0.72048567  1
  O  O43  1  0.48442033  0.17854167  0.72048567  1
  O  O44  1  0.80048100  0.82707600  0.90324300  1
  O  O45  1  0.51187500  0.36078800  0.94618100  1
  O  O46  1  0.17292400  0.97340500  0.90324300  1
  O  O47  1  0.30673833  0.46714767  0.76342367  1
  O  O48  1  0.69326167  0.53285233  0.23657633  1
  O  O49  1  0.82707600  0.02659500  0.09675700  1
  O  O50  1  0.48812500  0.63921200  0.05381900  1
  O  O51  1  0.19951900  0.17292400  0.09675700  1
  O  O52  1  0.51557967  0.82145833  0.27951433  1
  O  O53  1  0.30587867  0.48442033  0.27951433  1
  O  O54  1  0.36078800  0.84891300  0.05381900  1
  O  O55  1  0.15108700  0.51187500  0.05381900  1
  O  O56  1  0.46714767  0.16040933  0.23657633  1
  O  O57  1  0.17854167  0.69412133  0.27951433  1
  O  O58  1  0.83959067  0.30673833  0.23657633  1
  O  O59  1  0.97340500  0.80048100  0.09675700  1
