# generated using pymatgen
data_Li8HfO6
_symmetry_space_group_name_H-M   'P 1'
_cell_length_a   5.51506032
_cell_length_b   5.51506032
_cell_length_c   15.53801040
_cell_angle_alpha   90.00000000
_cell_angle_beta   90.00000000
_cell_angle_gamma   120.00000000
_symmetry_Int_Tables_number   1
_chemical_formula_structural   Li8HfO6
_chemical_formula_sum   'Li24 Hf3 O18'
_cell_volume   409.28570188
_cell_formula_units_Z   3
loop_
 _symmetry_equiv_pos_site_id
 _symmetry_equiv_pos_as_xyz
  1  'x, y, z'
loop_
 _atom_site_type_symbol
 _atom_site_label
 _atom_site_symmetry_multiplicity
 _atom_site_fract_x
 _atom_site_fract_y
 _atom_site_fract_z
 _atom_site_occupancy
  Li  Li0  1  0.98168033  0.35568467  0.12132367  1
  Li  Li1  1  0.29266233  0.31501367  0.21200967  1
  Li  Li2  1  0.02235133  0.70733767  0.21200967  1
  Li  Li3  1  0.33333333  0.66666667  0.01128267  1
  Li  Li4  1  0.33333333  0.66666667  0.32205067  1
  Li  Li5  1  0.64431533  0.62599567  0.12132367  1
  Li  Li6  1  0.37400433  0.01831967  0.12132367  1
  Li  Li7  1  0.68498633  0.97764867  0.21200967  1
  Li  Li8  1  0.64834700  0.68901800  0.45465700  1
  Li  Li9  1  0.95932900  0.64834700  0.54534300  1
  Li  Li10  1  0.68901800  0.04067100  0.54534300  1
  Li  Li11  1  0.00000000  0.00000000  0.34461600  1
  Li  Li12  1  0.00000000  0.00000000  0.65538400  1
  Li  Li13  1  0.31098200  0.95932900  0.45465700  1
  Li  Li14  1  0.04067100  0.35165300  0.45465700  1
  Li  Li15  1  0.35165300  0.31098200  0.54534300  1
  Li  Li16  1  0.31501367  0.02235133  0.78799033  1
  Li  Li17  1  0.62599567  0.98168033  0.87867633  1
  Li  Li18  1  0.35568467  0.37400433  0.87867633  1
  Li  Li19  1  0.66666667  0.33333333  0.67794933  1
  Li  Li20  1  0.66666667  0.33333333  0.98871733  1
  Li  Li21  1  0.97764867  0.29266233  0.78799033  1
  Li  Li22  1  0.70733767  0.68498633  0.78799033  1
  Li  Li23  1  0.01831967  0.64431533  0.87867633  1
  Hf  Hf24  1  0.00000000  0.00000000  0.00000000  1
  Hf  Hf25  1  0.66666667  0.33333333  0.33333333  1
  Hf  Hf26  1  0.33333333  0.66666667  0.66666667  1
  O  O27  1  0.98137867  0.34456133  0.25267333  1
  O  O28  1  0.30348400  0.31471200  0.08066000  1
  O  O29  1  0.01122800  0.69651600  0.08066000  1
  O  O30  1  0.65543867  0.63681733  0.25267333  1
  O  O31  1  0.36318267  0.01862133  0.25267333  1
  O  O32  1  0.68528800  0.98877200  0.08066000  1
  O  O33  1  0.64804533  0.67789467  0.58600667  1
  O  O34  1  0.97015067  0.64804533  0.41399333  1
  O  O35  1  0.67789467  0.02984933  0.41399333  1
  O  O36  1  0.32210533  0.97015067  0.58600667  1
  O  O37  1  0.02984933  0.35195467  0.58600667  1
  O  O38  1  0.35195467  0.32210533  0.41399333  1
  O  O39  1  0.31471200  0.01122800  0.91934000  1
  O  O40  1  0.63681733  0.98137867  0.74732667  1
  O  O41  1  0.34456133  0.36318267  0.74732667  1
  O  O42  1  0.98877200  0.30348400  0.91934000  1
  O  O43  1  0.69651600  0.68528800  0.91934000  1
  O  O44  1  0.01862133  0.65543867  0.74732667  1
