# generated using pymatgen
data_LiAgF3
_symmetry_space_group_name_H-M   'P 1'
_cell_length_a   9.85762400
_cell_length_b   9.36334400
_cell_length_c   6.06056383
_cell_angle_alpha   90.00000000
_cell_angle_beta   93.07634896
_cell_angle_gamma   90.00000000
_symmetry_Int_Tables_number   1
_chemical_formula_structural   LiAgF3
_chemical_formula_sum   'Li8 Ag8 F24'
_cell_volume   558.58587303
_cell_formula_units_Z   8
loop_
 _symmetry_equiv_pos_site_id
 _symmetry_equiv_pos_as_xyz
  1  'x, y, z'
loop_
 _atom_site_type_symbol
 _atom_site_label
 _atom_site_symmetry_multiplicity
 _atom_site_fract_x
 _atom_site_fract_y
 _atom_site_fract_z
 _atom_site_occupancy
  Li  Li0  1  0.18456300  0.91316700  0.80543800  1
  Li  Li1  1  0.18456300  0.08683300  0.30543800  1
  Li  Li2  1  0.81543700  0.91316700  0.69456200  1
  Li  Li3  1  0.81543700  0.08683300  0.19456200  1
  Li  Li4  1  0.68456300  0.41316700  0.80543800  1
  Li  Li5  1  0.68456300  0.58683300  0.30543800  1
  Li  Li6  1  0.31543700  0.41316700  0.69456200  1
  Li  Li7  1  0.31543700  0.58683300  0.19456200  1
  Ag  Ag8  1  0.50000000  0.71018600  0.75000000  1
  Ag  Ag9  1  0.50000000  0.90934900  0.25000000  1
  Ag  Ag10  1  0.50000000  0.09065100  0.75000000  1
  Ag  Ag11  1  0.50000000  0.28981400  0.25000000  1
  Ag  Ag12  1  0.00000000  0.21018600  0.75000000  1
  Ag  Ag13  1  0.00000000  0.40934900  0.25000000  1
  Ag  Ag14  1  0.00000000  0.59065100  0.75000000  1
  Ag  Ag15  1  0.00000000  0.78981400  0.25000000  1
  F  F16  1  0.13639500  0.93836200  0.10473400  1
  F  F17  1  0.37508200  0.75278700  0.35687400  1
  F  F18  1  0.13639500  0.06163800  0.60473400  1
  F  F19  1  0.38521150  0.90887250  0.83571900  1
  F  F20  1  0.62491800  0.75278700  0.14312600  1
  F  F21  1  0.38521150  0.09112750  0.33571900  1
  F  F22  1  0.61478850  0.90887250  0.66428100  1
  F  F23  1  0.37508200  0.24721300  0.85687400  1
  F  F24  1  0.61478850  0.09112750  0.16428100  1
  F  F25  1  0.86360500  0.93836200  0.39526600  1
  F  F26  1  0.62491800  0.24721300  0.64312600  1
  F  F27  1  0.86360500  0.06163800  0.89526600  1
  F  F28  1  0.63639500  0.43836200  0.10473400  1
  F  F29  1  0.87508200  0.25278700  0.35687400  1
  F  F30  1  0.63639500  0.56163800  0.60473400  1
  F  F31  1  0.88521150  0.40887250  0.83571900  1
  F  F32  1  0.12491800  0.25278700  0.14312600  1
  F  F33  1  0.88521150  0.59112750  0.33571900  1
  F  F34  1  0.11478850  0.40887250  0.66428100  1
  F  F35  1  0.87508200  0.74721300  0.85687400  1
  F  F36  1  0.11478850  0.59112750  0.16428100  1
  F  F37  1  0.36360500  0.43836200  0.39526600  1
  F  F38  1  0.12491800  0.74721300  0.64312600  1
  F  F39  1  0.36360500  0.56163800  0.89526600  1
