# generated using pymatgen
data_Tb3TaO7
_symmetry_space_group_name_H-M   'P 1'
_cell_length_a   7.41511200
_cell_length_b   10.66484800
_cell_length_c   7.55691300
_cell_angle_alpha   90.00000000
_cell_angle_beta   90.00000000
_cell_angle_gamma   90.00000000
_symmetry_Int_Tables_number   1
_chemical_formula_structural   Tb3TaO7
_chemical_formula_sum   'Tb12 Ta4 O28'
_cell_volume   597.60855724
_cell_formula_units_Z   4
loop_
 _symmetry_equiv_pos_site_id
 _symmetry_equiv_pos_as_xyz
  1  'x, y, z'
loop_
 _atom_site_type_symbol
 _atom_site_label
 _atom_site_symmetry_multiplicity
 _atom_site_fract_x
 _atom_site_fract_y
 _atom_site_fract_z
 _atom_site_occupancy
  Tb  Tb0  1  0.28521350  0.23000850  0.25000000  1
  Tb  Tb1  1  0.71478650  0.23000850  0.75000000  1
  Tb  Tb2  1  0.00000000  0.00000000  0.00000000  1
  Tb  Tb3  1  0.00000000  0.00000000  0.50000000  1
  Tb  Tb4  1  0.28521350  0.76999150  0.25000000  1
  Tb  Tb5  1  0.71478650  0.76999150  0.75000000  1
  Tb  Tb6  1  0.78521350  0.73000850  0.25000000  1
  Tb  Tb7  1  0.21478650  0.73000850  0.75000000  1
  Tb  Tb8  1  0.50000000  0.50000000  0.00000000  1
  Tb  Tb9  1  0.50000000  0.50000000  0.50000000  1
  Tb  Tb10  1  0.78521350  0.26999150  0.25000000  1
  Tb  Tb11  1  0.21478650  0.26999150  0.75000000  1
  Ta  Ta12  1  0.50000000  0.00000000  0.00000000  1
  Ta  Ta13  1  0.50000000  0.00000000  0.50000000  1
  Ta  Ta14  1  0.00000000  0.50000000  0.00000000  1
  Ta  Ta15  1  0.00000000  0.50000000  0.50000000  1
  O  O16  1  0.51944800  0.36751900  0.25000000  1
  O  O17  1  0.48055200  0.36751900  0.75000000  1
  O  O18  1  0.69225900  0.12890200  0.03409300  1
  O  O19  1  0.69225900  0.12890200  0.46590700  1
  O  O20  1  0.30774100  0.12890200  0.96590700  1
  O  O21  1  0.30774100  0.12890200  0.53409300  1
  O  O22  1  0.57566100  0.00000000  0.75000000  1
  O  O23  1  0.42433900  0.00000000  0.25000000  1
  O  O24  1  0.69225900  0.87109800  0.03409300  1
  O  O25  1  0.30774100  0.87109800  0.53409300  1
  O  O26  1  0.69225900  0.87109800  0.46590700  1
  O  O27  1  0.30774100  0.87109800  0.96590700  1
  O  O28  1  0.48055200  0.63248100  0.75000000  1
  O  O29  1  0.51944800  0.63248100  0.25000000  1
  O  O30  1  0.01944800  0.86751900  0.25000000  1
  O  O31  1  0.98055200  0.86751900  0.75000000  1
  O  O32  1  0.19225900  0.62890200  0.03409300  1
  O  O33  1  0.19225900  0.62890200  0.46590700  1
  O  O34  1  0.80774100  0.62890200  0.96590700  1
  O  O35  1  0.80774100  0.62890200  0.53409300  1
  O  O36  1  0.07566100  0.50000000  0.75000000  1
  O  O37  1  0.92433900  0.50000000  0.25000000  1
  O  O38  1  0.19225900  0.37109800  0.03409300  1
  O  O39  1  0.80774100  0.37109800  0.53409300  1
  O  O40  1  0.19225900  0.37109800  0.46590700  1
  O  O41  1  0.80774100  0.37109800  0.96590700  1
  O  O42  1  0.98055200  0.13248100  0.75000000  1
  O  O43  1  0.01944800  0.13248100  0.25000000  1
