# generated using pymatgen
data_Na5Fe2P2(CO7)2
_symmetry_space_group_name_H-M   'P 1'
_cell_length_a   9.01531225
_cell_length_b   6.59432200
_cell_length_c   10.50312000
_cell_angle_alpha   90.00000000
_cell_angle_beta   90.47793481
_cell_angle_gamma   90.00000000
_symmetry_Int_Tables_number   1
_chemical_formula_structural   Na5Fe2P2(CO7)2
_chemical_formula_sum   'Na10 Fe4 P4 C4 O28'
_cell_volume   624.38741517
_cell_formula_units_Z   2
loop_
 _symmetry_equiv_pos_site_id
 _symmetry_equiv_pos_as_xyz
  1  'x, y, z'
loop_
 _atom_site_type_symbol
 _atom_site_label
 _atom_site_symmetry_multiplicity
 _atom_site_fract_x
 _atom_site_fract_y
 _atom_site_fract_z
 _atom_site_occupancy
  Na  Na0  1  0.91312400  0.00140600  0.38397100  1
  Na  Na1  1  0.91312400  0.99859400  0.88397100  1
  Na  Na2  1  0.73306200  0.23027300  0.12604900  1
  Na  Na3  1  0.73306200  0.76972700  0.62604900  1
  Na  Na4  1  0.26161100  0.75342300  0.37511700  1
  Na  Na5  1  0.26133000  0.24694100  0.37246900  1
  Na  Na6  1  0.26133000  0.75305900  0.87246900  1
  Na  Na7  1  0.26161100  0.24657700  0.87511700  1
  Na  Na8  1  0.07340400  0.50905400  0.12116900  1
  Na  Na9  1  0.07340400  0.49094600  0.62116900  1
  Fe  Fe10  1  0.65410900  0.49677300  0.39305500  1
  Fe  Fe11  1  0.65410900  0.50322700  0.89305500  1
  Fe  Fe12  1  0.35221500  0.99796300  0.11155900  1
  Fe  Fe13  1  0.35221500  0.00203700  0.61155900  1
  P  P14  1  0.58224800  0.99963600  0.35029000  1
  P  P15  1  0.58224800  0.00036400  0.85029000  1
  P  P16  1  0.42111700  0.49864800  0.14344400  1
  P  P17  1  0.42111700  0.50135200  0.64344400  1
  C  C18  1  0.93638500  0.50161300  0.36584100  1
  C  C19  1  0.93638500  0.49838700  0.86584100  1
  C  C20  1  0.06187300  0.00459400  0.13646000  1
  C  C21  1  0.06187300  0.99540600  0.63646000  1
  O  O22  1  0.92207100  0.01778700  0.14750100  1
  O  O23  1  0.92207100  0.98221300  0.64750100  1
  O  O24  1  0.87293500  0.51580100  0.47679600  1
  O  O25  1  0.87293500  0.48419900  0.97679600  1
  O  O26  1  0.84876300  0.48839700  0.26748400  1
  O  O27  1  0.84876300  0.51160300  0.76748400  1
  O  O28  1  0.67835300  0.19203000  0.38320500  1
  O  O29  1  0.67699300  0.81130500  0.39284000  1
  O  O30  1  0.67699300  0.18869500  0.89284000  1
  O  O31  1  0.67835300  0.80797000  0.88320500  1
  O  O32  1  0.56582000  0.49174500  0.06544300  1
  O  O33  1  0.56582000  0.50825500  0.56544300  1
  O  O34  1  0.55453600  0.00019400  0.20556400  1
  O  O35  1  0.55453600  0.99980600  0.70556400  1
  O  O36  1  0.46413900  0.50033300  0.28907500  1
  O  O37  1  0.46413900  0.49966700  0.78907500  1
  O  O38  1  0.43370000  0.00187400  0.42255700  1
  O  O39  1  0.43370000  0.99812600  0.92255700  1
  O  O40  1  0.32275600  0.68460000  0.11210800  1
  O  O41  1  0.31945300  0.31316000  0.11633700  1
  O  O42  1  0.31945300  0.68684000  0.61633700  1
  O  O43  1  0.32275600  0.31540000  0.61210800  1
  O  O44  1  0.14923000  0.99678400  0.23737300  1
  O  O45  1  0.14923000  0.00321600  0.73737300  1
  O  O46  1  0.12522300  0.99771900  0.02408600  1
  O  O47  1  0.12522300  0.00228100  0.52408600  1
  O  O48  1  0.07903000  0.50052700  0.35541600  1
  O  O49  1  0.07903000  0.49947300  0.85541600  1
