# generated using pymatgen
data_La3B5O12
_symmetry_space_group_name_H-M   'P 1'
_cell_length_a   6.63351800
_cell_length_b   8.05691000
_cell_length_c   18.32339600
_cell_angle_alpha   90.00000000
_cell_angle_beta   90.00000000
_cell_angle_gamma   90.00000000
_symmetry_Int_Tables_number   1
_chemical_formula_structural   La3B5O12
_chemical_formula_sum   'La12 B20 O48'
_cell_volume   979.30594702
_cell_formula_units_Z   4
loop_
 _symmetry_equiv_pos_site_id
 _symmetry_equiv_pos_as_xyz
  1  'x, y, z'
loop_
 _atom_site_type_symbol
 _atom_site_label
 _atom_site_symmetry_multiplicity
 _atom_site_fract_x
 _atom_site_fract_y
 _atom_site_fract_z
 _atom_site_occupancy
  La  La0  1  0.01768900  0.01078000  0.89853100  1
  La  La1  1  0.01768900  0.48922000  0.89853100  1
  La  La2  1  0.01023400  0.75000000  0.32001200  1
  La  La3  1  0.48976600  0.25000000  0.82001200  1
  La  La4  1  0.48231100  0.51078000  0.39853100  1
  La  La5  1  0.48231100  0.98922000  0.39853100  1
  La  La6  1  0.51768900  0.01078000  0.60146900  1
  La  La7  1  0.51768900  0.48922000  0.60146900  1
  La  La8  1  0.51023400  0.75000000  0.17998800  1
  La  La9  1  0.98976600  0.25000000  0.67998800  1
  La  La10  1  0.98231100  0.51078000  0.10146900  1
  La  La11  1  0.98231100  0.98922000  0.10146900  1
  B  B12  1  0.06627300  0.25000000  0.38749600  1
  B  B13  1  0.12341800  0.09895000  0.26536300  1
  B  B14  1  0.12341800  0.40105000  0.26536300  1
  B  B15  1  0.15933100  0.25000000  0.51987500  1
  B  B16  1  0.21472100  0.75000000  0.51509600  1
  B  B17  1  0.28527900  0.25000000  0.01509600  1
  B  B18  1  0.34066900  0.75000000  0.01987500  1
  B  B19  1  0.37658200  0.59895000  0.76536300  1
  B  B20  1  0.37658200  0.90105000  0.76536300  1
  B  B21  1  0.43372700  0.75000000  0.88749600  1
  B  B22  1  0.56627300  0.25000000  0.11250400  1
  B  B23  1  0.62341800  0.09895000  0.23463700  1
  B  B24  1  0.62341800  0.40105000  0.23463700  1
  B  B25  1  0.65933100  0.25000000  0.98012500  1
  B  B26  1  0.71472100  0.75000000  0.98490400  1
  B  B27  1  0.78527900  0.25000000  0.48490400  1
  B  B28  1  0.84066900  0.75000000  0.48012500  1
  B  B29  1  0.87658200  0.90105000  0.73463700  1
  B  B30  1  0.87658200  0.59895000  0.73463700  1
  B  B31  1  0.93372700  0.75000000  0.61250400  1
  O  O32  1  0.04020600  0.75000000  0.46158000  1
  O  O33  1  0.12252300  0.09720400  0.34103300  1
  O  O34  1  0.12252300  0.40279600  0.34103300  1
  O  O35  1  0.09244900  0.25000000  0.22819900  1
  O  O36  1  0.13582100  0.75000000  0.59142200  1
  O  O37  1  0.14854300  0.54354700  0.22786400  1
  O  O38  1  0.14854300  0.95645300  0.22786400  1
  O  O39  1  0.17174400  0.25000000  0.84737300  1
  O  O40  1  0.16655600  0.10042900  0.00337900  1
  O  O41  1  0.16655600  0.39957100  0.00337900  1
  O  O42  1  0.21179400  0.75000000  0.07888300  1
  O  O43  1  0.22139500  0.25000000  0.44685000  1
  O  O44  1  0.27860500  0.75000000  0.94685000  1
  O  O45  1  0.28820600  0.25000000  0.57888300  1
  O  O46  1  0.33344400  0.60042900  0.50337900  1
  O  O47  1  0.33344400  0.89957100  0.50337900  1
  O  O48  1  0.32825600  0.75000000  0.34737300  1
  O  O49  1  0.35145700  0.45645300  0.72786400  1
  O  O50  1  0.35145700  0.04354700  0.72786400  1
  O  O51  1  0.36417900  0.25000000  0.09142200  1
  O  O52  1  0.40755100  0.75000000  0.72819900  1
  O  O53  1  0.37747700  0.59720400  0.84103300  1
  O  O54  1  0.37747700  0.90279600  0.84103300  1
  O  O55  1  0.45979400  0.25000000  0.96158000  1
  O  O56  1  0.54020600  0.75000000  0.03842000  1
  O  O57  1  0.62252300  0.09720400  0.15896700  1
  O  O58  1  0.62252300  0.40279600  0.15896700  1
  O  O59  1  0.59244900  0.25000000  0.27180100  1
  O  O60  1  0.63582100  0.75000000  0.90857800  1
  O  O61  1  0.64854300  0.54354700  0.27213600  1
  O  O62  1  0.64854300  0.95645300  0.27213600  1
  O  O63  1  0.67174400  0.25000000  0.65262700  1
  O  O64  1  0.66655600  0.10042900  0.49662100  1
  O  O65  1  0.66655600  0.39957100  0.49662100  1
  O  O66  1  0.71179400  0.75000000  0.42111700  1
  O  O67  1  0.72139500  0.25000000  0.05315000  1
  O  O68  1  0.77860500  0.75000000  0.55315000  1
  O  O69  1  0.78820600  0.25000000  0.92111700  1
  O  O70  1  0.83344400  0.89957100  0.99662100  1
  O  O71  1  0.83344400  0.60042900  0.99662100  1
  O  O72  1  0.82825600  0.75000000  0.15262700  1
  O  O73  1  0.85145700  0.04354700  0.77213600  1
  O  O74  1  0.85145700  0.45645300  0.77213600  1
  O  O75  1  0.86417900  0.25000000  0.40857800  1
  O  O76  1  0.90755100  0.75000000  0.77180100  1
  O  O77  1  0.87747700  0.90279600  0.65896700  1
  O  O78  1  0.87747700  0.59720400  0.65896700  1
  O  O79  1  0.95979400  0.25000000  0.53842000  1
