# generated using pymatgen
data_K2P2Pd
_symmetry_space_group_name_H-M   'P 1'
_cell_length_a   6.39972000
_cell_length_b   14.27508600
_cell_length_c   5.97537100
_cell_angle_alpha   90.00000000
_cell_angle_beta   90.00000000
_cell_angle_gamma   90.00000000
_symmetry_Int_Tables_number   1
_chemical_formula_structural   K2P2Pd
_chemical_formula_sum   'K8 P8 Pd4'
_cell_volume   545.88929970
_cell_formula_units_Z   4
loop_
 _symmetry_equiv_pos_site_id
 _symmetry_equiv_pos_as_xyz
  1  'x, y, z'
loop_
 _atom_site_type_symbol
 _atom_site_label
 _atom_site_symmetry_multiplicity
 _atom_site_fract_x
 _atom_site_fract_y
 _atom_site_fract_z
 _atom_site_occupancy
  K  K0  1  0.50000000  0.28803200  0.25000000  1
  K  K1  1  0.00000000  0.42475800  0.25000000  1
  K  K2  1  0.00000000  0.21196800  0.75000000  1
  K  K3  1  0.50000000  0.07524200  0.75000000  1
  K  K4  1  0.00000000  0.78803200  0.25000000  1
  K  K5  1  0.50000000  0.92475800  0.25000000  1
  K  K6  1  0.50000000  0.71196800  0.75000000  1
  K  K7  1  0.00000000  0.57524200  0.75000000  1
  P  P8  1  0.17012900  0.11067400  0.25000000  1
  P  P9  1  0.67012900  0.38932600  0.75000000  1
  P  P10  1  0.32987100  0.38932600  0.75000000  1
  P  P11  1  0.82987100  0.11067400  0.25000000  1
  P  P12  1  0.67012900  0.61067400  0.25000000  1
  P  P13  1  0.17012900  0.88932600  0.75000000  1
  P  P14  1  0.82987100  0.88932600  0.75000000  1
  P  P15  1  0.32987100  0.61067400  0.25000000  1
  Pd  Pd16  1  0.00000000  0.00000000  0.50000000  1
  Pd  Pd17  1  0.00000000  0.00000000  0.00000000  1
  Pd  Pd18  1  0.50000000  0.50000000  0.50000000  1
  Pd  Pd19  1  0.50000000  0.50000000  0.00000000  1
