# generated using pymatgen
data_Li2MnF5
_symmetry_space_group_name_H-M   'P 1'
_cell_length_a   5.72811700
_cell_length_b   11.44669600
_cell_length_c   6.13986224
_cell_angle_alpha   90.00000000
_cell_angle_beta   95.87099313
_cell_angle_gamma   90.00000000
_symmetry_Int_Tables_number   1
_chemical_formula_structural   Li2MnF5
_chemical_formula_sum   'Li8 Mn4 F20'
_cell_volume   400.46693939
_cell_formula_units_Z   4
loop_
 _symmetry_equiv_pos_site_id
 _symmetry_equiv_pos_as_xyz
  1  'x, y, z'
loop_
 _atom_site_type_symbol
 _atom_site_label
 _atom_site_symmetry_multiplicity
 _atom_site_fract_x
 _atom_site_fract_y
 _atom_site_fract_z
 _atom_site_occupancy
  Li  Li0  1  0.86724900  0.67372800  0.00592900  1
  Li  Li1  1  0.66179200  0.14479000  0.18245600  1
  Li  Li2  1  0.49507000  0.36552800  0.33415600  1
  Li  Li3  1  0.02949800  0.41272900  0.32720600  1
  Li  Li4  1  0.97050200  0.91272900  0.67279400  1
  Li  Li5  1  0.50493000  0.86552800  0.66584400  1
  Li  Li6  1  0.33820800  0.64479000  0.81754400  1
  Li  Li7  1  0.13275100  0.17372800  0.99407100  1
  Mn  Mn8  1  0.55135300  0.87407700  0.14021300  1
  Mn  Mn9  1  0.15263800  0.13192900  0.50375400  1
  Mn  Mn10  1  0.84736200  0.63192900  0.49624600  1
  Mn  Mn11  1  0.44864700  0.37407700  0.85978700  1
  F  F12  1  0.31902100  0.81218400  0.92404900  1
  F  F13  1  0.21760100  0.35862900  0.09593300  1
  F  F14  1  0.46637100  0.02285800  0.04940800  1
  F  F15  1  0.63225500  0.71822000  0.21238200  1
  F  F16  1  0.02808700  0.58537000  0.26606200  1
  F  F17  1  0.97510300  0.09783300  0.20314000  1
  F  F18  1  0.41528800  0.19278900  0.35903800  1
  F  F19  1  0.02055300  0.76932000  0.51554400  1
  F  F20  1  0.31657300  0.42531100  0.58268900  1
  F  F21  1  0.26800300  0.97773700  0.53210200  1
  F  F22  1  0.73199700  0.47773700  0.46789800  1
  F  F23  1  0.68342700  0.92531100  0.41731100  1
  F  F24  1  0.97944700  0.26932000  0.48445600  1
  F  F25  1  0.58471200  0.69278900  0.64096200  1
  F  F26  1  0.02489700  0.59783300  0.79686000  1
  F  F27  1  0.97191300  0.08537000  0.73393800  1
  F  F28  1  0.36774500  0.21822000  0.78761800  1
  F  F29  1  0.53362900  0.52285800  0.95059200  1
  F  F30  1  0.78239900  0.85862900  0.90406700  1
  F  F31  1  0.68097900  0.31218400  0.07595100  1
