# generated using pymatgen
data_BaSr2I6
_symmetry_space_group_name_H-M   'P 1'
_cell_length_a   9.98836300
_cell_length_b   9.98115800
_cell_length_c   18.22912174
_cell_angle_alpha   90.00000000
_cell_angle_beta   116.93926421
_cell_angle_gamma   90.00000000
_symmetry_Int_Tables_number   1
_chemical_formula_structural   BaSr2I6
_chemical_formula_sum   'Ba4 Sr8 I24'
_cell_volume   1620.15341184
_cell_formula_units_Z   4
loop_
 _symmetry_equiv_pos_site_id
 _symmetry_equiv_pos_as_xyz
  1  'x, y, z'
loop_
 _atom_site_type_symbol
 _atom_site_label
 _atom_site_symmetry_multiplicity
 _atom_site_fract_x
 _atom_site_fract_y
 _atom_site_fract_z
 _atom_site_occupancy
  Ba  Ba0  1  0.91382400  0.30991700  0.58533100  1
  Ba  Ba1  1  0.08617600  0.80991700  0.91466900  1
  Ba  Ba2  1  0.91382400  0.19008300  0.08533100  1
  Ba  Ba3  1  0.08617600  0.69008300  0.41466900  1
  Sr  Sr4  1  0.31232700  0.33621400  0.91856400  1
  Sr  Sr5  1  0.62554200  0.04046800  0.25660800  1
  Sr  Sr6  1  0.37445800  0.54046800  0.24339200  1
  Sr  Sr7  1  0.68767300  0.83621400  0.58143600  1
  Sr  Sr8  1  0.31232700  0.16378600  0.41856400  1
  Sr  Sr9  1  0.62554200  0.45953200  0.75660800  1
  Sr  Sr10  1  0.37445800  0.95953200  0.74339200  1
  Sr  Sr11  1  0.68767300  0.66378600  0.08143600  1
  I  I12  1  0.95031300  0.65365500  0.56319300  1
  I  I13  1  0.69336300  0.69401700  0.27606900  1
  I  I14  1  0.61435800  0.33013500  0.12188000  1
  I  I15  1  0.77273100  0.02864200  0.45700600  1
  I  I16  1  0.44370200  0.90565600  0.07775300  1
  I  I17  1  0.03512600  0.98119900  0.72594400  1
  I  I18  1  0.96487400  0.48119900  0.77405600  1
  I  I19  1  0.22726900  0.52864200  0.04299400  1
  I  I20  1  0.55629800  0.40565600  0.42224700  1
  I  I21  1  0.38564200  0.83013500  0.37812000  1
  I  I22  1  0.30663700  0.19401700  0.22393100  1
  I  I23  1  0.04968700  0.15365500  0.93680700  1
  I  I24  1  0.95031300  0.84634500  0.06319300  1
  I  I25  1  0.69336300  0.80598300  0.77606900  1
  I  I26  1  0.61435800  0.16986500  0.62188000  1
  I  I27  1  0.44370200  0.59434400  0.57775300  1
  I  I28  1  0.77273100  0.47135800  0.95700600  1
  I  I29  1  0.03512600  0.51880100  0.22594400  1
  I  I30  1  0.96487400  0.01880100  0.27405600  1
  I  I31  1  0.55629800  0.09434400  0.92224700  1
  I  I32  1  0.22726900  0.97135800  0.54299400  1
  I  I33  1  0.38564200  0.66986500  0.87812000  1
  I  I34  1  0.30663700  0.30598300  0.72393100  1
  I  I35  1  0.04968700  0.34634500  0.43680700  1
