# generated using pymatgen
data_BeH8(NO5)2
_symmetry_space_group_name_H-M   'P 1'
_cell_length_a   11.71864200
_cell_length_b   11.71864200
_cell_length_c   6.29792600
_cell_angle_alpha   90.00000000
_cell_angle_beta   90.00000000
_cell_angle_gamma   90.00000000
_symmetry_Int_Tables_number   1
_chemical_formula_structural   BeH8(NO5)2
_chemical_formula_sum   'Be4 H32 N8 O40'
_cell_volume   864.87257774
_cell_formula_units_Z   4
loop_
 _symmetry_equiv_pos_site_id
 _symmetry_equiv_pos_as_xyz
  1  'x, y, z'
loop_
 _atom_site_type_symbol
 _atom_site_label
 _atom_site_symmetry_multiplicity
 _atom_site_fract_x
 _atom_site_fract_y
 _atom_site_fract_z
 _atom_site_occupancy
  Be  Be0  1  0.00000000  0.00000000  0.50000000  1
  Be  Be1  1  0.50000000  0.00000000  0.75000000  1
  Be  Be2  1  0.50000000  0.50000000  0.00000000  1
  Be  Be3  1  0.00000000  0.50000000  0.25000000  1
  H  H4  1  0.89541350  0.64021350  0.07845050  1
  H  H5  1  0.10458650  0.14021350  0.67154950  1
  H  H6  1  0.10458650  0.35978650  0.07845050  1
  H  H7  1  0.89541350  0.85978650  0.67154950  1
  H  H8  1  0.35978650  0.89541350  0.92154950  1
  H  H9  1  0.14021350  0.89541350  0.32845050  1
  H  H10  1  0.64021350  0.10458650  0.92154950  1
  H  H11  1  0.85978650  0.10458650  0.32845050  1
  H  H12  1  0.86310450  0.97126150  0.24344150  1
  H  H13  1  0.63689550  0.97126150  0.00655850  1
  H  H14  1  0.13689550  0.02873850  0.24344150  1
  H  H15  1  0.36310450  0.02873850  0.00655850  1
  H  H16  1  0.02873850  0.86310450  0.75655850  1
  H  H17  1  0.97126150  0.36310450  0.99344150  1
  H  H18  1  0.97126150  0.13689550  0.75655850  1
  H  H19  1  0.02873850  0.63689550  0.99344150  1
  H  H20  1  0.39541350  0.14021350  0.57845050  1
  H  H21  1  0.60458650  0.64021350  0.17154950  1
  H  H22  1  0.60458650  0.85978650  0.57845050  1
  H  H23  1  0.39541350  0.35978650  0.17154950  1
  H  H24  1  0.85978650  0.39541350  0.42154950  1
  H  H25  1  0.64021350  0.39541350  0.82845050  1
  H  H26  1  0.14021350  0.60458650  0.42154950  1
  H  H27  1  0.35978650  0.60458650  0.82845050  1
  H  H28  1  0.36310450  0.47126150  0.74344150  1
  H  H29  1  0.13689550  0.47126150  0.50655850  1
  H  H30  1  0.63689550  0.52873850  0.74344150  1
  H  H31  1  0.86310450  0.52873850  0.50655850  1
  H  H32  1  0.52873850  0.36310450  0.25655850  1
  H  H33  1  0.47126150  0.86310450  0.49344150  1
  H  H34  1  0.47126150  0.63689550  0.25655850  1
  H  H35  1  0.52873850  0.13689550  0.49344150  1
  N  N36  1  0.75000000  0.80286300  0.12500000  1
  N  N37  1  0.25000000  0.19713700  0.12500000  1
  N  N38  1  0.19713700  0.75000000  0.87500000  1
  N  N39  1  0.80286300  0.25000000  0.87500000  1
  N  N40  1  0.25000000  0.30286300  0.62500000  1
  N  N41  1  0.75000000  0.69713700  0.62500000  1
  N  N42  1  0.69713700  0.25000000  0.37500000  1
  N  N43  1  0.30286300  0.75000000  0.37500000  1
  O  O44  1  0.25000000  0.19374700  0.62500000  1
  O  O45  1  0.75000000  0.80625300  0.62500000  1
  O  O46  1  0.80625300  0.25000000  0.37500000  1
  O  O47  1  0.19374700  0.75000000  0.37500000  1
  O  O48  1  0.84247250  0.85525050  0.09403150  1
  O  O49  1  0.65752750  0.85525050  0.15596850  1
  O  O50  1  0.15752750  0.14474950  0.09403150  1
  O  O51  1  0.34247250  0.14474950  0.15596850  1
  O  O52  1  0.14474950  0.84247250  0.90596850  1
  O  O53  1  0.85525050  0.34247250  0.84403150  1
  O  O54  1  0.85525050  0.15752750  0.90596850  1
  O  O55  1  0.14474950  0.65752750  0.84403150  1
  O  O56  1  0.97349200  0.61142100  0.10519500  1
  O  O57  1  0.02650800  0.11142100  0.64480500  1
  O  O58  1  0.02650800  0.38857900  0.10519500  1
  O  O59  1  0.97349200  0.88857900  0.64480500  1
  O  O60  1  0.38857900  0.97349200  0.89480500  1
  O  O61  1  0.11142100  0.97349200  0.35519500  1
  O  O62  1  0.61142100  0.02650800  0.89480500  1
  O  O63  1  0.88857900  0.02650800  0.35519500  1
  O  O64  1  0.75000000  0.69374700  0.12500000  1
  O  O65  1  0.25000000  0.30625300  0.12500000  1
  O  O66  1  0.30625300  0.75000000  0.87500000  1
  O  O67  1  0.69374700  0.25000000  0.87500000  1
  O  O68  1  0.34247250  0.35525050  0.59403150  1
  O  O69  1  0.15752750  0.35525050  0.65596850  1
  O  O70  1  0.65752750  0.64474950  0.59403150  1
  O  O71  1  0.84247250  0.64474950  0.65596850  1
  O  O72  1  0.64474950  0.34247250  0.40596850  1
  O  O73  1  0.35525050  0.84247250  0.34403150  1
  O  O74  1  0.35525050  0.65752750  0.40596850  1
  O  O75  1  0.64474950  0.15752750  0.34403150  1
  O  O76  1  0.47349200  0.11142100  0.60519500  1
  O  O77  1  0.52650800  0.61142100  0.14480500  1
  O  O78  1  0.52650800  0.88857900  0.60519500  1
  O  O79  1  0.47349200  0.38857900  0.14480500  1
  O  O80  1  0.88857900  0.47349200  0.39480500  1
  O  O81  1  0.61142100  0.47349200  0.85519500  1
  O  O82  1  0.11142100  0.52650800  0.39480500  1
  O  O83  1  0.38857900  0.52650800  0.85519500  1
