# generated using pymatgen
data_Y2W2O9
_symmetry_space_group_name_H-M   'P 1'
_cell_length_a   7.69069200
_cell_length_b   9.74941300
_cell_length_c   9.23948722
_cell_angle_alpha   90.00000000
_cell_angle_beta   108.43197204
_cell_angle_gamma   90.00000000
_symmetry_Int_Tables_number   1
_chemical_formula_structural   Y2W2O9
_chemical_formula_sum   'Y8 W8 O36'
_cell_volume   657.23477081
_cell_formula_units_Z   4
loop_
 _symmetry_equiv_pos_site_id
 _symmetry_equiv_pos_as_xyz
  1  'x, y, z'
loop_
 _atom_site_type_symbol
 _atom_site_label
 _atom_site_symmetry_multiplicity
 _atom_site_fract_x
 _atom_site_fract_y
 _atom_site_fract_z
 _atom_site_occupancy
  Y  Y0  1  0.22631200  0.94281100  0.65522800  1
  Y  Y1  1  0.29261300  0.55046100  0.57055900  1
  Y  Y2  1  0.22631200  0.55718900  0.15522800  1
  Y  Y3  1  0.29261300  0.94953900  0.07055900  1
  Y  Y4  1  0.70738700  0.05046100  0.92944100  1
  Y  Y5  1  0.77368800  0.44281100  0.84477200  1
  Y  Y6  1  0.70738700  0.44953900  0.42944100  1
  Y  Y7  1  0.77368800  0.05718900  0.34477200  1
  W  W8  1  0.06829400  0.25075400  0.73558900  1
  W  W9  1  0.06829400  0.24924600  0.23558900  1
  W  W10  1  0.57514900  0.72657000  0.96356300  1
  W  W11  1  0.42485100  0.22657000  0.53643700  1
  W  W12  1  0.57514900  0.77343000  0.46356300  1
  W  W13  1  0.42485100  0.27343000  0.03643700  1
  W  W14  1  0.93170600  0.75075400  0.76441100  1
  W  W15  1  0.93170600  0.74924600  0.26441100  1
  O  O16  1  0.00553900  0.61368700  0.90807000  1
  O  O17  1  0.06356100  0.91070100  0.85042200  1
  O  O18  1  0.10825100  0.71612900  0.66560000  1
  O  O19  1  0.00553900  0.88631300  0.40807000  1
  O  O20  1  0.06356100  0.58929900  0.35042200  1
  O  O21  1  0.22512300  0.38244100  0.91864000  1
  O  O22  1  0.26862000  0.13464000  0.86050400  1
  O  O23  1  0.10825100  0.78387100  0.16560000  1
  O  O24  1  0.25528500  0.32056000  0.63734900  1
  O  O25  1  0.22512300  0.11755900  0.41864000  1
  O  O26  1  0.44188800  0.89787100  0.89033300  1
  O  O27  1  0.26862000  0.36536000  0.36050400  1
  O  O28  1  0.49828300  0.59312000  0.81585200  1
  O  O29  1  0.25528500  0.17944000  0.13734900  1
  O  O30  1  0.40185500  0.79753700  0.56556100  1
  O  O31  1  0.59814500  0.29753700  0.93443900  1
  O  O32  1  0.50171700  0.09312000  0.68414800  1
  O  O33  1  0.44188800  0.60212900  0.39033300  1
  O  O34  1  0.55811200  0.39787100  0.60966700  1
  O  O35  1  0.49828300  0.90688000  0.31585200  1
  O  O36  1  0.40185500  0.70246300  0.06556100  1
  O  O37  1  0.59814500  0.20246300  0.43443900  1
  O  O38  1  0.74471500  0.82056000  0.86265100  1
  O  O39  1  0.50171700  0.40688000  0.18414800  1
  O  O40  1  0.73138000  0.63464000  0.63949600  1
  O  O41  1  0.55811200  0.10212900  0.10966700  1
  O  O42  1  0.77487700  0.88244100  0.58136000  1
  O  O43  1  0.74471500  0.67944000  0.36265100  1
  O  O44  1  0.89174900  0.21612900  0.83440000  1
  O  O45  1  0.73138000  0.86536000  0.13949600  1
  O  O46  1  0.77487700  0.61755900  0.08136000  1
  O  O47  1  0.93643900  0.41070100  0.64957800  1
  O  O48  1  0.99446100  0.11368700  0.59193000  1
  O  O49  1  0.89174900  0.28387100  0.33440000  1
  O  O50  1  0.93643900  0.08929900  0.14957800  1
  O  O51  1  0.99446100  0.38631300  0.09193000  1
