# generated using pymatgen
data_LiFe2F5
_symmetry_space_group_name_H-M   'P 1'
_cell_length_a   14.15743400
_cell_length_b   6.79896600
_cell_length_c   10.02513538
_cell_angle_alpha   90.00000000
_cell_angle_beta   117.54088755
_cell_angle_gamma   90.00000000
_symmetry_Int_Tables_number   1
_chemical_formula_structural   LiFe2F5
_chemical_formula_sum   'Li8 Fe16 F40'
_cell_volume   855.62823852
_cell_formula_units_Z   8
loop_
 _symmetry_equiv_pos_site_id
 _symmetry_equiv_pos_as_xyz
  1  'x, y, z'
loop_
 _atom_site_type_symbol
 _atom_site_label
 _atom_site_symmetry_multiplicity
 _atom_site_fract_x
 _atom_site_fract_y
 _atom_site_fract_z
 _atom_site_occupancy
  Li  Li0  1  0.68456550  0.61080250  0.31261600  1
  Li  Li1  1  0.81543450  0.11080250  0.18738400  1
  Li  Li2  1  0.18456550  0.88919750  0.81261600  1
  Li  Li3  1  0.31543450  0.38919750  0.68738400  1
  Li  Li4  1  0.18456550  0.11080250  0.31261600  1
  Li  Li5  1  0.31543450  0.61080250  0.18738400  1
  Li  Li6  1  0.68456550  0.38919750  0.81261600  1
  Li  Li7  1  0.81543450  0.88919750  0.68738400  1
  Fe  Fe8  1  0.85027350  0.37573750  0.63424300  1
  Fe  Fe9  1  0.55709450  0.28848550  0.00335800  1
  Fe  Fe10  1  0.94290550  0.78848550  0.49664200  1
  Fe  Fe11  1  0.85027350  0.62426250  0.13424300  1
  Fe  Fe12  1  0.14972650  0.37573750  0.86575700  1
  Fe  Fe13  1  0.05709450  0.21151450  0.50335800  1
  Fe  Fe14  1  0.44290550  0.71151450  0.99664200  1
  Fe  Fe15  1  0.14972650  0.62426250  0.36575700  1
  Fe  Fe16  1  0.35027350  0.87573750  0.63424300  1
  Fe  Fe17  1  0.05709450  0.78848550  0.00335800  1
  Fe  Fe18  1  0.44290550  0.28848550  0.49664200  1
  Fe  Fe19  1  0.35027350  0.12426250  0.13424300  1
  Fe  Fe20  1  0.64972650  0.87573750  0.86575700  1
  Fe  Fe21  1  0.55709450  0.71151450  0.50335800  1
  Fe  Fe22  1  0.94290550  0.21151450  0.99664200  1
  Fe  Fe23  1  0.64972650  0.12426250  0.36575700  1
  F  F24  1  0.57169050  0.53608250  0.13304300  1
  F  F25  1  0.80024050  0.08449750  0.54797000  1
  F  F26  1  0.87874050  0.68677550  0.62491700  1
  F  F27  1  0.68723000  0.15576400  0.19682900  1
  F  F28  1  0.81277000  0.65576400  0.30317100  1
  F  F29  1  0.02362750  0.36205150  0.90544000  1
  F  F30  1  0.97637250  0.36205150  0.59456000  1
  F  F31  1  0.92830950  0.03608250  0.36695700  1
  F  F32  1  0.80024050  0.91550250  0.04797000  1
  F  F33  1  0.12125950  0.68677550  0.87508300  1
  F  F34  1  0.87874050  0.31322450  0.12491700  1
  F  F35  1  0.19975950  0.08449750  0.95203000  1
  F  F36  1  0.07169050  0.96391750  0.63304300  1
  F  F37  1  0.02362750  0.63794850  0.40544000  1
  F  F38  1  0.97637250  0.63794850  0.09456000  1
  F  F39  1  0.18723000  0.34423600  0.69682900  1
  F  F40  1  0.31277000  0.84423600  0.80317100  1
  F  F41  1  0.12125950  0.31322450  0.37508300  1
  F  F42  1  0.19975950  0.91550250  0.45203000  1
  F  F43  1  0.42830950  0.46391750  0.86695700  1
  F  F44  1  0.07169050  0.03608250  0.13304300  1
  F  F45  1  0.30024050  0.58449750  0.54797000  1
  F  F46  1  0.37874050  0.18677550  0.62491700  1
  F  F47  1  0.18723000  0.65576400  0.19682900  1
  F  F48  1  0.31277000  0.15576400  0.30317100  1
  F  F49  1  0.52362750  0.86205150  0.90544000  1
  F  F50  1  0.47637250  0.86205150  0.59456000  1
  F  F51  1  0.42830950  0.53608250  0.36695700  1
  F  F52  1  0.30024050  0.41550250  0.04797000  1
  F  F53  1  0.62125950  0.18677550  0.87508300  1
  F  F54  1  0.37874050  0.81322450  0.12491700  1
  F  F55  1  0.69975950  0.58449750  0.95203000  1
  F  F56  1  0.57169050  0.46391750  0.63304300  1
  F  F57  1  0.52362750  0.13794850  0.40544000  1
  F  F58  1  0.47637250  0.13794850  0.09456000  1
  F  F59  1  0.68723000  0.84423600  0.69682900  1
  F  F60  1  0.81277000  0.34423600  0.80317100  1
  F  F61  1  0.62125950  0.81322450  0.37508300  1
  F  F62  1  0.69975950  0.41550250  0.45203000  1
  F  F63  1  0.92830950  0.96391750  0.86695700  1
