# generated using pymatgen
data_Gd2P4O13
_symmetry_space_group_name_H-M   'P 1'
_cell_length_a   12.05989800
_cell_length_b   6.85509800
_cell_length_c   13.13238954
_cell_angle_alpha   90.00000000
_cell_angle_beta   105.87363026
_cell_angle_gamma   90.00000000
_symmetry_Int_Tables_number   1
_chemical_formula_structural   Gd2P4O13
_chemical_formula_sum   'Gd8 P16 O52'
_cell_volume   1044.27821260
_cell_formula_units_Z   4
loop_
 _symmetry_equiv_pos_site_id
 _symmetry_equiv_pos_as_xyz
  1  'x, y, z'
loop_
 _atom_site_type_symbol
 _atom_site_label
 _atom_site_symmetry_multiplicity
 _atom_site_fract_x
 _atom_site_fract_y
 _atom_site_fract_z
 _atom_site_occupancy
  Gd  Gd0  1  0.69048550  0.00227750  0.55071700  1
  Gd  Gd1  1  0.80951450  0.50227750  0.94928300  1
  Gd  Gd2  1  0.69048550  0.99772250  0.05071700  1
  Gd  Gd3  1  0.80951450  0.49772250  0.44928300  1
  Gd  Gd4  1  0.19048550  0.50227750  0.55071700  1
  Gd  Gd5  1  0.30951450  0.00227750  0.94928300  1
  Gd  Gd6  1  0.19048550  0.49772250  0.05071700  1
  Gd  Gd7  1  0.30951450  0.99772250  0.44928300  1
  P  P8  1  0.98919750  0.14569050  0.63495300  1
  P  P9  1  0.98919750  0.85430950  0.13495300  1
  P  P10  1  0.73268550  0.50638150  0.65897000  1
  P  P11  1  0.76731450  0.00638150  0.84103000  1
  P  P12  1  0.73268550  0.49361850  0.15897000  1
  P  P13  1  0.76731450  0.99361850  0.34103000  1
  P  P14  1  0.51080250  0.64569050  0.86504700  1
  P  P15  1  0.51080250  0.35430950  0.36504700  1
  P  P16  1  0.48919750  0.64569050  0.63495300  1
  P  P17  1  0.48919750  0.35430950  0.13495300  1
  P  P18  1  0.23268550  0.00638150  0.65897000  1
  P  P19  1  0.26731450  0.50638150  0.84103000  1
  P  P20  1  0.23268550  0.99361850  0.15897000  1
  P  P21  1  0.26731450  0.49361850  0.34103000  1
  P  P22  1  0.01080250  0.14569050  0.86504700  1
  P  P23  1  0.01080250  0.85430950  0.36504700  1
  O  O24  1  0.99657800  0.31749200  0.56273600  1
  O  O25  1  0.88846750  0.01052550  0.60405500  1
  O  O26  1  0.99657800  0.68250800  0.06273600  1
  O  O27  1  0.90259200  0.00399100  0.84618400  1
  O  O28  1  0.75491400  0.68000100  0.59356000  1
  O  O29  1  0.74974650  0.32623650  0.59548200  1
  O  O30  1  0.80017150  0.50621950  0.77402200  1
  O  O31  1  0.88846750  0.98947450  0.10405500  1
  O  O32  1  0.90259200  0.99600900  0.34618400  1
  O  O33  1  0.69982850  0.00621950  0.72597800  1
  O  O34  1  0.75025350  0.82623650  0.90451800  1
  O  O35  1  0.74508600  0.18000100  0.90644000  1
  O  O36  1  0.75491400  0.31999900  0.09356000  1
  O  O37  1  0.74974650  0.67376350  0.09548200  1
  O  O38  1  0.80017150  0.49378050  0.27402200  1
  O  O39  1  0.59740800  0.50399100  0.65381600  1
  O  O40  1  0.61153250  0.51052550  0.89594500  1
  O  O41  1  0.69982850  0.99378050  0.22597800  1
  O  O42  1  0.75025350  0.17376350  0.40451800  1
  O  O43  1  0.74508600  0.81999900  0.40644000  1
  O  O44  1  0.00000000  0.23953700  0.75000000  1
  O  O45  1  0.59740800  0.49600900  0.15381600  1
  O  O46  1  0.50342200  0.81749200  0.93726400  1
  O  O47  1  0.61153250  0.48947450  0.39594500  1
  O  O48  1  0.00000000  0.76046300  0.25000000  1
  O  O49  1  0.50342200  0.18250800  0.43726400  1
  O  O50  1  0.49657800  0.81749200  0.56273600  1
  O  O51  1  0.38846750  0.51052550  0.60405500  1
  O  O52  1  0.49657800  0.18250800  0.06273600  1
  O  O53  1  0.40259200  0.50399100  0.84618400  1
  O  O54  1  0.25491400  0.18000100  0.59356000  1
  O  O55  1  0.24974650  0.82623650  0.59548200  1
  O  O56  1  0.30017150  0.00621950  0.77402200  1
  O  O57  1  0.38846750  0.48947450  0.10405500  1
  O  O58  1  0.40259200  0.49600900  0.34618400  1
  O  O59  1  0.19982850  0.50621950  0.72597800  1
  O  O60  1  0.25025350  0.32623650  0.90451800  1
  O  O61  1  0.24508600  0.68000100  0.90644000  1
  O  O62  1  0.25491400  0.81999900  0.09356000  1
  O  O63  1  0.24974650  0.17376350  0.09548200  1
  O  O64  1  0.30017150  0.99378050  0.27402200  1
  O  O65  1  0.09740800  0.00399100  0.65381600  1
  O  O66  1  0.11153250  0.01052550  0.89594500  1
  O  O67  1  0.19982850  0.49378050  0.22597800  1
  O  O68  1  0.25025350  0.67376350  0.40451800  1
  O  O69  1  0.24508600  0.31999900  0.40644000  1
  O  O70  1  0.50000000  0.73953700  0.75000000  1
  O  O71  1  0.09740800  0.99600900  0.15381600  1
  O  O72  1  0.00342200  0.31749200  0.93726400  1
  O  O73  1  0.11153250  0.98947450  0.39594500  1
  O  O74  1  0.50000000  0.26046300  0.25000000  1
  O  O75  1  0.00342200  0.68250800  0.43726400  1
