# generated using pymatgen
data_Y2HfO5
_symmetry_space_group_name_H-M   'P 1'
_cell_length_a   4.12184800
_cell_length_b   11.26223200
_cell_length_c   10.91027000
_cell_angle_alpha   90.00000000
_cell_angle_beta   90.00000000
_cell_angle_gamma   90.00000000
_symmetry_Int_Tables_number   1
_chemical_formula_structural   Y2HfO5
_chemical_formula_sum   'Y8 Hf4 O20'
_cell_volume   506.46791786
_cell_formula_units_Z   4
loop_
 _symmetry_equiv_pos_site_id
 _symmetry_equiv_pos_as_xyz
  1  'x, y, z'
loop_
 _atom_site_type_symbol
 _atom_site_label
 _atom_site_symmetry_multiplicity
 _atom_site_fract_x
 _atom_site_fract_y
 _atom_site_fract_z
 _atom_site_occupancy
  Y  Y0  1  0.00000000  0.13922100  0.06615300  1
  Y  Y1  1  0.00000000  0.13922100  0.43384700  1
  Y  Y2  1  0.50000000  0.36077900  0.56615300  1
  Y  Y3  1  0.50000000  0.36077900  0.93384700  1
  Y  Y4  1  0.50000000  0.63922100  0.06615300  1
  Y  Y5  1  0.50000000  0.63922100  0.43384700  1
  Y  Y6  1  0.00000000  0.86077900  0.56615300  1
  Y  Y7  1  0.00000000  0.86077900  0.93384700  1
  Hf  Hf8  1  0.00000000  0.17757000  0.75000000  1
  Hf  Hf9  1  0.50000000  0.32243000  0.25000000  1
  Hf  Hf10  1  0.50000000  0.67757000  0.75000000  1
  Hf  Hf11  1  0.00000000  0.82243000  0.25000000  1
  O  O12  1  0.00000000  0.04920600  0.61958000  1
  O  O13  1  0.00000000  0.29154100  0.91148400  1
  O  O14  1  0.00000000  0.04920600  0.88042000  1
  O  O15  1  0.00000000  0.29154100  0.58851600  1
  O  O16  1  0.00000000  0.26606800  0.25000000  1
  O  O17  1  0.50000000  0.45079400  0.11958000  1
  O  O18  1  0.50000000  0.23393200  0.75000000  1
  O  O19  1  0.50000000  0.20845900  0.08851600  1
  O  O20  1  0.50000000  0.45079400  0.38042000  1
  O  O21  1  0.50000000  0.20845900  0.41148400  1
  O  O22  1  0.50000000  0.54920600  0.61958000  1
  O  O23  1  0.50000000  0.79154100  0.91148400  1
  O  O24  1  0.50000000  0.54920600  0.88042000  1
  O  O25  1  0.50000000  0.79154100  0.58851600  1
  O  O26  1  0.50000000  0.76606800  0.25000000  1
  O  O27  1  0.00000000  0.95079400  0.11958000  1
  O  O28  1  0.00000000  0.73393200  0.75000000  1
  O  O29  1  0.00000000  0.70845900  0.08851600  1
  O  O30  1  0.00000000  0.95079400  0.38042000  1
  O  O31  1  0.00000000  0.70845900  0.41148400  1
