# generated using pymatgen
data_Li2NbV3O8
_symmetry_space_group_name_H-M   'P 1'
_cell_length_a   12.28277600
_cell_length_b   4.11180000
_cell_length_c   6.72839066
_cell_angle_alpha   90.00000000
_cell_angle_beta   107.42881504
_cell_angle_gamma   90.00000000
_symmetry_Int_Tables_number   1
_chemical_formula_structural   Li2NbV3O8
_chemical_formula_sum   'Li4 Nb2 V6 O16'
_cell_volume   324.21191614
_cell_formula_units_Z   2
loop_
 _symmetry_equiv_pos_site_id
 _symmetry_equiv_pos_as_xyz
  1  'x, y, z'
loop_
 _atom_site_type_symbol
 _atom_site_label
 _atom_site_symmetry_multiplicity
 _atom_site_fract_x
 _atom_site_fract_y
 _atom_site_fract_z
 _atom_site_occupancy
  Li  Li0  1  0.05503700  0.00000000  0.36289500  1
  Li  Li1  1  0.44185000  0.50000000  0.65700500  1
  Li  Li2  1  0.55503700  0.50000000  0.36289500  1
  Li  Li3  1  0.94185000  0.00000000  0.65700500  1
  Nb  Nb4  1  0.20819300  0.50000000  0.28006300  1
  Nb  Nb5  1  0.70819300  0.00000000  0.28006300  1
  V  V6  1  0.39042900  0.00000000  0.29726800  1
  V  V7  1  0.10921200  0.50000000  0.68789000  1
  V  V8  1  0.29503400  0.00000000  0.72752100  1
  V  V9  1  0.89042900  0.50000000  0.29726800  1
  V  V10  1  0.60921200  0.00000000  0.68789000  1
  V  V11  1  0.79503400  0.50000000  0.72752100  1
  O  O12  1  0.12034500  0.00000000  0.67240200  1
  O  O13  1  0.22186100  0.00000000  0.33201200  1
  O  O14  1  0.35126200  0.00000000  0.00692200  1
  O  O15  1  0.43957100  0.00000000  0.63287000  1
  O  O16  1  0.06432700  0.50000000  0.35486900  1
  O  O17  1  0.14972200  0.50000000  0.00205800  1
  O  O18  1  0.27134500  0.50000000  0.65524300  1
  O  O19  1  0.38180900  0.50000000  0.33098400  1
  O  O20  1  0.62034500  0.50000000  0.67240200  1
  O  O21  1  0.72186100  0.50000000  0.33201200  1
  O  O22  1  0.85126200  0.50000000  0.00692200  1
  O  O23  1  0.93957100  0.50000000  0.63287000  1
  O  O24  1  0.56432700  0.00000000  0.35486900  1
  O  O25  1  0.64972200  0.00000000  0.00205800  1
  O  O26  1  0.77134500  0.00000000  0.65524300  1
  O  O27  1  0.88180900  0.00000000  0.33098400  1
