# generated using pymatgen
data_Zr3N2O3
_symmetry_space_group_name_H-M   'P 1'
_cell_length_a   4.08702800
_cell_length_b   10.74210400
_cell_length_c   10.78118200
_cell_angle_alpha   90.00000000
_cell_angle_beta   90.00000000
_cell_angle_gamma   90.00000000
_symmetry_Int_Tables_number   1
_chemical_formula_structural   Zr3N2O3
_chemical_formula_sum   'Zr12 N8 O12'
_cell_volume   473.32925021
_cell_formula_units_Z   4
loop_
 _symmetry_equiv_pos_site_id
 _symmetry_equiv_pos_as_xyz
  1  'x, y, z'
loop_
 _atom_site_type_symbol
 _atom_site_label
 _atom_site_symmetry_multiplicity
 _atom_site_fract_x
 _atom_site_fract_y
 _atom_site_fract_z
 _atom_site_occupancy
  Zr  Zr0  1  0.00000000  0.19209400  0.75000000  1
  Zr  Zr1  1  0.00000000  0.14327800  0.44339400  1
  Zr  Zr2  1  0.00000000  0.14327800  0.05660600  1
  Zr  Zr3  1  0.50000000  0.30790600  0.25000000  1
  Zr  Zr4  1  0.50000000  0.35672200  0.55660600  1
  Zr  Zr5  1  0.50000000  0.35672200  0.94339400  1
  Zr  Zr6  1  0.50000000  0.69209400  0.75000000  1
  Zr  Zr7  1  0.50000000  0.64327800  0.44339400  1
  Zr  Zr8  1  0.50000000  0.64327800  0.05660600  1
  Zr  Zr9  1  0.00000000  0.80790600  0.25000000  1
  Zr  Zr10  1  0.00000000  0.85672200  0.55660600  1
  Zr  Zr11  1  0.00000000  0.85672200  0.94339400  1
  N  N12  1  0.00000000  0.29896100  0.92122500  1
  N  N13  1  0.00000000  0.29896100  0.57877500  1
  N  N14  1  0.50000000  0.20103900  0.07877500  1
  N  N15  1  0.50000000  0.20103900  0.42122500  1
  N  N16  1  0.50000000  0.79896100  0.92122500  1
  N  N17  1  0.50000000  0.79896100  0.57877500  1
  N  N18  1  0.00000000  0.70103900  0.07877500  1
  N  N19  1  0.00000000  0.70103900  0.42122500  1
  O  O20  1  0.00000000  0.24569700  0.25000000  1
  O  O21  1  0.00000000  0.04366200  0.61594700  1
  O  O22  1  0.00000000  0.04366200  0.88405300  1
  O  O23  1  0.50000000  0.25430300  0.75000000  1
  O  O24  1  0.50000000  0.45633800  0.38405300  1
  O  O25  1  0.50000000  0.45633800  0.11594700  1
  O  O26  1  0.50000000  0.74569700  0.25000000  1
  O  O27  1  0.50000000  0.54366200  0.61594700  1
  O  O28  1  0.50000000  0.54366200  0.88405300  1
  O  O29  1  0.00000000  0.75430300  0.75000000  1
  O  O30  1  0.00000000  0.95633800  0.38405300  1
  O  O31  1  0.00000000  0.95633800  0.11594700  1
