# generated using pymatgen
data_Li2CuPO4
_symmetry_space_group_name_H-M   'P 1'
_cell_length_a   5.33748200
_cell_length_b   4.90534600
_cell_length_c   6.87832446
_cell_angle_alpha   90.00000000
_cell_angle_beta   92.21007993
_cell_angle_gamma   90.00000000
_symmetry_Int_Tables_number   1
_chemical_formula_structural   Li2CuPO4
_chemical_formula_sum   'Li4 Cu2 P2 O8'
_cell_volume   179.95567886
_cell_formula_units_Z   2
loop_
 _symmetry_equiv_pos_site_id
 _symmetry_equiv_pos_as_xyz
  1  'x, y, z'
loop_
 _atom_site_type_symbol
 _atom_site_label
 _atom_site_symmetry_multiplicity
 _atom_site_fract_x
 _atom_site_fract_y
 _atom_site_fract_z
 _atom_site_occupancy
  Li  Li0  1  0.91326800  0.03594100  0.17629700  1
  Li  Li1  1  0.79938900  0.50699900  0.48833700  1
  Li  Li2  1  0.20061100  0.00699900  0.51166300  1
  Li  Li3  1  0.08673200  0.53594100  0.82370300  1
  Cu  Cu4  1  0.66390800  0.46629400  0.00012600  1
  Cu  Cu5  1  0.33609200  0.96629400  0.99987400  1
  P  P6  1  0.72746800  0.00524300  0.73707800  1
  P  P7  1  0.27253200  0.50524300  0.26292200  1
  O  O8  1  0.85823300  0.86373600  0.91811800  1
  O  O9  1  0.84320800  0.89610800  0.55057800  1
  O  O10  1  0.77177600  0.32314900  0.74902700  1
  O  O11  1  0.43718300  0.94856700  0.73418200  1
  O  O12  1  0.56281700  0.44856700  0.26581800  1
  O  O13  1  0.22822400  0.82314900  0.25097300  1
  O  O14  1  0.15679200  0.39610800  0.44942200  1
  O  O15  1  0.14176700  0.36373600  0.08188200  1
