# generated using pymatgen
data_SrLiNb2O6F
_symmetry_space_group_name_H-M   'P 1'
_cell_length_a   3.87468000
_cell_length_b   3.87468000
_cell_length_c   20.89333600
_cell_angle_alpha   90.00000000
_cell_angle_beta   90.00000000
_cell_angle_gamma   90.00000000
_symmetry_Int_Tables_number   1
_chemical_formula_structural   SrLiNb2O6F
_chemical_formula_sum   'Sr2 Li2 Nb4 O12 F2'
_cell_volume   313.67468504
_cell_formula_units_Z   2
loop_
 _symmetry_equiv_pos_site_id
 _symmetry_equiv_pos_as_xyz
  1  'x, y, z'
loop_
 _atom_site_type_symbol
 _atom_site_label
 _atom_site_symmetry_multiplicity
 _atom_site_fract_x
 _atom_site_fract_y
 _atom_site_fract_z
 _atom_site_occupancy
  Sr  Sr0  1  0.00000000  0.00000000  0.00000000  1
  Sr  Sr1  1  0.50000000  0.50000000  0.50000000  1
  Li  Li2  1  0.00000000  0.50000000  0.25000000  1
  Li  Li3  1  0.50000000  0.00000000  0.75000000  1
  Nb  Nb4  1  0.50000000  0.50000000  0.11782700  1
  Nb  Nb5  1  0.00000000  0.00000000  0.38217300  1
  Nb  Nb6  1  0.00000000  0.00000000  0.61782700  1
  Nb  Nb7  1  0.50000000  0.50000000  0.88217300  1
  O  O8  1  0.50000000  0.50000000  0.20413800  1
  O  O9  1  0.00000000  0.50000000  0.09294500  1
  O  O10  1  0.00000000  0.50000000  0.40705500  1
  O  O11  1  0.00000000  0.00000000  0.29586200  1
  O  O12  1  0.50000000  0.00000000  0.09182400  1
  O  O13  1  0.50000000  0.00000000  0.40817600  1
  O  O14  1  0.00000000  0.00000000  0.70413800  1
  O  O15  1  0.50000000  0.00000000  0.59294500  1
  O  O16  1  0.50000000  0.00000000  0.90705500  1
  O  O17  1  0.50000000  0.50000000  0.79586200  1
  O  O18  1  0.00000000  0.50000000  0.59182400  1
  O  O19  1  0.00000000  0.50000000  0.90817600  1
  F  F20  1  0.50000000  0.50000000  0.00000000  1
  F  F21  1  0.00000000  0.00000000  0.50000000  1
