# generated using pymatgen
data_RbNbO3
_symmetry_space_group_name_H-M   'P 1'
_cell_length_a   9.78092400
_cell_length_b   8.64290600
_cell_length_c   8.33204364
_cell_angle_alpha   90.00000000
_cell_angle_beta   94.54454329
_cell_angle_gamma   90.00000000
_symmetry_Int_Tables_number   1
_chemical_formula_structural   RbNbO3
_chemical_formula_sum   'Rb8 Nb8 O24'
_cell_volume   702.13990005
_cell_formula_units_Z   8
loop_
 _symmetry_equiv_pos_site_id
 _symmetry_equiv_pos_as_xyz
  1  'x, y, z'
loop_
 _atom_site_type_symbol
 _atom_site_label
 _atom_site_symmetry_multiplicity
 _atom_site_fract_x
 _atom_site_fract_y
 _atom_site_fract_z
 _atom_site_occupancy
  Rb  Rb0  1  0.33745200  0.00000000  0.76383000  1
  Rb  Rb1  1  0.50000000  0.73412300  0.50000000  1
  Rb  Rb2  1  0.50000000  0.26587700  0.50000000  1
  Rb  Rb3  1  0.66254800  0.00000000  0.23617000  1
  Rb  Rb4  1  0.83745200  0.50000000  0.76383000  1
  Rb  Rb5  1  0.00000000  0.23412300  0.50000000  1
  Rb  Rb6  1  0.00000000  0.76587700  0.50000000  1
  Rb  Rb7  1  0.16254800  0.50000000  0.23617000  1
  Nb  Nb8  1  0.25829700  0.00000000  0.19602200  1
  Nb  Nb9  1  0.50000000  0.68935100  0.00000000  1
  Nb  Nb10  1  0.50000000  0.31064900  0.00000000  1
  Nb  Nb11  1  0.74170300  0.00000000  0.80397800  1
  Nb  Nb12  1  0.75829700  0.50000000  0.19602200  1
  Nb  Nb13  1  0.00000000  0.18935100  0.00000000  1
  Nb  Nb14  1  0.00000000  0.81064900  0.00000000  1
  Nb  Nb15  1  0.24170300  0.50000000  0.80397800  1
  O  O16  1  0.12274700  0.00000000  0.94768700  1
  O  O17  1  0.32855000  0.00000000  0.40747100  1
  O  O18  1  0.38057200  0.66770900  0.78877700  1
  O  O19  1  0.38057200  0.33229100  0.78877700  1
  O  O20  1  0.38692150  0.16028650  0.10226000  1
  O  O21  1  0.38692150  0.83971350  0.10226000  1
  O  O22  1  0.61307850  0.83971350  0.89774000  1
  O  O23  1  0.61307850  0.16028650  0.89774000  1
  O  O24  1  0.61942800  0.33229100  0.21122300  1
  O  O25  1  0.61942800  0.66770900  0.21122300  1
  O  O26  1  0.67145000  0.00000000  0.59252900  1
  O  O27  1  0.87725300  0.00000000  0.05231300  1
  O  O28  1  0.62274700  0.50000000  0.94768700  1
  O  O29  1  0.82855000  0.50000000  0.40747100  1
  O  O30  1  0.88057200  0.16770900  0.78877700  1
  O  O31  1  0.88057200  0.83229100  0.78877700  1
  O  O32  1  0.88692150  0.66028650  0.10226000  1
  O  O33  1  0.88692150  0.33971350  0.10226000  1
  O  O34  1  0.11307850  0.33971350  0.89774000  1
  O  O35  1  0.11307850  0.66028650  0.89774000  1
  O  O36  1  0.11942800  0.83229100  0.21122300  1
  O  O37  1  0.11942800  0.16770900  0.21122300  1
  O  O38  1  0.17145000  0.50000000  0.59252900  1
  O  O39  1  0.37725300  0.50000000  0.05231300  1
