# generated using pymatgen
data_Li3CrSiO5
_symmetry_space_group_name_H-M   'P 1'
_cell_length_a   4.98626126
_cell_length_b   5.78007604
_cell_length_c   6.49661646
_cell_angle_alpha   104.58001763
_cell_angle_beta   97.77223526
_cell_angle_gamma   106.42768407
_symmetry_Int_Tables_number   1
_chemical_formula_structural   Li3CrSiO5
_chemical_formula_sum   'Li6 Cr2 Si2 O10'
_cell_volume   169.45975881
_cell_formula_units_Z   2
loop_
 _symmetry_equiv_pos_site_id
 _symmetry_equiv_pos_as_xyz
  1  'x, y, z'
loop_
 _atom_site_type_symbol
 _atom_site_label
 _atom_site_symmetry_multiplicity
 _atom_site_fract_x
 _atom_site_fract_y
 _atom_site_fract_z
 _atom_site_occupancy
  Li  Li0  1  0.50000000  0.00000000  0.00000000  1
  Li  Li1  1  0.50000000  0.50000000  0.00000000  1
  Li  Li2  1  0.70189025  0.40244975  0.39787450  1
  Li  Li3  1  0.29810975  0.59755025  0.60212550  1
  Li  Li4  1  0.11301025  0.20110625  0.18352950  1
  Li  Li5  1  0.88698975  0.79889375  0.81647050  1
  Cr  Cr6  1  0.69934975  0.89608575  0.39713650  1
  Cr  Cr7  1  0.30065025  0.10391425  0.60286350  1
  Si  Si8  1  0.09587925  0.69085175  0.19173650  1
  Si  Si9  1  0.90412075  0.30914825  0.80826350  1
  O  O10  1  0.83494475  0.83729375  0.12321850  1
  O  O11  1  0.16505525  0.16270625  0.87678150  1
  O  O12  1  0.62751725  0.42465025  0.70605750  1
  O  O13  1  0.37248275  0.57534975  0.29394250  1
  O  O14  1  0.83644775  0.37177825  0.08229150  1
  O  O15  1  0.16355225  0.62822175  0.91770850  1
  O  O16  1  0.62238925  0.98693525  0.70833250  1
  O  O17  1  0.37761075  0.01306475  0.29166750  1
  O  O18  1  0.99307525  0.25201625  0.53638250  1
  O  O19  1  0.00692475  0.74798375  0.46361750  1
