# generated using pymatgen
data_Li5CrS4
_symmetry_space_group_name_H-M   'P 1'
_cell_length_a   3.73584800
_cell_length_b   6.77141400
_cell_length_c   13.09049400
_cell_angle_alpha   90.00000000
_cell_angle_beta   90.00000000
_cell_angle_gamma   90.00000000
_symmetry_Int_Tables_number   1
_chemical_formula_structural   Li5CrS4
_chemical_formula_sum   'Li10 Cr2 S8'
_cell_volume   331.14987915
_cell_formula_units_Z   2
loop_
 _symmetry_equiv_pos_site_id
 _symmetry_equiv_pos_as_xyz
  1  'x, y, z'
loop_
 _atom_site_type_symbol
 _atom_site_label
 _atom_site_symmetry_multiplicity
 _atom_site_fract_x
 _atom_site_fract_y
 _atom_site_fract_z
 _atom_site_occupancy
  Li  Li0  1  0.50000000  0.28499900  0.67750400  1
  Li  Li1  1  0.50000000  0.71500100  0.67750400  1
  Li  Li2  1  0.00000000  0.78499900  0.82249600  1
  Li  Li3  1  0.00000000  0.21500100  0.82249600  1
  Li  Li4  1  0.50000000  0.50000000  0.00000000  1
  Li  Li5  1  0.00000000  0.78499900  0.17750400  1
  Li  Li6  1  0.00000000  0.21500100  0.17750400  1
  Li  Li7  1  0.50000000  0.28499900  0.32249600  1
  Li  Li8  1  0.50000000  0.71500100  0.32249600  1
  Li  Li9  1  0.00000000  0.00000000  0.50000000  1
  Cr  Cr10  1  0.50000000  0.00000000  0.00000000  1
  Cr  Cr11  1  0.00000000  0.50000000  0.50000000  1
  S  S12  1  0.00000000  0.24280800  0.00000000  1
  S  S13  1  0.00000000  0.50000000  0.69799700  1
  S  S14  1  0.50000000  0.00000000  0.80200300  1
  S  S15  1  0.00000000  0.75719200  0.00000000  1
  S  S16  1  0.50000000  0.74280800  0.50000000  1
  S  S17  1  0.50000000  0.00000000  0.19799700  1
  S  S18  1  0.00000000  0.50000000  0.30200300  1
  S  S19  1  0.50000000  0.25719200  0.50000000  1
