# generated using pymatgen
data_Ba2YCl7
_symmetry_space_group_name_H-M   'P 1'
_cell_length_a   8.80460700
_cell_length_b   11.16274000
_cell_length_c   14.74555701
_cell_angle_alpha   90.00000000
_cell_angle_beta   117.10384373
_cell_angle_gamma   90.00000000
_symmetry_Int_Tables_number   1
_chemical_formula_structural   Ba2YCl7
_chemical_formula_sum   'Ba8 Y4 Cl28'
_cell_volume   1290.09262961
_cell_formula_units_Z   4
loop_
 _symmetry_equiv_pos_site_id
 _symmetry_equiv_pos_as_xyz
  1  'x, y, z'
loop_
 _atom_site_type_symbol
 _atom_site_label
 _atom_site_symmetry_multiplicity
 _atom_site_fract_x
 _atom_site_fract_y
 _atom_site_fract_z
 _atom_site_occupancy
  Ba  Ba0  1  0.23375700  0.79425700  0.46899600  1
  Ba  Ba1  1  0.63411000  0.71666000  0.79625500  1
  Ba  Ba2  1  0.36589000  0.21666000  0.70374500  1
  Ba  Ba3  1  0.23375700  0.70574300  0.96899600  1
  Ba  Ba4  1  0.76624300  0.29425700  0.03100400  1
  Ba  Ba5  1  0.63411000  0.78334000  0.29625500  1
  Ba  Ba6  1  0.36589000  0.28334000  0.20374500  1
  Ba  Ba7  1  0.76624300  0.20574300  0.53100400  1
  Y  Y8  1  0.04596200  0.41091700  0.36833100  1
  Y  Y9  1  0.04596200  0.08908300  0.86833100  1
  Y  Y10  1  0.95403800  0.91091700  0.13166900  1
  Y  Y11  1  0.95403800  0.58908300  0.63166900  1
  Cl  Cl12  1  0.06645500  0.44268400  0.19121800  1
  Cl  Cl13  1  0.05869700  0.13371900  0.19275900  1
  Cl  Cl14  1  0.25127900  0.80058200  0.26014300  1
  Cl  Cl15  1  0.21121500  0.53263000  0.55051800  1
  Cl  Cl16  1  0.06645500  0.05731600  0.69121800  1
  Cl  Cl17  1  0.45337700  0.94517500  0.65378400  1
  Cl  Cl18  1  0.07583900  0.21099400  0.47666000  1
  Cl  Cl19  1  0.62279300  0.65878800  0.58044400  1
  Cl  Cl20  1  0.05869700  0.36628100  0.69275900  1
  Cl  Cl21  1  0.25127900  0.69941800  0.76014300  1
  Cl  Cl22  1  0.37720700  0.15878800  0.91955600  1
  Cl  Cl23  1  0.92416100  0.71099400  0.02334000  1
  Cl  Cl24  1  0.54662300  0.44517500  0.84621600  1
  Cl  Cl25  1  0.21121500  0.96737000  0.05051800  1
  Cl  Cl26  1  0.78878500  0.03263000  0.94948200  1
  Cl  Cl27  1  0.45337700  0.55482500  0.15378400  1
  Cl  Cl28  1  0.07583900  0.28900600  0.97666000  1
  Cl  Cl29  1  0.62279300  0.84121200  0.08044400  1
  Cl  Cl30  1  0.74872100  0.30058200  0.23985700  1
  Cl  Cl31  1  0.94130300  0.63371900  0.30724100  1
  Cl  Cl32  1  0.37720700  0.34121200  0.41955600  1
  Cl  Cl33  1  0.92416100  0.78900600  0.52334000  1
  Cl  Cl34  1  0.54662300  0.05482500  0.34621600  1
  Cl  Cl35  1  0.93354500  0.94268400  0.30878200  1
  Cl  Cl36  1  0.78878500  0.46737000  0.44948200  1
  Cl  Cl37  1  0.74872100  0.19941800  0.73985700  1
  Cl  Cl38  1  0.94130300  0.86628100  0.80724100  1
  Cl  Cl39  1  0.93354500  0.55731600  0.80878200  1
