# generated using pymatgen
data_FeP3(H2O3)3
_symmetry_space_group_name_H-M   'P 1'
_cell_length_a   13.78331400
_cell_length_b   6.47231600
_cell_length_c   9.88071456
_cell_angle_alpha   90.00000000
_cell_angle_beta   105.85638881
_cell_angle_gamma   90.00000000
_symmetry_Int_Tables_number   1
_chemical_formula_structural   FeP3(H2O3)3
_chemical_formula_sum   'Fe4 P12 H24 O36'
_cell_volume   847.91831360
_cell_formula_units_Z   4
loop_
 _symmetry_equiv_pos_site_id
 _symmetry_equiv_pos_as_xyz
  1  'x, y, z'
loop_
 _atom_site_type_symbol
 _atom_site_label
 _atom_site_symmetry_multiplicity
 _atom_site_fract_x
 _atom_site_fract_y
 _atom_site_fract_z
 _atom_site_occupancy
  Fe  Fe0  1  0.69657300  0.40034900  0.64305900  1
  Fe  Fe1  1  0.69657300  0.59965100  0.14305900  1
  Fe  Fe2  1  0.19657300  0.90034900  0.64305900  1
  Fe  Fe3  1  0.19657300  0.09965100  0.14305900  1
  P  P4  1  0.69943550  0.08832050  0.06472900  1
  P  P5  1  0.69943550  0.91167950  0.56472900  1
  P  P6  1  0.54432450  0.40811650  0.31996900  1
  P  P7  1  0.54432450  0.59188350  0.81996900  1
  P  P8  1  0.85878600  0.47018100  0.44605700  1
  P  P9  1  0.85878600  0.52981900  0.94605700  1
  P  P10  1  0.19943550  0.58832050  0.06472900  1
  P  P11  1  0.19943550  0.41167950  0.56472900  1
  P  P12  1  0.04432450  0.90811650  0.31996900  1
  P  P13  1  0.04432450  0.09188350  0.81996900  1
  P  P14  1  0.35878600  0.97018100  0.44605700  1
  P  P15  1  0.35878600  0.02981900  0.94605700  1
  H  H16  1  0.78587500  0.06293200  0.01763900  1
  H  H17  1  0.78587500  0.93706800  0.51763900  1
  H  H18  1  0.56848300  0.22470500  0.26151800  1
  H  H19  1  0.56848300  0.77529500  0.76151800  1
  H  H20  1  0.91173050  0.30777250  0.40469500  1
  H  H21  1  0.91173050  0.69222750  0.90469500  1
  H  H22  1  0.60310900  0.19835400  0.86231100  1
  H  H23  1  0.60310900  0.80164600  0.36231100  1
  H  H24  1  0.88371700  0.16151700  0.77810700  1
  H  H25  1  0.88371700  0.83848300  0.27810700  1
  H  H26  1  0.98312150  0.31172550  0.04252800  1
  H  H27  1  0.98312150  0.68827450  0.54252800  1
  H  H28  1  0.28587500  0.56293200  0.01763900  1
  H  H29  1  0.28587500  0.43706800  0.51763900  1
  H  H30  1  0.06848300  0.72470500  0.26151800  1
  H  H31  1  0.06848300  0.27529500  0.76151800  1
  H  H32  1  0.41173050  0.80777250  0.40469500  1
  H  H33  1  0.41173050  0.19222750  0.90469500  1
  H  H34  1  0.10310900  0.69835400  0.86231100  1
  H  H35  1  0.10310900  0.30164600  0.36231100  1
  H  H36  1  0.38371700  0.66151700  0.77810700  1
  H  H37  1  0.38371700  0.33848300  0.27810700  1
  H  H38  1  0.48312150  0.81172550  0.04252800  1
  H  H39  1  0.48312150  0.18827450  0.54252800  1
  O  O40  1  0.70736100  0.29588000  0.14060200  1
  O  O41  1  0.70736100  0.70412000  0.64060200  1
  O  O42  1  0.68966450  0.09315450  0.65859400  1
  O  O43  1  0.68966450  0.90684550  0.15859400  1
  O  O44  1  0.60496750  0.08181750  0.93113900  1
  O  O45  1  0.60496750  0.91818250  0.43113900  1
  O  O46  1  0.56436750  0.38527850  0.48010600  1
  O  O47  1  0.56436750  0.61472150  0.98010600  1
  O  O48  1  0.60080700  0.41278400  0.77376700  1
  O  O49  1  0.60080700  0.58721600  0.27376700  1
  O  O50  1  0.92746100  0.05338000  0.75273500  1
  O  O51  1  0.92746100  0.94662000  0.25273500  1
  O  O52  1  0.81900300  0.38380500  0.81960800  1
  O  O53  1  0.81900300  0.61619500  0.31960800  1
  O  O54  1  0.93461850  0.40625950  0.06892400  1
  O  O55  1  0.93461850  0.59374050  0.56892400  1
  O  O56  1  0.78079400  0.37010400  0.50801600  1
  O  O57  1  0.78079400  0.62989600  0.00801600  1
  O  O58  1  0.20736100  0.79588000  0.14060200  1
  O  O59  1  0.20736100  0.20412000  0.64060200  1
  O  O60  1  0.18966450  0.59315450  0.65859400  1
  O  O61  1  0.18966450  0.40684550  0.15859400  1
  O  O62  1  0.10496750  0.58181750  0.93113900  1
  O  O63  1  0.10496750  0.41818250  0.43113900  1
  O  O64  1  0.06436750  0.88527850  0.48010600  1
  O  O65  1  0.06436750  0.11472150  0.98010600  1
  O  O66  1  0.10080700  0.91278400  0.77376700  1
  O  O67  1  0.10080700  0.08721600  0.27376700  1
  O  O68  1  0.42746100  0.55338000  0.75273500  1
  O  O69  1  0.42746100  0.44662000  0.25273500  1
  O  O70  1  0.31900300  0.88380500  0.81960800  1
  O  O71  1  0.31900300  0.11619500  0.31960800  1
  O  O72  1  0.43461850  0.90625950  0.06892400  1
  O  O73  1  0.43461850  0.09374050  0.56892400  1
  O  O74  1  0.28079400  0.87010400  0.50801600  1
  O  O75  1  0.28079400  0.12989600  0.00801600  1
