# generated using pymatgen
data_LiFeCoO4
_symmetry_space_group_name_H-M   'P 1'
_cell_length_a   5.77566316
_cell_length_b   5.92218000
_cell_length_c   8.26795998
_cell_angle_alpha   90.00000000
_cell_angle_beta   90.00000000
_cell_angle_gamma   90.00000000
_symmetry_Int_Tables_number   1
_chemical_formula_structural   LiFeCoO4
_chemical_formula_sum   'Li4 Fe4 Co4 O16'
_cell_volume   282.80157666
_cell_formula_units_Z   4
loop_
 _symmetry_equiv_pos_site_id
 _symmetry_equiv_pos_as_xyz
  1  'x, y, z'
loop_
 _atom_site_type_symbol
 _atom_site_label
 _atom_site_symmetry_multiplicity
 _atom_site_fract_x
 _atom_site_fract_y
 _atom_site_fract_z
 _atom_site_occupancy
  Li  Li0  1  0.00000000  0.25000000  0.88044800  1
  Li  Li1  1  0.00000000  0.75000000  0.11955200  1
  Li  Li2  1  0.50000000  0.75000000  0.38044800  1
  Li  Li3  1  0.50000000  0.25000000  0.61955200  1
  Fe  Fe4  1  0.50000000  0.00000000  0.00000000  1
  Fe  Fe5  1  0.50000000  0.50000000  0.00000000  1
  Fe  Fe6  1  0.00000000  0.50000000  0.50000000  1
  Fe  Fe7  1  0.00000000  0.00000000  0.50000000  1
  Co  Co8  1  0.25000000  0.25000000  0.25000000  1
  Co  Co9  1  0.75000000  0.25000000  0.25000000  1
  Co  Co10  1  0.75000000  0.75000000  0.75000000  1
  Co  Co11  1  0.25000000  0.75000000  0.75000000  1
  O  O12  1  0.00000000  0.46153050  0.25312850  1
  O  O13  1  0.50000000  0.53846950  0.75312850  1
  O  O14  1  0.26674200  0.75000000  0.97900400  1
  O  O15  1  0.73325800  0.75000000  0.97900400  1
  O  O16  1  0.26674200  0.25000000  0.02099600  1
  O  O17  1  0.73325800  0.25000000  0.02099600  1
  O  O18  1  0.50000000  0.46153050  0.24687150  1
  O  O19  1  0.00000000  0.53846950  0.74687150  1
  O  O20  1  0.50000000  0.96153050  0.75312850  1
  O  O21  1  0.00000000  0.03846950  0.25312850  1
  O  O22  1  0.76674200  0.25000000  0.47900400  1
  O  O23  1  0.23325800  0.25000000  0.47900400  1
  O  O24  1  0.76674200  0.75000000  0.52099600  1
  O  O25  1  0.23325800  0.75000000  0.52099600  1
  O  O26  1  0.00000000  0.96153050  0.74687150  1
  O  O27  1  0.50000000  0.03846950  0.24687150  1
