# generated using pymatgen
data_Ce3Th4O14
_symmetry_space_group_name_H-M   'P 1'
_cell_length_a   12.42504800
_cell_length_b   5.55882800
_cell_length_c   8.78923602
_cell_angle_alpha   90.00000000
_cell_angle_beta   98.12026654
_cell_angle_gamma   90.00000000
_symmetry_Int_Tables_number   1
_chemical_formula_structural   Ce3Th4O14
_chemical_formula_sum   'Ce6 Th8 O28'
_cell_volume   600.97460456
_cell_formula_units_Z   2
loop_
 _symmetry_equiv_pos_site_id
 _symmetry_equiv_pos_as_xyz
  1  'x, y, z'
loop_
 _atom_site_type_symbol
 _atom_site_label
 _atom_site_symmetry_multiplicity
 _atom_site_fract_x
 _atom_site_fract_y
 _atom_site_fract_z
 _atom_site_occupancy
  Ce  Ce0  1  0.92910700  0.50000000  0.28523500  1
  Ce  Ce1  1  0.00000000  0.00000000  0.00000000  1
  Ce  Ce2  1  0.57089300  0.00000000  0.71476500  1
  Ce  Ce3  1  0.42910700  0.00000000  0.28523500  1
  Ce  Ce4  1  0.50000000  0.50000000  0.00000000  1
  Ce  Ce5  1  0.07089300  0.50000000  0.71476500  1
  Th  Th6  1  0.64191100  0.50000000  0.42808900  1
  Th  Th7  1  0.71395100  0.00000000  0.14181500  1
  Th  Th8  1  0.78604900  0.50000000  0.85818500  1
  Th  Th9  1  0.85808900  0.00000000  0.57191100  1
  Th  Th10  1  0.14191100  0.00000000  0.42808900  1
  Th  Th11  1  0.21395100  0.50000000  0.14181500  1
  Th  Th12  1  0.28604900  0.00000000  0.85818500  1
  Th  Th13  1  0.35808900  0.50000000  0.57191100  1
  O  O14  1  0.78700650  0.74757550  0.35611600  1
  O  O15  1  0.78700650  0.25242450  0.35611600  1
  O  O16  1  0.85901400  0.75032100  0.07234400  1
  O  O17  1  0.85901400  0.24967900  0.07234400  1
  O  O18  1  0.56938300  0.74984400  0.21290100  1
  O  O19  1  0.56938300  0.25015600  0.21290100  1
  O  O20  1  0.64098600  0.25032100  0.92765600  1
  O  O21  1  0.93061700  0.24984400  0.78709900  1
  O  O22  1  0.71299350  0.24757550  0.64388400  1
  O  O23  1  0.71299350  0.75242450  0.64388400  1
  O  O24  1  0.93061700  0.75015600  0.78709900  1
  O  O25  1  0.64098600  0.74967900  0.92765600  1
  O  O26  1  0.00000000  0.25510000  0.50000000  1
  O  O27  1  0.00000000  0.74490000  0.50000000  1
  O  O28  1  0.28700650  0.24757550  0.35611600  1
  O  O29  1  0.28700650  0.75242450  0.35611600  1
  O  O30  1  0.35901400  0.25032100  0.07234400  1
  O  O31  1  0.35901400  0.74967900  0.07234400  1
  O  O32  1  0.06938300  0.24984400  0.21290100  1
  O  O33  1  0.06938300  0.75015600  0.21290100  1
  O  O34  1  0.14098600  0.75032100  0.92765600  1
  O  O35  1  0.43061700  0.74984400  0.78709900  1
  O  O36  1  0.21299350  0.74757550  0.64388400  1
  O  O37  1  0.21299350  0.25242450  0.64388400  1
  O  O38  1  0.43061700  0.25015600  0.78709900  1
  O  O39  1  0.14098600  0.24967900  0.92765600  1
  O  O40  1  0.50000000  0.75510000  0.50000000  1
  O  O41  1  0.50000000  0.24490000  0.50000000  1
