# generated using pymatgen
data_HoBiO3
_symmetry_space_group_name_H-M   'P 1'
_cell_length_a   5.98943412
_cell_length_b   5.98943412
_cell_length_c   15.17487652
_cell_angle_alpha   90.00000000
_cell_angle_beta   90.00000000
_cell_angle_gamma   120.00000000
_symmetry_Int_Tables_number   1
_chemical_formula_structural   HoBiO3
_chemical_formula_sum   'Ho6 Bi6 O18'
_cell_volume   471.44103625
_cell_formula_units_Z   6
loop_
 _symmetry_equiv_pos_site_id
 _symmetry_equiv_pos_as_xyz
  1  'x, y, z'
loop_
 _atom_site_type_symbol
 _atom_site_label
 _atom_site_symmetry_multiplicity
 _atom_site_fract_x
 _atom_site_fract_y
 _atom_site_fract_z
 _atom_site_occupancy
  Ho  Ho0  1  0.00000000  0.00000000  0.14185000  1
  Ho  Ho1  1  0.66666667  0.33333333  0.19148333  1
  Ho  Ho2  1  0.66666667  0.33333333  0.47518333  1
  Ho  Ho3  1  0.33333333  0.66666667  0.52481667  1
  Ho  Ho4  1  0.33333333  0.66666667  0.80851667  1
  Ho  Ho5  1  0.00000000  0.00000000  0.85815000  1
  Bi  Bi6  1  0.33333333  0.66666667  0.02325167  1
  Bi  Bi7  1  0.33333333  0.66666667  0.31008167  1
  Bi  Bi8  1  0.00000000  0.00000000  0.35658500  1
  Bi  Bi9  1  0.00000000  0.00000000  0.64341500  1
  Bi  Bi10  1  0.66666667  0.33333333  0.68991833  1
  Bi  Bi11  1  0.66666667  0.33333333  0.97674833  1
  O  O12  1  0.92902567  0.30170233  0.08316833  1
  O  O13  1  0.29399000  0.26235900  0.25016500  1
  O  O14  1  0.96836900  0.70601000  0.25016500  1
  O  O15  1  0.69829767  0.62732333  0.08316833  1
  O  O16  1  0.37267667  0.07097433  0.08316833  1
  O  O17  1  0.73764100  0.03163100  0.25016500  1
  O  O18  1  0.59569233  0.63503567  0.41650167  1
  O  O19  1  0.96065667  0.59569233  0.58349833  1
  O  O20  1  0.63503567  0.03934333  0.58349833  1
  O  O21  1  0.36496433  0.96065667  0.41650167  1
  O  O22  1  0.03934333  0.40430767  0.41650167  1
  O  O23  1  0.40430767  0.36496433  0.58349833  1
  O  O24  1  0.26235900  0.96836900  0.74983500  1
  O  O25  1  0.62732333  0.92902567  0.91683167  1
  O  O26  1  0.30170233  0.37267667  0.91683167  1
  O  O27  1  0.03163100  0.29399000  0.74983500  1
  O  O28  1  0.70601000  0.73764100  0.74983500  1
  O  O29  1  0.07097433  0.69829767  0.91683167  1
