# generated using pymatgen
data_V2OF5
_symmetry_space_group_name_H-M   'P 1'
_cell_length_a   5.22989997
_cell_length_b   5.26447350
_cell_length_c   5.41293969
_cell_angle_alpha   90.95638053
_cell_angle_beta   118.40933657
_cell_angle_gamma   119.24441836
_symmetry_Int_Tables_number   1
_chemical_formula_structural   V2OF5
_chemical_formula_sum   'V2 O1 F5'
_cell_volume   108.18375841
_cell_formula_units_Z   1
loop_
 _symmetry_equiv_pos_site_id
 _symmetry_equiv_pos_as_xyz
  1  'x, y, z'
loop_
 _atom_site_type_symbol
 _atom_site_label
 _atom_site_symmetry_multiplicity
 _atom_site_fract_x
 _atom_site_fract_y
 _atom_site_fract_z
 _atom_site_occupancy
  V  V0  1  0.69187200  0.33125600  0.00593100  1
  V  V1  1  0.68505000  0.84528600  0.52774000  1
  O  O2  1  0.75211300  0.17526400  0.78137400  1
  F  F3  1  0.60081400  0.50444400  0.26670400  1
  F  F4  1  0.18493200  0.99789300  0.79447400  1
  F  F5  1  0.79299800  0.10836400  0.28908300  1
  F  F6  1  0.18047500  0.69033500  0.26819700  1
  F  F7  1  0.57766700  0.58540200  0.77126300  1
