# generated using pymatgen
data_LiTlPHO3
_symmetry_space_group_name_H-M   'P 1'
_cell_length_a   14.41656000
_cell_length_b   5.21460800
_cell_length_c   5.45029098
_cell_angle_alpha   90.00000000
_cell_angle_beta   90.52635405
_cell_angle_gamma   90.00000000
_symmetry_Int_Tables_number   1
_chemical_formula_structural   LiTlPHO3
_chemical_formula_sum   'Li4 Tl4 P4 H4 O12'
_cell_volume   409.71765042
_cell_formula_units_Z   4
loop_
 _symmetry_equiv_pos_site_id
 _symmetry_equiv_pos_as_xyz
  1  'x, y, z'
loop_
 _atom_site_type_symbol
 _atom_site_label
 _atom_site_symmetry_multiplicity
 _atom_site_fract_x
 _atom_site_fract_y
 _atom_site_fract_z
 _atom_site_occupancy
  Li  Li0  1  0.74998100  0.54854800  0.81408600  1
  Li  Li1  1  0.75001900  0.04854800  0.18591400  1
  Li  Li2  1  0.24998100  0.04854800  0.81408600  1
  Li  Li3  1  0.25001900  0.54854800  0.18591400  1
  Tl  Tl4  1  0.59541000  0.51350800  0.25164800  1
  Tl  Tl5  1  0.90459000  0.01350800  0.74835200  1
  Tl  Tl6  1  0.09541000  0.01350800  0.25164800  1
  Tl  Tl7  1  0.40459000  0.51350800  0.74835200  1
  P  P8  1  0.85992250  0.55762150  0.31175900  1
  P  P9  1  0.64007750  0.05762150  0.68824100  1
  P  P10  1  0.35992250  0.05762150  0.31175900  1
  P  P11  1  0.14007750  0.55762150  0.68824100  1
  H  H12  1  0.94859700  0.47328300  0.23350200  1
  H  H13  1  0.55140300  0.97328300  0.76649800  1
  H  H14  1  0.44859700  0.97328300  0.23350200  1
  H  H15  1  0.05140300  0.47328300  0.76649800  1
  O  O16  1  0.78772450  0.41905050  0.14702700  1
  O  O17  1  0.85247200  0.48601900  0.58487500  1
  O  O18  1  0.86025750  0.85146950  0.27370800  1
  O  O19  1  0.63974250  0.35146950  0.72629200  1
  O  O20  1  0.64752800  0.98601900  0.41512500  1
  O  O21  1  0.71227550  0.91905050  0.85297300  1
  O  O22  1  0.28772450  0.91905050  0.14702700  1
  O  O23  1  0.35247200  0.98601900  0.58487500  1
  O  O24  1  0.36025750  0.35146950  0.27370800  1
  O  O25  1  0.13974250  0.85146950  0.72629200  1
  O  O26  1  0.14752800  0.48601900  0.41512500  1
  O  O27  1  0.21227550  0.41905050  0.85297300  1
