# generated using pymatgen
data_Na3CaAl3Si3SO16
_symmetry_space_group_name_H-M   'P 1'
_cell_length_a   7.82868000
_cell_length_b   7.85365750
_cell_length_c   12.81586616
_cell_angle_alpha   89.88251408
_cell_angle_beta   89.88620295
_cell_angle_gamma   70.48950312
_symmetry_Int_Tables_number   1
_chemical_formula_structural   Na3CaAl3Si3SO16
_chemical_formula_sum   'Na6 Ca2 Al6 Si6 S2 O32'
_cell_volume   742.72065775
_cell_formula_units_Z   2
loop_
 _symmetry_equiv_pos_site_id
 _symmetry_equiv_pos_as_xyz
  1  'x, y, z'
loop_
 _atom_site_type_symbol
 _atom_site_label
 _atom_site_symmetry_multiplicity
 _atom_site_fract_x
 _atom_site_fract_y
 _atom_site_fract_z
 _atom_site_occupancy
  Na  Na0  1  0.19487300  0.80524200  0.82136100  1
  Na  Na1  1  0.70403200  0.29770100  0.29437400  1
  Na  Na2  1  0.18230300  0.81219400  0.17324300  1
  Na  Na3  1  0.10130000  0.50387800  0.49870400  1
  Na  Na4  1  0.00340800  0.37494000  0.00171400  1
  Na  Na5  1  0.62962100  0.99517400  0.00103900  1
  Ca  Ca6  1  0.67889200  0.32883400  0.69954700  1
  Ca  Ca7  1  0.49595100  0.86025100  0.50041200  1
  Al  Al8  1  0.62862100  0.62801500  0.87471300  1
  Al  Al9  1  0.37536500  0.36951800  0.87376200  1
  Al  Al10  1  0.11696300  0.13049000  0.62941200  1
  Al  Al11  1  0.49868600  0.99767000  0.24858500  1
  Al  Al12  1  0.87128300  0.87894300  0.63002400  1
  Al  Al13  1  0.00312400  0.49923500  0.24976700  1
  Si  Si14  1  0.00767600  0.50507600  0.75001400  1
  Si  Si15  1  0.12470300  0.11905200  0.37724300  1
  Si  Si16  1  0.49348300  0.99387100  0.74970400  1
  Si  Si17  1  0.87729400  0.87258600  0.37801400  1
  Si  Si18  1  0.62808200  0.62115700  0.12320900  1
  Si  Si19  1  0.38048400  0.37216400  0.12277000  1
  S  S20  1  0.50952500  0.50028500  0.50366800  1
  S  S21  1  0.99013000  0.01034000  0.99563900  1
  O  O22  1  0.55388000  0.86109300  0.84973300  1
  O  O23  1  0.00540800  0.70191400  0.70783000  1
  O  O24  1  0.80542400  0.51198500  0.78824400  1
  O  O25  1  0.41269200  0.60651400  0.59685600  1
  O  O26  1  0.70027200  0.50388900  0.50925000  1
  O  O27  1  0.06264400  0.36252400  0.65212400  1
  O  O28  1  0.46591400  0.53471100  0.83880400  1
  O  O29  1  0.05593500  0.33372300  0.34995500  1
  O  O30  1  0.49124600  0.20924000  0.20172500  1
  O  O31  1  0.65771000  0.93966100  0.35357400  1
  O  O32  1  0.19819500  0.08334800  0.49827200  1
  O  O33  1  0.14234700  0.44211400  0.84944700  1
  O  O34  1  0.50839100  0.31255400  0.50958000  1
  O  O35  1  0.29396300  0.99659300  0.30615400  1
  O  O36  1  0.88555800  0.11341400  0.90458300  1
  O  O37  1  0.90360700  0.09611200  0.09536800  1
  O  O38  1  0.18149300  0.00986000  0.99130900  1
  O  O39  1  0.55087300  0.83649100  0.14964100  1
  O  O40  1  0.49225900  0.19473400  0.78472000  1
  O  O41  1  0.94855600  0.04792900  0.35954700  1
  O  O42  1  0.92053300  0.07688200  0.64969200  1
  O  O43  1  0.63410200  0.92863600  0.64933100  1
  O  O44  1  0.70146300  0.59333100  0.00413500  1
  O  O45  1  0.99112500  0.81899600  0.99217600  1
  O  O46  1  0.90069000  0.80604200  0.49885400  1
  O  O47  1  0.29860600  0.99376200  0.70451900  1
  O  O48  1  0.42164900  0.59855700  0.40763200  1
  O  O49  1  0.99555200  0.70816900  0.30365100  1
  O  O50  1  0.45681700  0.54360700  0.14179500  1
  O  O51  1  0.16448600  0.45015500  0.14961500  1
  O  O52  1  0.79122100  0.50910300  0.20108000  1
  O  O53  1  0.41159000  0.29773900  0.00388100  1
