# generated using pymatgen
data_Ba4Ta2O9
_symmetry_space_group_name_H-M   'P 1'
_cell_length_a   6.26482646
_cell_length_b   6.26482646
_cell_length_c   15.93120200
_cell_angle_alpha   90.00000000
_cell_angle_beta   90.00000000
_cell_angle_gamma   120.00000000
_symmetry_Int_Tables_number   1
_chemical_formula_structural   Ba4Ta2O9
_chemical_formula_sum   'Ba8 Ta4 O18'
_cell_volume   541.49851105
_cell_formula_units_Z   2
loop_
 _symmetry_equiv_pos_site_id
 _symmetry_equiv_pos_as_xyz
  1  'x, y, z'
loop_
 _atom_site_type_symbol
 _atom_site_label
 _atom_site_symmetry_multiplicity
 _atom_site_fract_x
 _atom_site_fract_y
 _atom_site_fract_z
 _atom_site_occupancy
  Ba  Ba0  1  0.33333333  0.66666667  0.53217400  1
  Ba  Ba1  1  0.33333333  0.66666667  0.79471800  1
  Ba  Ba2  1  0.33333333  0.66666667  0.29471800  1
  Ba  Ba3  1  0.33333333  0.66666667  0.03217400  1
  Ba  Ba4  1  0.66666667  0.33333333  0.70528200  1
  Ba  Ba5  1  0.66666667  0.33333333  0.20528200  1
  Ba  Ba6  1  0.66666667  0.33333333  0.96782600  1
  Ba  Ba7  1  0.66666667  0.33333333  0.46782600  1
  Ta  Ta8  1  0.00000000  0.00000000  0.65253800  1
  Ta  Ta9  1  0.00000000  0.00000000  0.84746200  1
  Ta  Ta10  1  0.00000000  0.00000000  0.15253800  1
  Ta  Ta11  1  0.00000000  0.00000000  0.34746200  1
  O  O12  1  0.00000000  0.76494900  0.25000000  1
  O  O13  1  0.03633700  0.74229500  0.90245900  1
  O  O14  1  0.25770500  0.96366300  0.40245900  1
  O  O15  1  0.03633700  0.29404200  0.40245900  1
  O  O16  1  0.00000000  0.23505100  0.75000000  1
  O  O17  1  0.23505100  0.23505100  0.25000000  1
  O  O18  1  0.25770500  0.29404200  0.90245900  1
  O  O19  1  0.70595800  0.96366300  0.90245900  1
  O  O20  1  0.29404200  0.25770500  0.59754100  1
  O  O21  1  0.23505100  0.00000000  0.75000000  1
  O  O22  1  0.70595800  0.74229500  0.40245900  1
  O  O23  1  0.29404200  0.03633700  0.09754100  1
  O  O24  1  0.74229500  0.70595800  0.09754100  1
  O  O25  1  0.76494900  0.76494900  0.75000000  1
  O  O26  1  0.96366300  0.70595800  0.59754100  1
  O  O27  1  0.74229500  0.03633700  0.59754100  1
  O  O28  1  0.76494900  0.00000000  0.25000000  1
  O  O29  1  0.96366300  0.25770500  0.09754100  1
