# generated using pymatgen
data_MnH12N2(Cl2O)2
_symmetry_space_group_name_H-M   'P 1'
_cell_length_a   7.55593698
_cell_length_b   7.55593698
_cell_length_c   8.44323885
_cell_angle_alpha   90.00000000
_cell_angle_beta   90.00000000
_cell_angle_gamma   90.00000000
_symmetry_Int_Tables_number   1
_chemical_formula_structural   MnH12N2(Cl2O)2
_chemical_formula_sum   'Mn2 H24 N4 Cl8 O4'
_cell_volume   482.04294239
_cell_formula_units_Z   2
loop_
 _symmetry_equiv_pos_site_id
 _symmetry_equiv_pos_as_xyz
  1  'x, y, z'
loop_
 _atom_site_type_symbol
 _atom_site_label
 _atom_site_symmetry_multiplicity
 _atom_site_fract_x
 _atom_site_fract_y
 _atom_site_fract_z
 _atom_site_occupancy
  Mn  Mn0  1  0.00000000  0.00000000  0.00000000  1
  Mn  Mn1  1  0.50000000  0.50000000  0.50000000  1
  H  H2  1  0.42568125  0.42568125  0.16796250  1
  H  H3  1  0.07431875  0.07431875  0.66796250  1
  H  H4  1  0.42568125  0.57431875  0.83203750  1
  H  H5  1  0.57431875  0.42568125  0.83203750  1
  H  H6  1  0.08644300  0.56962150  0.32132900  1
  H  H7  1  0.43037850  0.91355700  0.32132900  1
  H  H8  1  0.06962150  0.41355700  0.17867100  1
  H  H9  1  0.58644300  0.93037850  0.17867100  1
  H  H10  1  0.56962150  0.08644300  0.32132900  1
  H  H11  1  0.91355700  0.43037850  0.32132900  1
  H  H12  1  0.41355700  0.06962150  0.17867100  1
  H  H13  1  0.93037850  0.58644300  0.17867100  1
  H  H14  1  0.92568125  0.92568125  0.66796250  1
  H  H15  1  0.57431875  0.57431875  0.16796250  1
  H  H16  1  0.92568125  0.07431875  0.33203750  1
  H  H17  1  0.07431875  0.92568125  0.33203750  1
  H  H18  1  0.58644300  0.06962150  0.82132900  1
  H  H19  1  0.93037850  0.41355700  0.82132900  1
  H  H20  1  0.56962150  0.91355700  0.67867100  1
  H  H21  1  0.08644300  0.43037850  0.67867100  1
  H  H22  1  0.06962150  0.58644300  0.82132900  1
  H  H23  1  0.41355700  0.93037850  0.82132900  1
  H  H24  1  0.91355700  0.56962150  0.67867100  1
  H  H25  1  0.43037850  0.08644300  0.67867100  1
  N  N26  1  0.50000000  0.00000000  0.25000000  1
  N  N27  1  0.00000000  0.50000000  0.25000000  1
  N  N28  1  0.00000000  0.50000000  0.75000000  1
  N  N29  1  0.50000000  0.00000000  0.75000000  1
  Cl  Cl30  1  0.24062175  0.24062175  0.02180850  1
  Cl  Cl31  1  0.74062175  0.25937825  0.47819150  1
  Cl  Cl32  1  0.25937825  0.74062175  0.47819150  1
  Cl  Cl33  1  0.25937825  0.25937825  0.52180850  1
  Cl  Cl34  1  0.74062175  0.74062175  0.52180850  1
  Cl  Cl35  1  0.24062175  0.75937825  0.97819150  1
  Cl  Cl36  1  0.75937825  0.24062175  0.97819150  1
  Cl  Cl37  1  0.75937825  0.75937825  0.02180850  1
  O  O38  1  0.00000000  0.00000000  0.26297650  1
  O  O39  1  0.00000000  0.00000000  0.73702350  1
  O  O40  1  0.50000000  0.50000000  0.76297650  1
  O  O41  1  0.50000000  0.50000000  0.23702350  1
