# generated using pymatgen
data_Li2FeF4
_symmetry_space_group_name_H-M   'P 1'
_cell_length_a   12.29970000
_cell_length_b   12.29970000
_cell_length_c   8.37343200
_cell_angle_alpha   90.00000000
_cell_angle_beta   90.00000000
_cell_angle_gamma   90.00000000
_symmetry_Int_Tables_number   1
_chemical_formula_structural   Li2FeF4
_chemical_formula_sum   'Li32 Fe16 F64'
_cell_volume   1266.75473211
_cell_formula_units_Z   16
loop_
 _symmetry_equiv_pos_site_id
 _symmetry_equiv_pos_as_xyz
  1  'x, y, z'
loop_
 _atom_site_type_symbol
 _atom_site_label
 _atom_site_symmetry_multiplicity
 _atom_site_fract_x
 _atom_site_fract_y
 _atom_site_fract_z
 _atom_site_occupancy
  Li  Li0  1  0.14021000  0.25000000  0.37500000  1
  Li  Li1  1  0.13136300  0.13136300  0.00000000  1
  Li  Li2  1  0.13136300  0.36863700  0.75000000  1
  Li  Li3  1  0.25000000  0.14021000  0.62500000  1
  Li  Li4  1  0.75000000  0.85979000  0.62500000  1
  Li  Li5  1  0.86863700  0.86863700  0.00000000  1
  Li  Li6  1  0.36863700  0.13136300  0.25000000  1
  Li  Li7  1  0.85979000  0.75000000  0.37500000  1
  Li  Li8  1  0.14021000  0.75000000  0.37500000  1
  Li  Li9  1  0.13136300  0.63136300  0.75000000  1
  Li  Li10  1  0.13136300  0.86863700  0.00000000  1
  Li  Li11  1  0.25000000  0.85979000  0.62500000  1
  Li  Li12  1  0.75000000  0.14021000  0.62500000  1
  Li  Li13  1  0.36863700  0.86863700  0.25000000  1
  Li  Li14  1  0.86863700  0.13136300  0.00000000  1
  Li  Li15  1  0.85979000  0.25000000  0.37500000  1
  Li  Li16  1  0.64021000  0.75000000  0.87500000  1
  Li  Li17  1  0.63136300  0.63136300  0.50000000  1
  Li  Li18  1  0.63136300  0.86863700  0.25000000  1
  Li  Li19  1  0.75000000  0.64021000  0.12500000  1
  Li  Li20  1  0.25000000  0.35979000  0.12500000  1
  Li  Li21  1  0.36863700  0.36863700  0.50000000  1
  Li  Li22  1  0.86863700  0.63136300  0.75000000  1
  Li  Li23  1  0.35979000  0.25000000  0.87500000  1
  Li  Li24  1  0.64021000  0.25000000  0.87500000  1
  Li  Li25  1  0.63136300  0.13136300  0.25000000  1
  Li  Li26  1  0.63136300  0.36863700  0.50000000  1
  Li  Li27  1  0.75000000  0.35979000  0.12500000  1
  Li  Li28  1  0.25000000  0.64021000  0.12500000  1
  Li  Li29  1  0.86863700  0.36863700  0.75000000  1
  Li  Li30  1  0.36863700  0.63136300  0.50000000  1
  Li  Li31  1  0.35979000  0.75000000  0.87500000  1
  Fe  Fe32  1  0.86753700  0.00000000  0.35167900  1
  Fe  Fe33  1  0.36753700  0.00000000  0.89832100  1
  Fe  Fe34  1  0.00000000  0.63246300  0.10167900  1
  Fe  Fe35  1  0.00000000  0.13246300  0.64832100  1
  Fe  Fe36  1  0.00000000  0.36753700  0.10167900  1
  Fe  Fe37  1  0.00000000  0.86753700  0.64832100  1
  Fe  Fe38  1  0.13246300  0.00000000  0.35167900  1
  Fe  Fe39  1  0.63246300  0.00000000  0.89832100  1
  Fe  Fe40  1  0.36753700  0.50000000  0.85167900  1
  Fe  Fe41  1  0.86753700  0.50000000  0.39832100  1
  Fe  Fe42  1  0.50000000  0.13246300  0.60167900  1
  Fe  Fe43  1  0.50000000  0.63246300  0.14832100  1
  Fe  Fe44  1  0.50000000  0.86753700  0.60167900  1
  Fe  Fe45  1  0.50000000  0.36753700  0.14832100  1
  Fe  Fe46  1  0.63246300  0.50000000  0.85167900  1
  Fe  Fe47  1  0.13246300  0.50000000  0.39832100  1
  F  F48  1  0.12697000  0.25777200  0.13503100  1
  F  F49  1  0.12697000  0.24222800  0.61496900  1
  F  F50  1  0.74222800  0.87303000  0.86496900  1
  F  F51  1  0.24222800  0.12697000  0.38503100  1
  F  F52  1  0.75777200  0.87303000  0.38503100  1
  F  F53  1  0.25777200  0.12697000  0.86496900  1
  F  F54  1  0.37229150  0.00000000  0.13131050  1
  F  F55  1  0.87229150  0.00000000  0.11868950  1
  F  F56  1  0.87303000  0.75777200  0.61496900  1
  F  F57  1  0.87303000  0.74222800  0.13503100  1
  F  F58  1  0.37751800  0.00000000  0.64441600  1
  F  F59  1  0.87751800  0.00000000  0.60558400  1
  F  F60  1  0.00000000  0.12248200  0.39441600  1
  F  F61  1  0.00000000  0.37229150  0.86868950  1
  F  F62  1  0.00000000  0.37751800  0.35558400  1
  F  F63  1  0.00000000  0.62248200  0.35558400  1
  F  F64  1  0.00000000  0.62770850  0.86868950  1
  F  F65  1  0.00000000  0.87751800  0.39441600  1
  F  F66  1  0.00000000  0.87229150  0.88131050  1
  F  F67  1  0.00000000  0.12770850  0.88131050  1
  F  F68  1  0.62248200  0.00000000  0.64441600  1
  F  F69  1  0.12248200  0.00000000  0.60558400  1
  F  F70  1  0.12697000  0.74222800  0.13503100  1
  F  F71  1  0.12697000  0.75777200  0.61496900  1
  F  F72  1  0.62770850  0.00000000  0.13131050  1
  F  F73  1  0.12770850  0.00000000  0.11868950  1
  F  F74  1  0.74222800  0.12697000  0.86496900  1
  F  F75  1  0.24222800  0.87303000  0.38503100  1
  F  F76  1  0.75777200  0.12697000  0.38503100  1
  F  F77  1  0.25777200  0.87303000  0.86496900  1
  F  F78  1  0.87303000  0.25777200  0.13503100  1
  F  F79  1  0.87303000  0.24222800  0.61496900  1
  F  F80  1  0.62697000  0.75777200  0.63503100  1
  F  F81  1  0.62697000  0.74222800  0.11496900  1
  F  F82  1  0.24222800  0.37303000  0.36496900  1
  F  F83  1  0.74222800  0.62697000  0.88503100  1
  F  F84  1  0.25777200  0.37303000  0.88503100  1
  F  F85  1  0.75777200  0.62697000  0.36496900  1
  F  F86  1  0.87229150  0.50000000  0.63131050  1
  F  F87  1  0.37229150  0.50000000  0.61868950  1
  F  F88  1  0.37303000  0.25777200  0.11496900  1
  F  F89  1  0.37303000  0.24222800  0.63503100  1
  F  F90  1  0.87751800  0.50000000  0.14441600  1
  F  F91  1  0.37751800  0.50000000  0.10558400  1
  F  F92  1  0.50000000  0.62248200  0.89441600  1
  F  F93  1  0.50000000  0.87229150  0.36868950  1
  F  F94  1  0.50000000  0.87751800  0.85558400  1
  F  F95  1  0.50000000  0.12248200  0.85558400  1
  F  F96  1  0.50000000  0.12770850  0.36868950  1
  F  F97  1  0.50000000  0.37751800  0.89441600  1
  F  F98  1  0.50000000  0.37229150  0.38131050  1
  F  F99  1  0.50000000  0.62770850  0.38131050  1
  F  F100  1  0.12248200  0.50000000  0.14441600  1
  F  F101  1  0.62248200  0.50000000  0.10558400  1
  F  F102  1  0.62697000  0.24222800  0.63503100  1
  F  F103  1  0.62697000  0.25777200  0.11496900  1
  F  F104  1  0.12770850  0.50000000  0.63131050  1
  F  F105  1  0.62770850  0.50000000  0.61868950  1
  F  F106  1  0.24222800  0.62697000  0.36496900  1
  F  F107  1  0.74222800  0.37303000  0.88503100  1
  F  F108  1  0.25777200  0.62697000  0.88503100  1
  F  F109  1  0.75777200  0.37303000  0.36496900  1
  F  F110  1  0.37303000  0.75777200  0.63503100  1
  F  F111  1  0.37303000  0.74222800  0.11496900  1
