# generated using pymatgen
data_NaH4CSNO2
_symmetry_space_group_name_H-M   'P 1'
_cell_length_a   12.12599800
_cell_length_b   13.88817800
_cell_length_c   6.43037896
_cell_angle_alpha   90.00000000
_cell_angle_beta   109.46949445
_cell_angle_gamma   90.00000000
_symmetry_Int_Tables_number   1
_chemical_formula_structural   NaH4CSNO2
_chemical_formula_sum   'Na8 H32 C8 S8 N8 O16'
_cell_volume   1021.00460015
_cell_formula_units_Z   8
loop_
 _symmetry_equiv_pos_site_id
 _symmetry_equiv_pos_as_xyz
  1  'x, y, z'
loop_
 _atom_site_type_symbol
 _atom_site_label
 _atom_site_symmetry_multiplicity
 _atom_site_fract_x
 _atom_site_fract_y
 _atom_site_fract_z
 _atom_site_occupancy
  Na  Na0  1  0.50000000  0.56585000  0.75000000  1
  Na  Na1  1  0.50000000  0.43415000  0.25000000  1
  Na  Na2  1  0.50000000  0.30067600  0.75000000  1
  Na  Na3  1  0.50000000  0.69932400  0.25000000  1
  Na  Na4  1  0.00000000  0.06585000  0.75000000  1
  Na  Na5  1  0.00000000  0.93415000  0.25000000  1
  Na  Na6  1  0.00000000  0.80067600  0.75000000  1
  Na  Na7  1  0.00000000  0.19932400  0.25000000  1
  H  H8  1  0.19597050  0.82868650  0.16484700  1
  H  H9  1  0.80402950  0.82868650  0.33515300  1
  H  H10  1  0.80402950  0.17131350  0.83515300  1
  H  H11  1  0.19597050  0.17131350  0.66484700  1
  H  H12  1  0.61611450  0.24553450  0.18885800  1
  H  H13  1  0.38388550  0.24553450  0.31114200  1
  H  H14  1  0.38388550  0.75446550  0.81114200  1
  H  H15  1  0.61611450  0.75446550  0.68885800  1
  H  H16  1  0.62699450  0.13184750  0.60446100  1
  H  H17  1  0.37300550  0.13184750  0.89553900  1
  H  H18  1  0.37300550  0.86815250  0.39553900  1
  H  H19  1  0.62699450  0.86815250  0.10446100  1
  H  H20  1  0.62229200  0.11811800  0.84327900  1
  H  H21  1  0.37770800  0.11811800  0.65672100  1
  H  H22  1  0.37770800  0.88188200  0.15672100  1
  H  H23  1  0.62229200  0.88188200  0.34327900  1
  H  H24  1  0.69597050  0.32868650  0.16484700  1
  H  H25  1  0.30402950  0.32868650  0.33515300  1
  H  H26  1  0.30402950  0.67131350  0.83515300  1
  H  H27  1  0.69597050  0.67131350  0.66484700  1
  H  H28  1  0.11611450  0.74553450  0.18885800  1
  H  H29  1  0.88388550  0.74553450  0.31114200  1
  H  H30  1  0.88388550  0.25446550  0.81114200  1
  H  H31  1  0.11611450  0.25446550  0.68885800  1
  H  H32  1  0.12699450  0.63184750  0.60446100  1
  H  H33  1  0.87300550  0.63184750  0.89553900  1
  H  H34  1  0.87300550  0.36815250  0.39553900  1
  H  H35  1  0.12699450  0.36815250  0.10446100  1
  H  H36  1  0.12229200  0.61811800  0.84327900  1
  H  H37  1  0.87770800  0.61811800  0.65672100  1
  H  H38  1  0.87770800  0.38188200  0.15672100  1
  H  H39  1  0.12229200  0.38188200  0.34327900  1
  C  C40  1  0.22392600  0.92578800  0.70511100  1
  C  C41  1  0.77607400  0.92578800  0.79488900  1
  C  C42  1  0.77607400  0.07421200  0.29488900  1
  C  C43  1  0.22392600  0.07421200  0.20511100  1
  C  C44  1  0.72392600  0.42578800  0.70511100  1
  C  C45  1  0.27607400  0.42578800  0.79488900  1
  C  C46  1  0.27607400  0.57421200  0.29488900  1
  C  C47  1  0.72392600  0.57421200  0.20511100  1
  S  S48  1  0.36521450  0.91767750  0.75741100  1
  S  S49  1  0.63478550  0.91767750  0.74258900  1
  S  S50  1  0.63478550  0.08232250  0.24258900  1
  S  S51  1  0.36521450  0.08232250  0.25741100  1
  S  S52  1  0.86521450  0.41767750  0.75741100  1
  S  S53  1  0.13478550  0.41767750  0.74258900  1
  S  S54  1  0.13478550  0.58232250  0.24258900  1
  S  S55  1  0.86521450  0.58232250  0.25741100  1
  N  N56  1  0.12163700  0.93344300  0.66977000  1
  N  N57  1  0.87836300  0.93344300  0.83023000  1
  N  N58  1  0.87836300  0.06655700  0.33023000  1
  N  N59  1  0.12163700  0.06655700  0.16977000  1
  N  N60  1  0.62163700  0.43344300  0.66977000  1
  N  N61  1  0.37836300  0.43344300  0.83023000  1
  N  N62  1  0.37836300  0.56655700  0.33023000  1
  N  N63  1  0.62163700  0.56655700  0.16977000  1
  O  O64  1  0.61286250  0.31328550  0.14045800  1
  O  O65  1  0.38713750  0.31328550  0.35954200  1
  O  O66  1  0.38713750  0.68671450  0.85954200  1
  O  O67  1  0.61286250  0.68671450  0.64045800  1
  O  O68  1  0.63664600  0.16642600  0.74333200  1
  O  O69  1  0.36335400  0.16642600  0.75666800  1
  O  O70  1  0.36335400  0.83357400  0.25666800  1
  O  O71  1  0.63664600  0.83357400  0.24333200  1
  O  O72  1  0.11286250  0.81328550  0.14045800  1
  O  O73  1  0.88713750  0.81328550  0.35954200  1
  O  O74  1  0.88713750  0.18671450  0.85954200  1
  O  O75  1  0.11286250  0.18671450  0.64045800  1
  O  O76  1  0.13664600  0.66642600  0.74333200  1
  O  O77  1  0.86335400  0.66642600  0.75666800  1
  O  O78  1  0.86335400  0.33357400  0.25666800  1
  O  O79  1  0.13664600  0.33357400  0.24333200  1
