# generated using pymatgen
data_Li4Ti3Ni3(TeO8)2
_symmetry_space_group_name_H-M   'P 1'
_cell_length_a   10.32771434
_cell_length_b   5.98370467
_cell_length_c   10.05379266
_cell_angle_alpha   90.00000000
_cell_angle_beta   90.41723982
_cell_angle_gamma   90.00000000
_symmetry_Int_Tables_number   1
_chemical_formula_structural   Li4Ti3Ni3(TeO8)2
_chemical_formula_sum   'Li8 Ti6 Ni6 Te4 O32'
_cell_volume   621.28772966
_cell_formula_units_Z   2
loop_
 _symmetry_equiv_pos_site_id
 _symmetry_equiv_pos_as_xyz
  1  'x, y, z'
loop_
 _atom_site_type_symbol
 _atom_site_label
 _atom_site_symmetry_multiplicity
 _atom_site_fract_x
 _atom_site_fract_y
 _atom_site_fract_z
 _atom_site_occupancy
  Li  Li0  1  0.33749450  0.00000000  0.90924900  1
  Li  Li1  1  0.00274000  0.00000000  0.98353250  1
  Li  Li2  1  0.99650500  0.00000000  0.49091500  1
  Li  Li3  1  0.66856950  0.00000000  0.40371250  1
  Li  Li4  1  0.83749450  0.50000000  0.90924900  1
  Li  Li5  1  0.50274000  0.50000000  0.98353250  1
  Li  Li6  1  0.49650500  0.50000000  0.49091500  1
  Li  Li7  1  0.16856950  0.50000000  0.40371250  1
  Ti  Ti8  1  0.82716600  0.00000000  0.72410900  1
  Ti  Ti9  1  0.40723900  0.23915700  0.21851300  1
  Ti  Ti10  1  0.40723900  0.76084300  0.21851300  1
  Ti  Ti11  1  0.32716600  0.50000000  0.72410900  1
  Ti  Ti12  1  0.90723900  0.73915700  0.21851300  1
  Ti  Ti13  1  0.90723900  0.26084300  0.21851300  1
  Ni  Ni14  1  0.17152150  0.00000000  0.20176600  1
  Ni  Ni15  1  0.58551000  0.24267150  0.72051250  1
  Ni  Ni16  1  0.58551000  0.75732850  0.72051250  1
  Ni  Ni17  1  0.67152150  0.50000000  0.20176600  1
  Ni  Ni18  1  0.08551000  0.74267150  0.72051250  1
  Ni  Ni19  1  0.08551000  0.25732850  0.72051250  1
  Te  Te20  1  0.32558350  0.00000000  0.51058300  1
  Te  Te21  1  0.66283500  0.00000000  0.98529800  1
  Te  Te22  1  0.82558350  0.50000000  0.51058300  1
  Te  Te23  1  0.16283500  0.50000000  0.98529800  1
  O  O24  1  0.48944200  0.00000000  0.31651700  1
  O  O25  1  0.34457950  0.00000000  0.10371100  1
  O  O26  1  0.99793850  0.00000000  0.29355550  1
  O  O27  1  0.99346300  0.00000000  0.80316000  1
  O  O28  1  0.83117200  0.00000000  0.08806400  1
  O  O29  1  0.15931900  0.00000000  0.59705700  1
  O  O30  1  0.67854450  0.00000000  0.61087750  1
  O  O31  1  0.52112850  0.00000000  0.85538750  1
  O  O32  1  0.40730150  0.25107750  0.61235750  1
  O  O33  1  0.40730150  0.74892250  0.61235750  1
  O  O34  1  0.26517800  0.24619000  0.32252800  1
  O  O35  1  0.26517800  0.75381000  0.32252800  1
  O  O36  1  0.74574100  0.21493050  0.85704350  1
  O  O37  1  0.74574100  0.78506950  0.85704350  1
  O  O38  1  0.58523750  0.24600850  0.08420450  1
  O  O39  1  0.58523750  0.75399150  0.08420450  1
  O  O40  1  0.98944200  0.50000000  0.31651700  1
  O  O41  1  0.84457950  0.50000000  0.10371100  1
  O  O42  1  0.49793850  0.50000000  0.29355550  1
  O  O43  1  0.49346300  0.50000000  0.80316000  1
  O  O44  1  0.33117200  0.50000000  0.08806400  1
  O  O45  1  0.65931900  0.50000000  0.59705700  1
  O  O46  1  0.17854450  0.50000000  0.61087750  1
  O  O47  1  0.02112850  0.50000000  0.85538750  1
  O  O48  1  0.90730150  0.75107750  0.61235750  1
  O  O49  1  0.90730150  0.24892250  0.61235750  1
  O  O50  1  0.76517800  0.74619000  0.32252800  1
  O  O51  1  0.76517800  0.25381000  0.32252800  1
  O  O52  1  0.24574100  0.71493050  0.85704350  1
  O  O53  1  0.24574100  0.28506950  0.85704350  1
  O  O54  1  0.08523750  0.74600850  0.08420450  1
  O  O55  1  0.08523750  0.25399150  0.08420450  1
