# generated using pymatgen
data_Li4Ti3Sn5O16
_symmetry_space_group_name_H-M   'P 1'
_cell_length_a   10.81221000
_cell_length_b   6.20268400
_cell_length_c   10.69937785
_cell_angle_alpha   90.00000000
_cell_angle_beta   90.11579248
_cell_angle_gamma   90.00000000
_symmetry_Int_Tables_number   1
_chemical_formula_structural   Li4Ti3Sn5O16
_chemical_formula_sum   'Li8 Ti6 Sn10 O32'
_cell_volume   717.54933542
_cell_formula_units_Z   2
loop_
 _symmetry_equiv_pos_site_id
 _symmetry_equiv_pos_as_xyz
  1  'x, y, z'
loop_
 _atom_site_type_symbol
 _atom_site_label
 _atom_site_symmetry_multiplicity
 _atom_site_fract_x
 _atom_site_fract_y
 _atom_site_fract_z
 _atom_site_occupancy
  Li  Li0  1  0.66825200  0.00000000  0.86772700  1
  Li  Li1  1  0.99005200  0.00000000  0.99620300  1
  Li  Li2  1  0.99414700  0.00000000  0.50090900  1
  Li  Li3  1  0.83563100  0.50000000  0.39021400  1
  Li  Li4  1  0.16825200  0.50000000  0.86772700  1
  Li  Li5  1  0.49005200  0.50000000  0.99620300  1
  Li  Li6  1  0.49414700  0.50000000  0.50090900  1
  Li  Li7  1  0.33563100  0.00000000  0.39021400  1
  Ti  Ti8  1  0.82600700  0.00000000  0.22180900  1
  Ti  Ti9  1  0.91458950  0.25596650  0.71577000  1
  Ti  Ti10  1  0.91458950  0.74403350  0.71577000  1
  Ti  Ti11  1  0.32600700  0.50000000  0.22180900  1
  Ti  Ti12  1  0.41458950  0.75596650  0.71577000  1
  Ti  Ti13  1  0.41458950  0.24403350  0.71577000  1
  Sn  Sn14  1  0.66992100  0.00000000  0.51060700  1
  Sn  Sn15  1  0.83785900  0.50000000  0.00831200  1
  Sn  Sn16  1  0.58215200  0.24998000  0.22016600  1
  Sn  Sn17  1  0.58215200  0.75002000  0.22016600  1
  Sn  Sn18  1  0.66625900  0.50000000  0.71665200  1
  Sn  Sn19  1  0.16992100  0.50000000  0.51060700  1
  Sn  Sn20  1  0.33785900  0.00000000  0.00831200  1
  Sn  Sn21  1  0.08215200  0.74998000  0.22016600  1
  Sn  Sn22  1  0.08215200  0.25002000  0.22016600  1
  Sn  Sn23  1  0.16625900  0.00000000  0.71665200  1
  O  O24  1  0.57061550  0.27431450  0.60962000  1
  O  O25  1  0.50996400  0.00000000  0.32472900  1
  O  O26  1  0.67161000  0.00000000  0.11346500  1
  O  O27  1  0.99539600  0.00000000  0.32217000  1
  O  O28  1  0.99605600  0.00000000  0.81617600  1
  O  O29  1  0.57061550  0.72568550  0.60962000  1
  O  O30  1  0.75246050  0.22795750  0.31868300  1
  O  O31  1  0.75246050  0.77204250  0.31868300  1
  O  O32  1  0.64962100  0.50000000  0.10962300  1
  O  O33  1  0.85472000  0.00000000  0.61504700  1
  O  O34  1  0.76274900  0.74222200  0.81083400  1
  O  O35  1  0.76274900  0.25777800  0.81083400  1
  O  O36  1  0.84139200  0.50000000  0.61102500  1
  O  O37  1  0.92110800  0.77993400  0.11223300  1
  O  O38  1  0.98765200  0.50000000  0.80820900  1
  O  O39  1  0.92110800  0.22006600  0.11223300  1
  O  O40  1  0.07061550  0.77431450  0.60962000  1
  O  O41  1  0.00996400  0.50000000  0.32472900  1
  O  O42  1  0.17161000  0.50000000  0.11346500  1
  O  O43  1  0.49539600  0.50000000  0.32217000  1
  O  O44  1  0.49605600  0.50000000  0.81617600  1
  O  O45  1  0.07061550  0.22568550  0.60962000  1
  O  O46  1  0.25246050  0.72795750  0.31868300  1
  O  O47  1  0.25246050  0.27204250  0.31868300  1
  O  O48  1  0.14962100  0.00000000  0.10962300  1
  O  O49  1  0.35472000  0.50000000  0.61504700  1
  O  O50  1  0.26274900  0.24222200  0.81083400  1
  O  O51  1  0.26274900  0.75777800  0.81083400  1
  O  O52  1  0.34139200  0.00000000  0.61102500  1
  O  O53  1  0.42110800  0.27993400  0.11223300  1
  O  O54  1  0.48765200  0.00000000  0.80820900  1
  O  O55  1  0.42110800  0.72006600  0.11223300  1
