# generated using pymatgen
data_BaSrI4
_symmetry_space_group_name_H-M   'P 1'
_cell_length_a   6.36053200
_cell_length_b   23.57683400
_cell_length_c   8.30069600
_cell_angle_alpha   90.00000000
_cell_angle_beta   90.00000000
_cell_angle_gamma   90.00000000
_symmetry_Int_Tables_number   1
_chemical_formula_structural   BaSrI4
_chemical_formula_sum   'Ba4 Sr4 I16'
_cell_volume   1244.78239206
_cell_formula_units_Z   4
loop_
 _symmetry_equiv_pos_site_id
 _symmetry_equiv_pos_as_xyz
  1  'x, y, z'
loop_
 _atom_site_type_symbol
 _atom_site_label
 _atom_site_symmetry_multiplicity
 _atom_site_fract_x
 _atom_site_fract_y
 _atom_site_fract_z
 _atom_site_occupancy
  Ba  Ba0  1  0.50000000  0.68777000  0.10335200  1
  Ba  Ba1  1  0.00000000  0.81223000  0.60335200  1
  Ba  Ba2  1  0.00000000  0.18777000  0.10335200  1
  Ba  Ba3  1  0.50000000  0.31223000  0.60335200  1
  Sr  Sr4  1  0.50000000  0.91546300  0.00535000  1
  Sr  Sr5  1  0.00000000  0.58453700  0.50535000  1
  Sr  Sr6  1  0.00000000  0.41546300  0.00535000  1
  Sr  Sr7  1  0.50000000  0.08453700  0.50535000  1
  I  I8  1  0.50000000  0.59897100  0.44999100  1
  I  I9  1  0.50000000  0.95500300  0.62451700  1
  I  I10  1  0.50000000  0.82202200  0.31084300  1
  I  I11  1  0.50000000  0.79039000  0.79623900  1
  I  I12  1  0.00000000  0.90102900  0.94999100  1
  I  I13  1  0.00000000  0.70961000  0.29623900  1
  I  I14  1  0.00000000  0.54499700  0.12451700  1
  I  I15  1  0.00000000  0.67797800  0.81084300  1
  I  I16  1  0.00000000  0.09897100  0.44999100  1
  I  I17  1  0.00000000  0.45500300  0.62451700  1
  I  I18  1  0.00000000  0.32202200  0.31084300  1
  I  I19  1  0.00000000  0.29039000  0.79623900  1
  I  I20  1  0.50000000  0.40102900  0.94999100  1
  I  I21  1  0.50000000  0.20961000  0.29623900  1
  I  I22  1  0.50000000  0.04499700  0.12451700  1
  I  I23  1  0.50000000  0.17797800  0.81084300  1
