# generated using pymatgen
data_Ba3SrI8
_symmetry_space_group_name_H-M   'P 1'
_cell_length_a   8.30618000
_cell_length_b   8.30618000
_cell_length_c   16.59962600
_cell_angle_alpha   90.00000000
_cell_angle_beta   90.00000000
_cell_angle_gamma   90.00000000
_symmetry_Int_Tables_number   1
_chemical_formula_structural   Ba3SrI8
_chemical_formula_sum   'Ba6 Sr2 I16'
_cell_volume   1145.25179155
_cell_formula_units_Z   2
loop_
 _symmetry_equiv_pos_site_id
 _symmetry_equiv_pos_as_xyz
  1  'x, y, z'
loop_
 _atom_site_type_symbol
 _atom_site_label
 _atom_site_symmetry_multiplicity
 _atom_site_fract_x
 _atom_site_fract_y
 _atom_site_fract_z
 _atom_site_occupancy
  Ba  Ba0  1  0.50000000  0.00000000  0.25000000  1
  Ba  Ba1  1  0.50000000  0.50000000  0.00000000  1
  Ba  Ba2  1  0.00000000  0.50000000  0.25000000  1
  Ba  Ba3  1  0.00000000  0.50000000  0.75000000  1
  Ba  Ba4  1  0.00000000  0.00000000  0.50000000  1
  Ba  Ba5  1  0.50000000  0.00000000  0.75000000  1
  Sr  Sr6  1  0.00000000  0.00000000  0.00000000  1
  Sr  Sr7  1  0.50000000  0.50000000  0.50000000  1
  I  I8  1  0.24527750  0.75472250  0.12274550  1
  I  I9  1  0.24527750  0.24527750  0.12274550  1
  I  I10  1  0.74527750  0.25472250  0.37725450  1
  I  I11  1  0.74527750  0.74527750  0.37725450  1
  I  I12  1  0.75472250  0.75472250  0.12274550  1
  I  I13  1  0.75472250  0.24527750  0.12274550  1
  I  I14  1  0.25472250  0.74527750  0.37725450  1
  I  I15  1  0.25472250  0.25472250  0.37725450  1
  I  I16  1  0.74527750  0.25472250  0.62274550  1
  I  I17  1  0.74527750  0.74527750  0.62274550  1
  I  I18  1  0.24527750  0.75472250  0.87725450  1
  I  I19  1  0.24527750  0.24527750  0.87725450  1
  I  I20  1  0.25472250  0.25472250  0.62274550  1
  I  I21  1  0.25472250  0.74527750  0.62274550  1
  I  I22  1  0.75472250  0.24527750  0.87725450  1
  I  I23  1  0.75472250  0.75472250  0.87725450  1
