# generated using pymatgen
data_Ti3P6WO24
_symmetry_space_group_name_H-M   'P 1'
_cell_length_a   8.65264589
_cell_length_b   8.65264589
_cell_length_c   21.93230595
_cell_angle_alpha   90.00000000
_cell_angle_beta   90.00000000
_cell_angle_gamma   120.00000000
_symmetry_Int_Tables_number   1
_chemical_formula_structural   Ti3P6WO24
_chemical_formula_sum   'Ti9 P18 W3 O72'
_cell_volume   1422.04319591
_cell_formula_units_Z   3
loop_
 _symmetry_equiv_pos_site_id
 _symmetry_equiv_pos_as_xyz
  1  'x, y, z'
loop_
 _atom_site_type_symbol
 _atom_site_label
 _atom_site_symmetry_multiplicity
 _atom_site_fract_x
 _atom_site_fract_y
 _atom_site_fract_z
 _atom_site_occupancy
  Ti  Ti0  1  0.00000000  0.00000000  0.14069200  1
  Ti  Ti1  1  0.33333333  0.66666667  0.02680467  1
  Ti  Ti2  1  0.33333333  0.66666667  0.30761167  1
  Ti  Ti3  1  0.66666667  0.33333333  0.47402533  1
  Ti  Ti4  1  0.00000000  0.00000000  0.36013800  1
  Ti  Ti5  1  0.00000000  0.00000000  0.64094500  1
  Ti  Ti6  1  0.33333333  0.66666667  0.80735867  1
  Ti  Ti7  1  0.66666667  0.33333333  0.69347133  1
  Ti  Ti8  1  0.66666667  0.33333333  0.97427833  1
  P  P9  1  0.95302533  0.33289067  0.08177467  1
  P  P10  1  0.37986533  0.04697467  0.08177467  1
  P  P11  1  0.66710933  0.62013467  0.08177467  1
  P  P12  1  0.00508900  0.72194600  0.25050100  1
  P  P13  1  0.27805400  0.28314300  0.25050100  1
  P  P14  1  0.71685700  0.99491100  0.25050100  1
  P  P15  1  0.61969200  0.66622400  0.41510800  1
  P  P16  1  0.04653200  0.38030800  0.41510800  1
  P  P17  1  0.33377600  0.95346800  0.41510800  1
  P  P18  1  0.67175567  0.05527933  0.58383433  1
  P  P19  1  0.94472067  0.61647633  0.58383433  1
  P  P20  1  0.38352367  0.32824433  0.58383433  1
  P  P21  1  0.28635867  0.99955733  0.74844133  1
  P  P22  1  0.71319867  0.71364133  0.74844133  1
  P  P23  1  0.00044267  0.28680133  0.74844133  1
  P  P24  1  0.33842233  0.38861267  0.91716767  1
  P  P25  1  0.61138733  0.94980967  0.91716767  1
  P  P26  1  0.05019033  0.66157767  0.91716767  1
  W  W27  1  0.66666667  0.33333333  0.19205133  1
  W  W28  1  0.33333333  0.66666667  0.52538467  1
  W  W29  1  0.00000000  0.00000000  0.85871800  1
  O  O30  1  0.83106700  0.03140700  0.30741100  1
  O  O31  1  0.96859300  0.79966000  0.30741100  1
  O  O32  1  0.97073333  0.16751867  0.09133967  1
  O  O33  1  0.20034000  0.16893300  0.30741100  1
  O  O34  1  0.13651467  0.50106733  0.07723333  1
  O  O35  1  0.85983767  0.35824433  0.14018533  1
  O  O36  1  0.19678533  0.02926667  0.09133967  1
  O  O37  1  0.36455267  0.86348533  0.07723333  1
  O  O38  1  0.49893267  0.63544733  0.07723333  1
  O  O39  1  0.02482200  0.82808400  0.19273300  1
  O  O40  1  0.83431000  0.52829700  0.24147100  1
  O  O41  1  0.17191600  0.19673800  0.19273300  1
  O  O42  1  0.49840667  0.14016233  0.14018533  1
  O  O43  1  0.83248133  0.80321467  0.09133967  1
  O  O44  1  0.64175567  0.50159333  0.14018533  1
  O  O45  1  0.16361933  0.69160467  0.25726967  1
  O  O46  1  0.30839533  0.47201467  0.25726967  1
  O  O47  1  0.47170300  0.30601300  0.24147100  1
  O  O48  1  0.80326200  0.97517800  0.19273300  1
  O  O49  1  0.52798533  0.83638067  0.25726967  1
  O  O50  1  0.47066367  0.16415833  0.02658333  1
  O  O51  1  0.69398700  0.16569000  0.24147100  1
  O  O52  1  0.69349467  0.52933633  0.02658333  1
  O  O53  1  0.83584167  0.30650533  0.02658333  1
  O  O54  1  0.49773367  0.36474033  0.64074433  1
  O  O55  1  0.63525967  0.13299333  0.64074433  1
  O  O56  1  0.63740000  0.50085200  0.42467300  1
  O  O57  1  0.86700667  0.50226633  0.64074433  1
  O  O58  1  0.80318133  0.83440067  0.41056667  1
  O  O59  1  0.52650433  0.69157767  0.47351867  1
  O  O60  1  0.86345200  0.36260000  0.42467300  1
  O  O61  1  0.03121933  0.19681867  0.41056667  1
  O  O62  1  0.16559933  0.96878067  0.41056667  1
  O  O63  1  0.69148867  0.16141733  0.52606633  1
  O  O64  1  0.50097667  0.86163033  0.57480433  1
  O  O65  1  0.83858267  0.53007133  0.52606633  1
  O  O66  1  0.16507333  0.47349567  0.47351867  1
  O  O67  1  0.49914800  0.13654800  0.42467300  1
  O  O68  1  0.30842233  0.83492667  0.47351867  1
  O  O69  1  0.83028600  0.02493800  0.59060300  1
  O  O70  1  0.97506200  0.80534800  0.59060300  1
  O  O71  1  0.13836967  0.63934633  0.57480433  1
  O  O72  1  0.46992867  0.30851133  0.52606633  1
  O  O73  1  0.19465200  0.16971400  0.59060300  1
  O  O74  1  0.13733033  0.49749167  0.35991667  1
  O  O75  1  0.36065367  0.49902333  0.57480433  1
  O  O76  1  0.36016133  0.86266967  0.35991667  1
  O  O77  1  0.50250833  0.63983867  0.35991667  1
  O  O78  1  0.16440033  0.69807367  0.97407767  1
  O  O79  1  0.30192633  0.46632667  0.97407767  1
  O  O80  1  0.30406667  0.83418533  0.75800633  1
  O  O81  1  0.53367333  0.83559967  0.97407767  1
  O  O82  1  0.46984800  0.16773400  0.74390000  1
  O  O83  1  0.19317100  0.02491100  0.80685200  1
  O  O84  1  0.53011867  0.69593333  0.75800633  1
  O  O85  1  0.69788600  0.53015200  0.74390000  1
  O  O86  1  0.83226600  0.30211400  0.74390000  1
  O  O87  1  0.35815533  0.49475067  0.85939967  1
  O  O88  1  0.16764333  0.19496367  0.90813767  1
  O  O89  1  0.50524933  0.86340467  0.85939967  1
  O  O90  1  0.83174000  0.80682900  0.80685200  1
  O  O91  1  0.16581467  0.46988133  0.75800633  1
  O  O92  1  0.97508900  0.16826000  0.80685200  1
  O  O93  1  0.49695267  0.35827133  0.92393633  1
  O  O94  1  0.64172867  0.13868133  0.92393633  1
  O  O95  1  0.80503633  0.97267967  0.90813767  1
  O  O96  1  0.13659533  0.64184467  0.85939967  1
  O  O97  1  0.86131867  0.50304733  0.92393633  1
  O  O98  1  0.80399700  0.83082500  0.69325000  1
  O  O99  1  0.02732033  0.83235667  0.90813767  1
  O  O100  1  0.02682800  0.19600300  0.69325000  1
  O  O101  1  0.16917500  0.97317200  0.69325000  1
