# generated using pymatgen
data_LiCr(CO3)2
_symmetry_space_group_name_H-M   'P 1'
_cell_length_a   4.66676740
_cell_length_b   4.66676740
_cell_length_c   15.19944144
_cell_angle_alpha   90.00000000
_cell_angle_beta   90.00000000
_cell_angle_gamma   120.00000000
_symmetry_Int_Tables_number   1
_chemical_formula_structural   LiCr(CO3)2
_chemical_formula_sum   'Li3 Cr3 C6 O18'
_cell_volume   286.67549504
_cell_formula_units_Z   3
loop_
 _symmetry_equiv_pos_site_id
 _symmetry_equiv_pos_as_xyz
  1  'x, y, z'
loop_
 _atom_site_type_symbol
 _atom_site_label
 _atom_site_symmetry_multiplicity
 _atom_site_fract_x
 _atom_site_fract_y
 _atom_site_fract_z
 _atom_site_occupancy
  Li  Li0  1  0.66666667  0.33333333  0.33333333  1
  Li  Li1  1  0.33333333  0.66666667  0.66666667  1
  Li  Li2  1  0.00000000  1.00000000  0.00000000  1
  Cr  Cr3  1  0.00000000  0.00000000  0.50000000  1
  Cr  Cr4  1  0.66666667  0.33333333  0.83333333  1
  Cr  Cr5  1  0.33333333  0.66666667  0.16666667  1
  C  C6  1  0.33333333  0.66666667  0.42300708  1
  C  C7  1  0.66666667  0.33333333  0.57699292  1
  C  C8  1  0.00000000  0.00000000  0.75634042  1
  C  C9  1  0.33333333  0.66666667  0.91032625  1
  C  C10  1  0.66666667  0.33333333  0.08967375  1
  C  C11  1  0.00000000  0.00000000  0.24365958  1
  O  O12  1  0.93631175  0.61838750  0.57789675  1
  O  O13  1  0.31792425  0.93631175  0.42210325  1
  O  O14  1  0.61838750  0.68207575  0.42210325  1
  O  O15  1  0.38161250  0.31792425  0.57789675  1
  O  O16  1  0.68207575  0.06368825  0.57789675  1
  O  O17  1  0.06368825  0.38161250  0.42210325  1
  O  O18  1  0.60297842  0.95172083  0.91123008  1
  O  O19  1  0.98459092  0.26964508  0.75543658  1
  O  O20  1  0.28505417  0.01540908  0.75543658  1
  O  O21  1  0.04827917  0.65125758  0.91123008  1
  O  O22  1  0.34874242  0.39702158  0.91123008  1
  O  O23  1  0.73035492  0.71494583  0.75543658  1
  O  O24  1  0.26964508  0.28505417  0.24456342  1
  O  O25  1  0.65125758  0.60297842  0.08876992  1
  O  O26  1  0.95172083  0.34874242  0.08876992  1
  O  O27  1  0.71494583  0.98459092  0.24456342  1
  O  O28  1  0.01540908  0.73035492  0.24456342  1
  O  O29  1  0.39702158  0.04827917  0.08876992  1
