# generated using pymatgen
data_SrLu2O4
_symmetry_space_group_name_H-M   'P 1'
_cell_length_a   9.63668200
_cell_length_b   9.63668200
_cell_length_c   9.63668200
_cell_angle_alpha   90.00000000
_cell_angle_beta   90.00000000
_cell_angle_gamma   90.00000000
_symmetry_Int_Tables_number   1
_chemical_formula_structural   SrLu2O4
_chemical_formula_sum   'Sr8 Lu16 O32'
_cell_volume   894.91664111
_cell_formula_units_Z   8
loop_
 _symmetry_equiv_pos_site_id
 _symmetry_equiv_pos_as_xyz
  1  'x, y, z'
loop_
 _atom_site_type_symbol
 _atom_site_label
 _atom_site_symmetry_multiplicity
 _atom_site_fract_x
 _atom_site_fract_y
 _atom_site_fract_z
 _atom_site_occupancy
  Sr  Sr0  1  0.50000000  0.00000000  0.50000000  1
  Sr  Sr1  1  0.25000000  0.25000000  0.25000000  1
  Sr  Sr2  1  0.50000000  0.50000000  0.00000000  1
  Sr  Sr3  1  0.25000000  0.75000000  0.75000000  1
  Sr  Sr4  1  0.00000000  0.00000000  0.00000000  1
  Sr  Sr5  1  0.75000000  0.25000000  0.75000000  1
  Sr  Sr6  1  0.00000000  0.50000000  0.50000000  1
  Sr  Sr7  1  0.75000000  0.75000000  0.25000000  1
  Lu  Lu8  1  0.37500000  0.87500000  0.12500000  1
  Lu  Lu9  1  0.37500000  0.62500000  0.37500000  1
  Lu  Lu10  1  0.12500000  0.62500000  0.12500000  1
  Lu  Lu11  1  0.12500000  0.87500000  0.37500000  1
  Lu  Lu12  1  0.37500000  0.37500000  0.62500000  1
  Lu  Lu13  1  0.37500000  0.12500000  0.87500000  1
  Lu  Lu14  1  0.12500000  0.12500000  0.62500000  1
  Lu  Lu15  1  0.12500000  0.37500000  0.87500000  1
  Lu  Lu16  1  0.87500000  0.87500000  0.62500000  1
  Lu  Lu17  1  0.87500000  0.62500000  0.87500000  1
  Lu  Lu18  1  0.62500000  0.62500000  0.62500000  1
  Lu  Lu19  1  0.62500000  0.87500000  0.87500000  1
  Lu  Lu20  1  0.87500000  0.37500000  0.12500000  1
  Lu  Lu21  1  0.87500000  0.12500000  0.37500000  1
  Lu  Lu22  1  0.62500000  0.12500000  0.12500000  1
  Lu  Lu23  1  0.62500000  0.37500000  0.37500000  1
  O  O24  1  0.39329000  0.10671000  0.10671000  1
  O  O25  1  0.14329000  0.85671000  0.14329000  1
  O  O26  1  0.35671000  0.85671000  0.35671000  1
  O  O27  1  0.10671000  0.10671000  0.39329000  1
  O  O28  1  0.64329000  0.14329000  0.35671000  1
  O  O29  1  0.39329000  0.39329000  0.39329000  1
  O  O30  1  0.10671000  0.39329000  0.10671000  1
  O  O31  1  0.85671000  0.14329000  0.14329000  1
  O  O32  1  0.39329000  0.60671000  0.60671000  1
  O  O33  1  0.14329000  0.35671000  0.64329000  1
  O  O34  1  0.35671000  0.35671000  0.85671000  1
  O  O35  1  0.10671000  0.60671000  0.89329000  1
  O  O36  1  0.64329000  0.64329000  0.85671000  1
  O  O37  1  0.39329000  0.89329000  0.89329000  1
  O  O38  1  0.10671000  0.89329000  0.60671000  1
  O  O39  1  0.85671000  0.64329000  0.64329000  1
  O  O40  1  0.89329000  0.10671000  0.60671000  1
  O  O41  1  0.64329000  0.85671000  0.64329000  1
  O  O42  1  0.85671000  0.85671000  0.85671000  1
  O  O43  1  0.60671000  0.10671000  0.89329000  1
  O  O44  1  0.14329000  0.14329000  0.85671000  1
  O  O45  1  0.89329000  0.39329000  0.89329000  1
  O  O46  1  0.60671000  0.39329000  0.60671000  1
  O  O47  1  0.35671000  0.14329000  0.64329000  1
  O  O48  1  0.89329000  0.60671000  0.10671000  1
  O  O49  1  0.64329000  0.35671000  0.14329000  1
  O  O50  1  0.85671000  0.35671000  0.35671000  1
  O  O51  1  0.60671000  0.60671000  0.39329000  1
  O  O52  1  0.14329000  0.64329000  0.35671000  1
  O  O53  1  0.89329000  0.89329000  0.39329000  1
  O  O54  1  0.60671000  0.89329000  0.10671000  1
  O  O55  1  0.35671000  0.64329000  0.14329000  1
