# generated using pymatgen
data_CaY2O4
_symmetry_space_group_name_H-M   'P 1'
_cell_length_a   3.33076200
_cell_length_b   11.08132200
_cell_length_c   10.99972300
_cell_angle_alpha   90.00000000
_cell_angle_beta   90.00000000
_cell_angle_gamma   90.00000000
_symmetry_Int_Tables_number   1
_chemical_formula_structural   CaY2O4
_chemical_formula_sum   'Ca4 Y8 O16'
_cell_volume   405.99148464
_cell_formula_units_Z   4
loop_
 _symmetry_equiv_pos_site_id
 _symmetry_equiv_pos_as_xyz
  1  'x, y, z'
loop_
 _atom_site_type_symbol
 _atom_site_label
 _atom_site_symmetry_multiplicity
 _atom_site_fract_x
 _atom_site_fract_y
 _atom_site_fract_z
 _atom_site_occupancy
  Ca  Ca0  1  0.00000000  0.11060200  0.75000000  1
  Ca  Ca1  1  0.50000000  0.38939800  0.25000000  1
  Ca  Ca2  1  0.50000000  0.61060200  0.75000000  1
  Ca  Ca3  1  0.00000000  0.88939800  0.25000000  1
  Y  Y4  1  0.00000000  0.36740300  0.92555900  1
  Y  Y5  1  0.50000000  0.13259700  0.07444100  1
  Y  Y6  1  0.00000000  0.36740300  0.57444100  1
  Y  Y7  1  0.50000000  0.13259700  0.42555900  1
  Y  Y8  1  0.50000000  0.86740300  0.92555900  1
  Y  Y9  1  0.00000000  0.63259700  0.07444100  1
  Y  Y10  1  0.50000000  0.86740300  0.57444100  1
  Y  Y11  1  0.00000000  0.63259700  0.42555900  1
  O  O12  1  0.00000000  0.00000000  0.50000000  1
  O  O13  1  0.00000000  0.00000000  0.00000000  1
  O  O14  1  0.00000000  0.26699600  0.11331200  1
  O  O15  1  0.00000000  0.46711900  0.75000000  1
  O  O16  1  0.50000000  0.03288100  0.25000000  1
  O  O17  1  0.50000000  0.23300400  0.88668800  1
  O  O18  1  0.00000000  0.26699600  0.38668800  1
  O  O19  1  0.50000000  0.23300400  0.61331200  1
  O  O20  1  0.50000000  0.50000000  0.50000000  1
  O  O21  1  0.50000000  0.50000000  0.00000000  1
  O  O22  1  0.50000000  0.76699600  0.11331200  1
  O  O23  1  0.50000000  0.96711900  0.75000000  1
  O  O24  1  0.00000000  0.53288100  0.25000000  1
  O  O25  1  0.00000000  0.73300400  0.88668800  1
  O  O26  1  0.50000000  0.76699600  0.38668800  1
  O  O27  1  0.00000000  0.73300400  0.61331200  1
