# generated using pymatgen
data_NaMnPCO7
_symmetry_space_group_name_H-M   'P 1'
_cell_length_a   8.14249400
_cell_length_b   8.15845438
_cell_length_c   10.35530270
_cell_angle_alpha   108.48726127
_cell_angle_beta   106.36440386
_cell_angle_gamma   100.09039546
_symmetry_Int_Tables_number   1
_chemical_formula_structural   NaMnPCO7
_chemical_formula_sum   'Na4 Mn4 P4 C4 O28'
_cell_volume   598.93945681
_cell_formula_units_Z   4
loop_
 _symmetry_equiv_pos_site_id
 _symmetry_equiv_pos_as_xyz
  1  'x, y, z'
loop_
 _atom_site_type_symbol
 _atom_site_label
 _atom_site_symmetry_multiplicity
 _atom_site_fract_x
 _atom_site_fract_y
 _atom_site_fract_z
 _atom_site_occupancy
  Na  Na0  1  0.77627800  0.73401000  0.75727700  1
  Na  Na1  1  0.48072200  0.02935600  0.75693300  1
  Na  Na2  1  0.72490800  0.75346300  0.23644400  1
  Na  Na3  1  0.22313600  0.25565800  0.23731800  1
  Mn  Mn4  1  0.81658300  0.06677200  0.65587300  1
  Mn  Mn5  1  0.30772400  0.55800900  0.65939600  1
  Mn  Mn6  1  0.69510800  0.43162500  0.34313800  1
  Mn  Mn7  1  0.19454900  0.93222400  0.34288000  1
  P  P8  1  0.04830600  0.79507700  0.56532600  1
  P  P9  1  0.54591000  0.29731800  0.56558300  1
  P  P10  1  0.45574900  0.69982700  0.43604300  1
  P  P11  1  0.95706800  0.20125800  0.43325400  1
  C  C12  1  0.96643900  0.22449000  0.91691100  1
  C  C13  1  0.46809800  0.72557300  0.91984700  1
  C  C14  1  0.52783900  0.28157400  0.08335200  1
  C  C15  1  0.03424400  0.77524800  0.08253700  1
  O  O16  1  0.94743900  0.69736800  0.95092500  1
  O  O17  1  0.43886200  0.20567000  0.95185800  1
  O  O18  1  0.32590300  0.58542900  0.85992100  1
  O  O19  1  0.82204500  0.08096400  0.85350500  1
  O  O20  1  0.00953800  0.26815600  0.81614300  1
  O  O21  1  0.50974000  0.76736400  0.81502300  1
  O  O22  1  0.16523800  0.72293100  0.66684900  1
  O  O23  1  0.96513500  0.90799000  0.66740200  1
  O  O24  1  0.65275800  0.21083300  0.66109400  1
  O  O25  1  0.47663800  0.41993800  0.67318800  1
  O  O26  1  0.60003900  0.84683800  0.57801200  1
  O  O27  1  0.67073400  0.42035700  0.52239100  1
  O  O28  1  0.17169700  0.91944200  0.52219200  1
  O  O29  1  0.10165100  0.34868100  0.57042600  1
  O  O30  1  0.90181000  0.64935400  0.42629500  1
  O  O31  1  0.33539500  0.57161300  0.47792400  1
  O  O32  1  0.83707000  0.07355700  0.47673200  1
  O  O33  1  0.39554600  0.15569600  0.42692800  1
  O  O34  1  0.34640800  0.78013600  0.33754700  1
  O  O35  1  0.53981200  0.58876400  0.33418500  1
  O  O36  1  0.84051700  0.27426500  0.33196200  1
  O  O37  1  0.03430800  0.08303900  0.32870800  1
  O  O38  1  0.48813300  0.23666600  0.18592200  1
  O  O39  1  0.99334900  0.73135400  0.18526800  1
  O  O40  1  0.67489100  0.41848200  0.14372300  1
  O  O41  1  0.17888500  0.91512600  0.14366700  1
  O  O42  1  0.04766700  0.30283000  0.04927600  1
  O  O43  1  0.55404000  0.80777600  0.05082600  1
