# generated using pymatgen
data_Na2CoH8(CO5)2
_symmetry_space_group_name_H-M   'P 1'
_cell_length_a   8.65189200
_cell_length_b   7.23083400
_cell_length_c   14.41607742
_cell_angle_alpha   90.00000000
_cell_angle_beta   97.42696024
_cell_angle_gamma   90.00000000
_symmetry_Int_Tables_number   1
_chemical_formula_structural   Na2CoH8(CO5)2
_chemical_formula_sum   'Na8 Co4 H32 C8 O40'
_cell_volume   894.30916474
_cell_formula_units_Z   4
loop_
 _symmetry_equiv_pos_site_id
 _symmetry_equiv_pos_as_xyz
  1  'x, y, z'
loop_
 _atom_site_type_symbol
 _atom_site_label
 _atom_site_symmetry_multiplicity
 _atom_site_fract_x
 _atom_site_fract_y
 _atom_site_fract_z
 _atom_site_occupancy
  Na  Na0  1  0.07964050  0.67612950  0.93642200  1
  Na  Na1  1  0.92035950  0.67612950  0.56357800  1
  Na  Na2  1  0.92035950  0.32387050  0.06357800  1
  Na  Na3  1  0.07964050  0.32387050  0.43642200  1
  Na  Na4  1  0.57964050  0.17612950  0.93642200  1
  Na  Na5  1  0.42035950  0.17612950  0.56357800  1
  Na  Na6  1  0.42035950  0.82387050  0.06357800  1
  Na  Na7  1  0.57964050  0.82387050  0.43642200  1
  Co  Co8  1  0.00000000  0.95819500  0.75000000  1
  Co  Co9  1  0.00000000  0.04180500  0.25000000  1
  Co  Co10  1  0.50000000  0.45819500  0.75000000  1
  Co  Co11  1  0.50000000  0.54180500  0.25000000  1
  H  H12  1  0.87414700  0.34016700  0.87195900  1
  H  H13  1  0.12585300  0.34016700  0.62804100  1
  H  H14  1  0.12585300  0.65983300  0.12804100  1
  H  H15  1  0.87414700  0.65983300  0.37195900  1
  H  H16  1  0.05231400  0.30996600  0.87568700  1
  H  H17  1  0.94768600  0.30996600  0.62431300  1
  H  H18  1  0.94768600  0.69003400  0.12431300  1
  H  H19  1  0.05231400  0.69003400  0.37568700  1
  H  H20  1  0.30748100  0.45641600  0.05924600  1
  H  H21  1  0.69251900  0.45641600  0.44075400  1
  H  H22  1  0.69251900  0.54358400  0.94075400  1
  H  H23  1  0.30748100  0.54358400  0.55924600  1
  H  H24  1  0.34484300  0.45607000  0.95405000  1
  H  H25  1  0.65515700  0.45607000  0.54595000  1
  H  H26  1  0.65515700  0.54393000  0.04595000  1
  H  H27  1  0.34484300  0.54393000  0.45405000  1
  H  H28  1  0.37414700  0.84016700  0.87195900  1
  H  H29  1  0.62585300  0.84016700  0.62804100  1
  H  H30  1  0.62585300  0.15983300  0.12804100  1
  H  H31  1  0.37414700  0.15983300  0.37195900  1
  H  H32  1  0.55231400  0.80996600  0.87568700  1
  H  H33  1  0.44768600  0.80996600  0.62431300  1
  H  H34  1  0.44768600  0.19003400  0.12431300  1
  H  H35  1  0.55231400  0.19003400  0.37568700  1
  H  H36  1  0.80748100  0.95641600  0.05924600  1
  H  H37  1  0.19251900  0.95641600  0.44075400  1
  H  H38  1  0.19251900  0.04358400  0.94075400  1
  H  H39  1  0.80748100  0.04358400  0.55924600  1
  H  H40  1  0.84484300  0.95607000  0.95405000  1
  H  H41  1  0.15515700  0.95607000  0.54595000  1
  H  H42  1  0.15515700  0.04393000  0.04595000  1
  H  H43  1  0.84484300  0.04393000  0.45405000  1
  C  C44  1  0.22422900  0.74011500  0.71401400  1
  C  C45  1  0.77577100  0.74011500  0.78598600  1
  C  C46  1  0.77577100  0.25988500  0.28598600  1
  C  C47  1  0.22422900  0.25988500  0.21401400  1
  C  C48  1  0.72422900  0.24011500  0.71401400  1
  C  C49  1  0.27577100  0.24011500  0.78598600  1
  C  C50  1  0.27577100  0.75988500  0.28598600  1
  C  C51  1  0.72422900  0.75988500  0.21401400  1
  O  O52  1  0.12499850  0.83369950  0.65462600  1
  O  O53  1  0.87500150  0.83369950  0.84537400  1
  O  O54  1  0.87500150  0.16630050  0.34537400  1
  O  O55  1  0.12499850  0.16630050  0.15462600  1
  O  O56  1  0.79690200  0.74544800  0.69933800  1
  O  O57  1  0.20309800  0.74544800  0.80066200  1
  O  O58  1  0.20309800  0.25455200  0.30066200  1
  O  O59  1  0.79690200  0.25455200  0.19933800  1
  O  O60  1  0.33783250  0.65136150  0.68326400  1
  O  O61  1  0.66216750  0.65136150  0.81673600  1
  O  O62  1  0.66216750  0.34863850  0.31673600  1
  O  O63  1  0.33783250  0.34863850  0.18326400  1
  O  O64  1  0.97486650  0.38107750  0.90599800  1
  O  O65  1  0.02513350  0.38107750  0.59400200  1
  O  O66  1  0.02513350  0.61892250  0.09400200  1
  O  O67  1  0.97486650  0.61892250  0.40599800  1
  O  O68  1  0.68601950  0.46450850  0.99590400  1
  O  O69  1  0.31398050  0.46450850  0.50409600  1
  O  O70  1  0.31398050  0.53549150  0.00409600  1
  O  O71  1  0.68601950  0.53549150  0.49590400  1
  O  O72  1  0.62499850  0.33369950  0.65462600  1
  O  O73  1  0.37500150  0.33369950  0.84537400  1
  O  O74  1  0.37500150  0.66630050  0.34537400  1
  O  O75  1  0.62499850  0.66630050  0.15462600  1
  O  O76  1  0.29690200  0.24544800  0.69933800  1
  O  O77  1  0.70309800  0.24544800  0.80066200  1
  O  O78  1  0.70309800  0.75455200  0.30066200  1
  O  O79  1  0.29690200  0.75455200  0.19933800  1
  O  O80  1  0.83783250  0.15136150  0.68326400  1
  O  O81  1  0.16216750  0.15136150  0.81673600  1
  O  O82  1  0.16216750  0.84863850  0.31673600  1
  O  O83  1  0.83783250  0.84863850  0.18326400  1
  O  O84  1  0.47486650  0.88107750  0.90599800  1
  O  O85  1  0.52513350  0.88107750  0.59400200  1
  O  O86  1  0.52513350  0.11892250  0.09400200  1
  O  O87  1  0.47486650  0.11892250  0.40599800  1
  O  O88  1  0.18601950  0.96450850  0.99590400  1
  O  O89  1  0.81398050  0.96450850  0.50409600  1
  O  O90  1  0.81398050  0.03549150  0.00409600  1
  O  O91  1  0.18601950  0.03549150  0.49590400  1
