# generated using pymatgen
data_Zn(NO3)2
_symmetry_space_group_name_H-M   'P 1'
_cell_length_a   7.45483300
_cell_length_b   7.47836500
_cell_length_c   15.15329400
_cell_angle_alpha   90.00000000
_cell_angle_beta   90.00000000
_cell_angle_gamma   90.00000000
_symmetry_Int_Tables_number   1
_chemical_formula_structural   Zn(NO3)2
_chemical_formula_sum   'Zn8 N16 O48'
_cell_volume   844.79556752
_cell_formula_units_Z   8
loop_
 _symmetry_equiv_pos_site_id
 _symmetry_equiv_pos_as_xyz
  1  'x, y, z'
loop_
 _atom_site_type_symbol
 _atom_site_label
 _atom_site_symmetry_multiplicity
 _atom_site_fract_x
 _atom_site_fract_y
 _atom_site_fract_z
 _atom_site_occupancy
  Zn  Zn0  1  0.01799600  0.78638400  0.62281100  1
  Zn  Zn1  1  0.02351400  0.76014900  0.12645900  1
  Zn  Zn2  1  0.47648600  0.26014900  0.12645900  1
  Zn  Zn3  1  0.48200400  0.28638400  0.62281100  1
  Zn  Zn4  1  0.51799600  0.78638400  0.37718900  1
  Zn  Zn5  1  0.52351400  0.76014900  0.87354100  1
  Zn  Zn6  1  0.97648600  0.26014900  0.87354100  1
  Zn  Zn7  1  0.98200400  0.28638400  0.37718900  1
  N  N8  1  0.13555500  0.09371900  0.21370500  1
  N  N9  1  0.15948000  0.13039100  0.70619200  1
  N  N10  1  0.17073700  0.93656300  0.44838100  1
  N  N11  1  0.17418900  0.91948400  0.95392000  1
  N  N12  1  0.32581100  0.41948400  0.95392000  1
  N  N13  1  0.32926300  0.43656300  0.44838100  1
  N  N14  1  0.34052000  0.63039100  0.70619200  1
  N  N15  1  0.36444500  0.59371900  0.21370500  1
  N  N16  1  0.63555500  0.09371900  0.78629500  1
  N  N17  1  0.65948000  0.13039100  0.29380800  1
  N  N18  1  0.67073700  0.93656300  0.55161900  1
  N  N19  1  0.67418900  0.91948400  0.04608000  1
  N  N20  1  0.82581100  0.41948400  0.04608000  1
  N  N21  1  0.82926300  0.43656300  0.55161900  1
  N  N22  1  0.84052000  0.63039100  0.29380800  1
  N  N23  1  0.86444500  0.59371900  0.78629500  1
  O  O24  1  0.03461000  0.96198400  0.23224900  1
  O  O25  1  0.04337900  0.02589200  0.95423500  1
  O  O26  1  0.03506600  0.03835500  0.44713100  1
  O  O27  1  0.03542900  0.09922200  0.76114300  1
  O  O28  1  0.14370100  0.22906200  0.26349600  1
  O  O29  1  0.16432400  0.04633100  0.63428100  1
  O  O30  1  0.18044000  0.81040000  0.50398500  1
  O  O31  1  0.18644200  0.79891800  0.01231200  1
  O  O32  1  0.22881400  0.08853200  0.14435200  1
  O  O33  1  0.20309900  0.45969800  0.39367900  1
  O  O34  1  0.20472400  0.43179300  0.89511900  1
  O  O35  1  0.22012400  0.74499800  0.72314900  1
  O  O36  1  0.27987600  0.24499800  0.72314900  1
  O  O37  1  0.29527600  0.93179300  0.89511900  1
  O  O38  1  0.29690100  0.95969800  0.39367900  1
  O  O39  1  0.27118600  0.58853200  0.14435200  1
  O  O40  1  0.31355800  0.29891800  0.01231200  1
  O  O41  1  0.31956000  0.31040000  0.50398500  1
  O  O42  1  0.33567600  0.54633100  0.63428100  1
  O  O43  1  0.35629900  0.72906200  0.26349600  1
  O  O44  1  0.46457100  0.59922200  0.76114300  1
  O  O45  1  0.46493400  0.53835500  0.44713100  1
  O  O46  1  0.45662100  0.52589200  0.95423500  1
  O  O47  1  0.46539000  0.46198400  0.23224900  1
  O  O48  1  0.53461000  0.96198400  0.76775100  1
  O  O49  1  0.54337900  0.02589200  0.04576500  1
  O  O50  1  0.53506600  0.03835500  0.55286900  1
  O  O51  1  0.53542900  0.09922200  0.23885700  1
  O  O52  1  0.64370100  0.22906200  0.73650400  1
  O  O53  1  0.66432400  0.04633100  0.36571900  1
  O  O54  1  0.68044000  0.81040000  0.49601500  1
  O  O55  1  0.68644200  0.79891800  0.98768800  1
  O  O56  1  0.72881400  0.08853200  0.85564800  1
  O  O57  1  0.70309900  0.45969800  0.60632100  1
  O  O58  1  0.70472400  0.43179300  0.10488100  1
  O  O59  1  0.72012400  0.74499800  0.27685100  1
  O  O60  1  0.77987600  0.24499800  0.27685100  1
  O  O61  1  0.79527600  0.93179300  0.10488100  1
  O  O62  1  0.79690100  0.95969800  0.60632100  1
  O  O63  1  0.77118600  0.58853200  0.85564800  1
  O  O64  1  0.81355800  0.29891800  0.98768800  1
  O  O65  1  0.81956000  0.31040000  0.49601500  1
  O  O66  1  0.83567600  0.54633100  0.36571900  1
  O  O67  1  0.85629900  0.72906200  0.73650400  1
  O  O68  1  0.96457100  0.59922200  0.23885700  1
  O  O69  1  0.96493400  0.53835500  0.55286900  1
  O  O70  1  0.95662100  0.52589200  0.04576500  1
  O  O71  1  0.96539000  0.46198400  0.76775100  1
