# generated using pymatgen
data_Li4Ti3Mn3Cr2O16
_symmetry_space_group_name_H-M   'P 1'
_cell_length_a   10.16018800
_cell_length_b   5.98016000
_cell_length_c   9.58415781
_cell_angle_alpha   90.00000000
_cell_angle_beta   90.37821801
_cell_angle_gamma   90.00000000
_symmetry_Int_Tables_number   1
_chemical_formula_structural   Li4Ti3Mn3Cr2O16
_chemical_formula_sum   'Li8 Ti6 Mn6 Cr4 O32'
_cell_volume   582.31642722
_cell_formula_units_Z   2
loop_
 _symmetry_equiv_pos_site_id
 _symmetry_equiv_pos_as_xyz
  1  'x, y, z'
loop_
 _atom_site_type_symbol
 _atom_site_label
 _atom_site_symmetry_multiplicity
 _atom_site_fract_x
 _atom_site_fract_y
 _atom_site_fract_z
 _atom_site_occupancy
  Li  Li0  1  0.32864200  0.00000000  0.10972600  1
  Li  Li1  1  0.00098500  0.00000000  0.00477900  1
  Li  Li2  1  0.00827900  0.00000000  0.50319000  1
  Li  Li3  1  0.66939800  0.00000000  0.60649600  1
  Li  Li4  1  0.82864200  0.50000000  0.10972600  1
  Li  Li5  1  0.50098500  0.50000000  0.00477900  1
  Li  Li6  1  0.50827900  0.50000000  0.50319000  1
  Li  Li7  1  0.16939800  0.50000000  0.60649600  1
  Ti  Ti8  1  0.41522850  0.24699250  0.78553900  1
  Ti  Ti9  1  0.41522850  0.75300750  0.78553900  1
  Ti  Ti10  1  0.83291700  0.00000000  0.28828100  1
  Ti  Ti11  1  0.91522850  0.74699250  0.78553900  1
  Ti  Ti12  1  0.91522850  0.25300750  0.78553900  1
  Ti  Ti13  1  0.33291700  0.50000000  0.28828100  1
  Mn  Mn14  1  0.16907000  0.00000000  0.78816000  1
  Mn  Mn15  1  0.58478400  0.24332600  0.28639000  1
  Mn  Mn16  1  0.58478400  0.75667400  0.28639000  1
  Mn  Mn17  1  0.66907000  0.50000000  0.78816000  1
  Mn  Mn18  1  0.08478400  0.74332600  0.28639000  1
  Mn  Mn19  1  0.08478400  0.25667400  0.28639000  1
  Cr  Cr20  1  0.33541100  0.00000000  0.51360600  1
  Cr  Cr21  1  0.66053500  0.00000000  0.01748200  1
  Cr  Cr22  1  0.83541100  0.50000000  0.51360600  1
  Cr  Cr23  1  0.16053500  0.50000000  0.01748200  1
  O  O24  1  0.41992100  0.25835200  0.39642600  1
  O  O25  1  0.48291800  0.00000000  0.66476500  1
  O  O26  1  0.33051600  0.00000000  0.89370400  1
  O  O27  1  0.00361500  0.00000000  0.69080400  1
  O  O28  1  0.00240100  0.00000000  0.19175100  1
  O  O29  1  0.41992100  0.74164800  0.39642600  1
  O  O30  1  0.26784950  0.22410250  0.65480100  1
  O  O31  1  0.26784950  0.77589750  0.65480100  1
  O  O32  1  0.83374300  0.00000000  0.89318100  1
  O  O33  1  0.16873400  0.00000000  0.39819400  1
  O  O34  1  0.73835200  0.21678700  0.16326500  1
  O  O35  1  0.73835200  0.78321300  0.16326500  1
  O  O36  1  0.66812900  0.00000000  0.39438300  1
  O  O37  1  0.57287850  0.24546650  0.90148100  1
  O  O38  1  0.51536900  0.00000000  0.15816500  1
  O  O39  1  0.57287850  0.75453350  0.90148100  1
  O  O40  1  0.91992100  0.75835200  0.39642600  1
  O  O41  1  0.98291800  0.50000000  0.66476500  1
  O  O42  1  0.83051600  0.50000000  0.89370400  1
  O  O43  1  0.50361500  0.50000000  0.69080400  1
  O  O44  1  0.50240100  0.50000000  0.19175100  1
  O  O45  1  0.91992100  0.24164800  0.39642600  1
  O  O46  1  0.76784950  0.72410250  0.65480100  1
  O  O47  1  0.76784950  0.27589750  0.65480100  1
  O  O48  1  0.33374300  0.50000000  0.89318100  1
  O  O49  1  0.66873400  0.50000000  0.39819400  1
  O  O50  1  0.23835200  0.71678700  0.16326500  1
  O  O51  1  0.23835200  0.28321300  0.16326500  1
  O  O52  1  0.16812900  0.50000000  0.39438300  1
  O  O53  1  0.07287850  0.74546650  0.90148100  1
  O  O54  1  0.01536900  0.50000000  0.15816500  1
  O  O55  1  0.07287850  0.25453350  0.90148100  1
