# generated using pymatgen
data_Gd3YO6
_symmetry_space_group_name_H-M   'P 1'
_cell_length_a   9.79224571
_cell_length_b   9.79224571
_cell_length_c   11.45995530
_cell_angle_alpha   90.00000000
_cell_angle_beta   90.00000000
_cell_angle_gamma   120.00000000
_symmetry_Int_Tables_number   1
_chemical_formula_structural   Gd3YO6
_chemical_formula_sum   'Gd18 Y6 O36'
_cell_volume   951.65198910
_cell_formula_units_Z   6
loop_
 _symmetry_equiv_pos_site_id
 _symmetry_equiv_pos_as_xyz
  1  'x, y, z'
loop_
 _atom_site_type_symbol
 _atom_site_label
 _atom_site_symmetry_multiplicity
 _atom_site_fract_x
 _atom_site_fract_y
 _atom_site_fract_z
 _atom_site_occupancy
  Gd  Gd0  1  0.22756900  0.96146200  0.70960600  1
  Gd  Gd1  1  0.03853800  0.26610700  0.70960600  1
  Gd  Gd2  1  0.26610700  0.22756900  0.29039400  1
  Gd  Gd3  1  0.73389300  0.77243100  0.70960600  1
  Gd  Gd4  1  0.96146200  0.73389300  0.29039400  1
  Gd  Gd5  1  0.77243100  0.03853800  0.29039400  1
  Gd  Gd6  1  0.89423567  0.29479533  0.04293933  1
  Gd  Gd7  1  0.70520467  0.59944033  0.04293933  1
  Gd  Gd8  1  0.93277367  0.56090233  0.62372733  1
  Gd  Gd9  1  0.40055967  0.10576433  0.04293933  1
  Gd  Gd10  1  0.62812867  0.06722633  0.62372733  1
  Gd  Gd11  1  0.43909767  0.37187133  0.62372733  1
  Gd  Gd12  1  0.56090233  0.62812867  0.37627267  1
  Gd  Gd13  1  0.37187133  0.93277367  0.37627267  1
  Gd  Gd14  1  0.59944033  0.89423567  0.95706067  1
  Gd  Gd15  1  0.06722633  0.43909767  0.37627267  1
  Gd  Gd16  1  0.29479533  0.40055967  0.95706067  1
  Gd  Gd17  1  0.10576433  0.70520467  0.95706067  1
  Y  Y18  1  0.00000000  0.00000000  0.00000000  1
  Y  Y19  1  0.00000000  0.00000000  0.50000000  1
  Y  Y20  1  0.66666667  0.33333333  0.33333333  1
  Y  Y21  1  0.66666667  0.33333333  0.83333333  1
  Y  Y22  1  0.33333333  0.66666667  0.66666667  1
  Y  Y23  1  0.33333333  0.66666667  0.16666667  1
  O  O24  1  0.47726033  0.36120167  0.43004467  1
  O  O25  1  0.36120167  0.88394133  0.56995533  1
  O  O26  1  0.18753533  0.15951867  0.62806267  1
  O  O27  1  0.11605867  0.47726033  0.56995533  1
  O  O28  1  0.97198333  0.81246467  0.62806267  1
  O  O29  1  0.15951867  0.97198333  0.37193733  1
  O  O30  1  0.84048133  0.02801667  0.62806267  1
  O  O31  1  0.02801667  0.18753533  0.37193733  1
  O  O32  1  0.88394133  0.52273967  0.43004467  1
  O  O33  1  0.81246467  0.84048133  0.37193733  1
  O  O34  1  0.63879833  0.11605867  0.43004467  1
  O  O35  1  0.52273967  0.63879833  0.56995533  1
  O  O36  1  0.14392700  0.69453500  0.76337800  1
  O  O37  1  0.02786833  0.21727467  0.90328867  1
  O  O38  1  0.85420200  0.49285200  0.96139600  1
  O  O39  1  0.78272533  0.81059367  0.90328867  1
  O  O40  1  0.63865000  0.14579800  0.96139600  1
  O  O41  1  0.82618533  0.30531667  0.70527067  1
  O  O42  1  0.50714800  0.36135000  0.96139600  1
  O  O43  1  0.69468333  0.52086867  0.70527067  1
  O  O44  1  0.55060800  0.85607300  0.76337800  1
  O  O45  1  0.47913133  0.17381467  0.70527067  1
  O  O46  1  0.30546500  0.44939200  0.76337800  1
  O  O47  1  0.18940633  0.97213167  0.90328867  1
  O  O48  1  0.81059367  0.02786833  0.09671133  1
  O  O49  1  0.69453500  0.55060800  0.23662200  1
  O  O50  1  0.52086867  0.82618533  0.29472933  1
  O  O51  1  0.44939200  0.14392700  0.23662200  1
  O  O52  1  0.30531667  0.47913133  0.29472933  1
  O  O53  1  0.49285200  0.63865000  0.03860400  1
  O  O54  1  0.17381467  0.69468333  0.29472933  1
  O  O55  1  0.36135000  0.85420200  0.03860400  1
  O  O56  1  0.21727467  0.18940633  0.09671133  1
  O  O57  1  0.14579800  0.50714800  0.03860400  1
  O  O58  1  0.97213167  0.78272533  0.09671133  1
  O  O59  1  0.85607300  0.30546500  0.23662200  1
