# generated using pymatgen
data_TiSn9O20
_symmetry_space_group_name_H-M   'P 1'
_cell_length_a   14.57063400
_cell_length_b   6.80702000
_cell_length_c   7.53538450
_cell_angle_alpha   90.00000000
_cell_angle_beta   92.58543523
_cell_angle_gamma   90.00000000
_symmetry_Int_Tables_number   1
_chemical_formula_structural   TiSn9O20
_chemical_formula_sum   'Ti2 Sn18 O40'
_cell_volume   746.61822437
_cell_formula_units_Z   2
loop_
 _symmetry_equiv_pos_site_id
 _symmetry_equiv_pos_as_xyz
  1  'x, y, z'
loop_
 _atom_site_type_symbol
 _atom_site_label
 _atom_site_symmetry_multiplicity
 _atom_site_fract_x
 _atom_site_fract_y
 _atom_site_fract_z
 _atom_site_occupancy
  Ti  Ti0  1  0.00000000  0.00000000  0.00000000  1
  Ti  Ti1  1  0.50000000  0.50000000  0.00000000  1
  Sn  Sn2  1  0.00000000  0.00000000  0.50000000  1
  Sn  Sn3  1  0.80223200  0.00000000  0.80130700  1
  Sn  Sn4  1  0.60068900  0.00000000  0.59949900  1
  Sn  Sn5  1  0.90137600  0.50000000  0.90170200  1
  Sn  Sn6  1  0.80068600  0.00000000  0.29823700  1
  Sn  Sn7  1  0.69931400  0.50000000  0.70176300  1
  Sn  Sn8  1  0.59862400  0.00000000  0.09829800  1
  Sn  Sn9  1  0.89931100  0.50000000  0.40050100  1
  Sn  Sn10  1  0.69776800  0.50000000  0.19869300  1
  Sn  Sn11  1  0.50000000  0.50000000  0.50000000  1
  Sn  Sn12  1  0.30223200  0.50000000  0.80130700  1
  Sn  Sn13  1  0.10068900  0.50000000  0.59949900  1
  Sn  Sn14  1  0.40137600  0.00000000  0.90170200  1
  Sn  Sn15  1  0.30068600  0.50000000  0.29823700  1
  Sn  Sn16  1  0.19931400  0.00000000  0.70176300  1
  Sn  Sn17  1  0.09862400  0.50000000  0.09829800  1
  Sn  Sn18  1  0.39931100  0.00000000  0.40050100  1
  Sn  Sn19  1  0.19776800  0.00000000  0.19869300  1
  O  O20  1  0.00000000  0.70118200  0.00000000  1
  O  O21  1  0.60039000  0.30594400  0.59708500  1
  O  O22  1  0.00000000  0.29881800  0.00000000  1
  O  O23  1  0.66202300  0.00000000  0.85503400  1
  O  O24  1  0.94341800  0.00000000  0.75437100  1
  O  O25  1  0.63233600  0.50000000  0.94355600  1
  O  O26  1  0.73987400  0.00000000  0.54507100  1
  O  O27  1  0.53835200  0.00000000  0.34430300  1
  O  O28  1  0.60039000  0.69405600  0.59708500  1
  O  O29  1  0.80017750  0.69380150  0.80187100  1
  O  O30  1  0.69982250  0.19380150  0.19812900  1
  O  O31  1  0.89961000  0.80594400  0.40291500  1
  O  O32  1  0.80017750  0.30619850  0.80187100  1
  O  O33  1  0.69982250  0.80619850  0.19812900  1
  O  O34  1  0.96164800  0.50000000  0.65569700  1
  O  O35  1  0.86766400  0.00000000  0.05644400  1
  O  O36  1  0.76012600  0.50000000  0.45492900  1
  O  O37  1  0.55658200  0.50000000  0.24562900  1
  O  O38  1  0.83797700  0.50000000  0.14496600  1
  O  O39  1  0.89961000  0.19405600  0.40291500  1
  O  O40  1  0.50000000  0.20118200  0.00000000  1
  O  O41  1  0.10039000  0.80594400  0.59708500  1
  O  O42  1  0.50000000  0.79881800  0.00000000  1
  O  O43  1  0.16202300  0.50000000  0.85503400  1
  O  O44  1  0.44341800  0.50000000  0.75437100  1
  O  O45  1  0.13233600  0.00000000  0.94355600  1
  O  O46  1  0.23987400  0.50000000  0.54507100  1
  O  O47  1  0.03835200  0.50000000  0.34430300  1
  O  O48  1  0.10039000  0.19405600  0.59708500  1
  O  O49  1  0.30017750  0.19380150  0.80187100  1
  O  O50  1  0.19982250  0.69380150  0.19812900  1
  O  O51  1  0.39961000  0.30594400  0.40291500  1
  O  O52  1  0.30017750  0.80619850  0.80187100  1
  O  O53  1  0.19982250  0.30619850  0.19812900  1
  O  O54  1  0.46164800  0.00000000  0.65569700  1
  O  O55  1  0.36766400  0.50000000  0.05644400  1
  O  O56  1  0.26012600  0.00000000  0.45492900  1
  O  O57  1  0.05658200  0.00000000  0.24562900  1
  O  O58  1  0.33797700  0.00000000  0.14496600  1
  O  O59  1  0.39961000  0.69405600  0.40291500  1
