# generated using pymatgen
data_LiFeP2O7
_symmetry_space_group_name_H-M   'P 1'
_cell_length_a   8.19161800
_cell_length_b   13.39779600
_cell_length_c   10.64840804
_cell_angle_alpha   90.00000000
_cell_angle_beta   92.50482013
_cell_angle_gamma   90.00000000
_symmetry_Int_Tables_number   1
_chemical_formula_structural   LiFeP2O7
_chemical_formula_sum   'Li8 Fe8 P16 O56'
_cell_volume   1167.54221210
_cell_formula_units_Z   8
loop_
 _symmetry_equiv_pos_site_id
 _symmetry_equiv_pos_as_xyz
  1  'x, y, z'
loop_
 _atom_site_type_symbol
 _atom_site_label
 _atom_site_symmetry_multiplicity
 _atom_site_fract_x
 _atom_site_fract_y
 _atom_site_fract_z
 _atom_site_occupancy
  Li  Li0  1  0.50169400  0.78259200  0.00017500  1
  Li  Li1  1  0.49830600  0.78259200  0.49982500  1
  Li  Li2  1  0.49830600  0.21740800  0.99982500  1
  Li  Li3  1  0.50169400  0.21740800  0.50017500  1
  Li  Li4  1  0.00169400  0.28259200  0.00017500  1
  Li  Li5  1  0.99830600  0.28259200  0.49982500  1
  Li  Li6  1  0.99830600  0.71740800  0.99982500  1
  Li  Li7  1  0.00169400  0.71740800  0.50017500  1
  Fe  Fe8  1  0.31167800  0.00027800  0.89122600  1
  Fe  Fe9  1  0.68832200  0.99972200  0.10877400  1
  Fe  Fe10  1  0.31167800  0.99972200  0.39122600  1
  Fe  Fe11  1  0.68832200  0.00027800  0.60877400  1
  Fe  Fe12  1  0.81167800  0.50027800  0.89122600  1
  Fe  Fe13  1  0.18832200  0.49972200  0.10877400  1
  Fe  Fe14  1  0.81167800  0.49972200  0.39122600  1
  Fe  Fe15  1  0.18832200  0.50027800  0.60877400  1
  P  P16  1  0.80697700  0.89609300  0.86562300  1
  P  P17  1  0.79062350  0.11018150  0.86448800  1
  P  P18  1  0.19302300  0.89609300  0.63437700  1
  P  P19  1  0.19302300  0.10390700  0.13437700  1
  P  P20  1  0.20937650  0.11018150  0.63551200  1
  P  P21  1  0.20937650  0.88981850  0.13551200  1
  P  P22  1  0.79062350  0.88981850  0.36448800  1
  P  P23  1  0.80697700  0.10390700  0.36562300  1
  P  P24  1  0.30697700  0.39609300  0.86562300  1
  P  P25  1  0.29062350  0.61018150  0.86448800  1
  P  P26  1  0.69302300  0.39609300  0.63437700  1
  P  P27  1  0.69302300  0.60390700  0.13437700  1
  P  P28  1  0.70937650  0.61018150  0.63551200  1
  P  P29  1  0.70937650  0.38981850  0.13551200  1
  P  P30  1  0.29062350  0.38981850  0.36448800  1
  P  P31  1  0.30697700  0.60390700  0.36562300  1
  O  O32  1  0.89734250  0.00596450  0.87935100  1
  O  O33  1  0.59620200  0.30404500  0.12291500  1
  O  O34  1  0.40379800  0.69595500  0.87708500  1
  O  O35  1  0.59620200  0.69595500  0.62291500  1
  O  O36  1  0.89734250  0.99403550  0.37935100  1
  O  O37  1  0.69817700  0.10134900  0.73476700  1
  O  O38  1  0.28664500  0.90081000  0.76397100  1
  O  O39  1  0.69817700  0.89865100  0.23476700  1
  O  O40  1  0.10265750  0.99403550  0.12064900  1
  O  O41  1  0.33581500  0.10061500  0.52870000  1
  O  O42  1  0.71335500  0.90081000  0.73602900  1
  O  O43  1  0.30182300  0.89865100  0.26523300  1
  O  O44  1  0.68175350  0.89747550  0.97346500  1
  O  O45  1  0.30182300  0.10134900  0.76523300  1
  O  O46  1  0.28664500  0.09919000  0.26397100  1
  O  O47  1  0.68175350  0.10252450  0.47346500  1
  O  O48  1  0.31824650  0.89747550  0.52653500  1
  O  O49  1  0.33581500  0.89938500  0.02870000  1
  O  O50  1  0.66418500  0.89938500  0.47130000  1
  O  O51  1  0.31824650  0.10252450  0.02653500  1
  O  O52  1  0.43273800  0.31708300  0.87976900  1
  O  O53  1  0.56726200  0.31708300  0.62023100  1
  O  O54  1  0.40379800  0.30404500  0.37708500  1
  O  O55  1  0.71335500  0.09919000  0.23602900  1
  O  O56  1  0.66418500  0.10061500  0.97130000  1
  O  O57  1  0.43273800  0.68291700  0.37976900  1
  O  O58  1  0.10265750  0.00596450  0.62064900  1
  O  O59  1  0.56726200  0.68291700  0.12023100  1
  O  O60  1  0.39734250  0.50596450  0.87935100  1
  O  O61  1  0.09620200  0.80404500  0.12291500  1
  O  O62  1  0.90379800  0.19595500  0.87708500  1
  O  O63  1  0.09620200  0.19595500  0.62291500  1
  O  O64  1  0.39734250  0.49403550  0.37935100  1
  O  O65  1  0.19817700  0.60134900  0.73476700  1
  O  O66  1  0.78664500  0.40081000  0.76397100  1
  O  O67  1  0.19817700  0.39865100  0.23476700  1
  O  O68  1  0.60265750  0.49403550  0.12064900  1
  O  O69  1  0.83581500  0.60061500  0.52870000  1
  O  O70  1  0.21335500  0.40081000  0.73602900  1
  O  O71  1  0.80182300  0.39865100  0.26523300  1
  O  O72  1  0.18175350  0.39747550  0.97346500  1
  O  O73  1  0.80182300  0.60134900  0.76523300  1
  O  O74  1  0.78664500  0.59919000  0.26397100  1
  O  O75  1  0.18175350  0.60252450  0.47346500  1
  O  O76  1  0.81824650  0.39747550  0.52653500  1
  O  O77  1  0.83581500  0.39938500  0.02870000  1
  O  O78  1  0.16418500  0.39938500  0.47130000  1
  O  O79  1  0.81824650  0.60252450  0.02653500  1
  O  O80  1  0.93273800  0.81708300  0.87976900  1
  O  O81  1  0.06726200  0.81708300  0.62023100  1
  O  O82  1  0.90379800  0.80404500  0.37708500  1
  O  O83  1  0.21335500  0.59919000  0.23602900  1
  O  O84  1  0.16418500  0.60061500  0.97130000  1
  O  O85  1  0.93273800  0.18291700  0.37976900  1
  O  O86  1  0.60265750  0.50596450  0.62064900  1
  O  O87  1  0.06726200  0.18291700  0.12023100  1
