# generated using pymatgen
data_ZrTlCuSe3
_symmetry_space_group_name_H-M   'P 1'
_cell_length_a   3.87547000
_cell_length_b   14.91276200
_cell_length_c   10.20102500
_cell_angle_alpha   90.00000000
_cell_angle_beta   90.00000000
_cell_angle_gamma   90.00000000
_symmetry_Int_Tables_number   1
_chemical_formula_structural   ZrTlCuSe3
_chemical_formula_sum   'Zr4 Tl4 Cu4 Se12'
_cell_volume   589.55764864
_cell_formula_units_Z   4
loop_
 _symmetry_equiv_pos_site_id
 _symmetry_equiv_pos_as_xyz
  1  'x, y, z'
loop_
 _atom_site_type_symbol
 _atom_site_label
 _atom_site_symmetry_multiplicity
 _atom_site_fract_x
 _atom_site_fract_y
 _atom_site_fract_z
 _atom_site_occupancy
  Zr  Zr0  1  0.00000000  0.00000000  0.00000000  1
  Zr  Zr1  1  0.00000000  0.00000000  0.50000000  1
  Zr  Zr2  1  0.50000000  0.50000000  0.00000000  1
  Zr  Zr3  1  0.50000000  0.50000000  0.50000000  1
  Tl  Tl4  1  0.00000000  0.24794100  0.75000000  1
  Tl  Tl5  1  0.50000000  0.25205900  0.25000000  1
  Tl  Tl6  1  0.50000000  0.74794100  0.75000000  1
  Tl  Tl7  1  0.00000000  0.75205900  0.25000000  1
  Cu  Cu8  1  0.00000000  0.46606400  0.25000000  1
  Cu  Cu9  1  0.50000000  0.03393600  0.75000000  1
  Cu  Cu10  1  0.50000000  0.96606400  0.25000000  1
  Cu  Cu11  1  0.00000000  0.53393600  0.75000000  1
  Se  Se12  1  0.50000000  0.12467200  0.55209300  1
  Se  Se13  1  0.00000000  0.37532800  0.44790700  1
  Se  Se14  1  0.00000000  0.37532800  0.05209300  1
  Se  Se15  1  0.50000000  0.12467200  0.94790700  1
  Se  Se16  1  0.00000000  0.06790500  0.25000000  1
  Se  Se17  1  0.50000000  0.43209500  0.75000000  1
  Se  Se18  1  0.00000000  0.62467200  0.55209300  1
  Se  Se19  1  0.50000000  0.87532800  0.44790700  1
  Se  Se20  1  0.50000000  0.87532800  0.05209300  1
  Se  Se21  1  0.00000000  0.62467200  0.94790700  1
  Se  Se22  1  0.50000000  0.56790500  0.25000000  1
  Se  Se23  1  0.00000000  0.93209500  0.75000000  1
