# generated using pymatgen
data_Li5Ti2Co5O12
_symmetry_space_group_name_H-M   'P 1'
_cell_length_a   5.06034800
_cell_length_b   8.95599600
_cell_length_c   9.89252245
_cell_angle_alpha   90.00000000
_cell_angle_beta   101.10080344
_cell_angle_gamma   90.00000000
_symmetry_Int_Tables_number   1
_chemical_formula_structural   Li5Ti2Co5O12
_chemical_formula_sum   'Li10 Ti4 Co10 O24'
_cell_volume   439.94529448
_cell_formula_units_Z   2
loop_
 _symmetry_equiv_pos_site_id
 _symmetry_equiv_pos_as_xyz
  1  'x, y, z'
loop_
 _atom_site_type_symbol
 _atom_site_label
 _atom_site_symmetry_multiplicity
 _atom_site_fract_x
 _atom_site_fract_y
 _atom_site_fract_z
 _atom_site_occupancy
  Li  Li0  1  0.24796200  0.57855900  0.75583600  1
  Li  Li1  1  0.75203800  0.57855900  0.24416400  1
  Li  Li2  1  0.75031600  0.93259600  0.24918600  1
  Li  Li3  1  0.00000000  0.91714700  0.00000000  1
  Li  Li4  1  0.24968400  0.93259600  0.75081400  1
  Li  Li5  1  0.74796200  0.07855900  0.75583600  1
  Li  Li6  1  0.25203800  0.07855900  0.24416400  1
  Li  Li7  1  0.25031600  0.43259600  0.24918600  1
  Li  Li8  1  0.50000000  0.41714700  0.00000000  1
  Li  Li9  1  0.74968400  0.43259600  0.75081400  1
  Ti  Ti10  1  0.50000000  0.75255000  0.00000000  1
  Ti  Ti11  1  0.00000000  0.75698400  0.50000000  1
  Ti  Ti12  1  0.00000000  0.25255000  0.00000000  1
  Ti  Ti13  1  0.50000000  0.25698400  0.50000000  1
  Co  Co14  1  0.50000000  0.58655700  0.50000000  1
  Co  Co15  1  0.75300650  0.75417750  0.75561300  1
  Co  Co16  1  0.24699350  0.75417750  0.24438700  1
  Co  Co17  1  0.50000000  0.92026500  0.50000000  1
  Co  Co18  1  0.00000000  0.58219300  0.00000000  1
  Co  Co19  1  0.00000000  0.08655700  0.50000000  1
  Co  Co20  1  0.25300650  0.25417750  0.75561300  1
  Co  Co21  1  0.74699350  0.25417750  0.24438700  1
  Co  Co22  1  0.00000000  0.42026500  0.50000000  1
  Co  Co23  1  0.50000000  0.08219300  0.00000000  1
  O  O24  1  0.36002500  0.59540700  0.11604200  1
  O  O25  1  0.11939850  0.59667150  0.38424600  1
  O  O26  1  0.63712550  0.75681750  0.37944100  1
  O  O27  1  0.12964900  0.73515100  0.88904600  1
  O  O28  1  0.60317600  0.91593900  0.88821700  1
  O  O29  1  0.63997500  0.59540700  0.88395800  1
  O  O30  1  0.88859850  0.90853150  0.62623500  1
  O  O31  1  0.36287450  0.75681750  0.62055900  1
  O  O32  1  0.88060150  0.59667150  0.61575400  1
  O  O33  1  0.87035100  0.73515100  0.11095400  1
  O  O34  1  0.39682400  0.91593900  0.11178300  1
  O  O35  1  0.11140150  0.90853150  0.37376500  1
  O  O36  1  0.86002500  0.09540700  0.11604200  1
  O  O37  1  0.61939850  0.09667150  0.38424600  1
  O  O38  1  0.13712550  0.25681750  0.37944100  1
  O  O39  1  0.62964900  0.23515100  0.88904600  1
  O  O40  1  0.10317600  0.41593900  0.88821700  1
  O  O41  1  0.13997500  0.09540700  0.88395800  1
  O  O42  1  0.38859850  0.40853150  0.62623500  1
  O  O43  1  0.86287450  0.25681750  0.62055900  1
  O  O44  1  0.38060150  0.09667150  0.61575400  1
  O  O45  1  0.37035100  0.23515100  0.11095400  1
  O  O46  1  0.89682400  0.41593900  0.11178300  1
  O  O47  1  0.61140150  0.40853150  0.37376500  1
