# generated using pymatgen
data_KCaP3(HO2)6
_symmetry_space_group_name_H-M   'P 1'
_cell_length_a   7.35723300
_cell_length_b   12.06693500
_cell_length_c   13.03926439
_cell_angle_alpha   90.00000000
_cell_angle_beta   110.61234507
_cell_angle_gamma   90.00000000
_symmetry_Int_Tables_number   1
_chemical_formula_structural   KCaP3(HO2)6
_chemical_formula_sum   'K4 Ca4 P12 H24 O48'
_cell_volume   1083.50984820
_cell_formula_units_Z   4
loop_
 _symmetry_equiv_pos_site_id
 _symmetry_equiv_pos_as_xyz
  1  'x, y, z'
loop_
 _atom_site_type_symbol
 _atom_site_label
 _atom_site_symmetry_multiplicity
 _atom_site_fract_x
 _atom_site_fract_y
 _atom_site_fract_z
 _atom_site_occupancy
  K  K0  1  0.22618700  0.40792000  0.59643500  1
  K  K1  1  0.22618700  0.09208000  0.09643500  1
  K  K2  1  0.77381300  0.59208000  0.40356500  1
  K  K3  1  0.77381300  0.90792000  0.90356500  1
  Ca  Ca4  1  0.87508100  0.21127400  0.79790700  1
  Ca  Ca5  1  0.87508100  0.28872600  0.29790700  1
  Ca  Ca6  1  0.12491900  0.78872600  0.20209300  1
  Ca  Ca7  1  0.12491900  0.71127400  0.70209300  1
  P  P8  1  0.69296200  0.32201300  0.52091800  1
  P  P9  1  0.69296200  0.17798700  0.02091800  1
  P  P10  1  0.30703800  0.67798700  0.47908200  1
  P  P11  1  0.30703800  0.82201300  0.97908200  1
  P  P12  1  0.21919100  0.50975200  0.31266900  1
  P  P13  1  0.21919100  0.99024800  0.81266900  1
  P  P14  1  0.78080900  0.49024800  0.68733100  1
  P  P15  1  0.78080900  0.00975200  0.18733100  1
  P  P16  1  0.38612900  0.28834500  0.31286200  1
  P  P17  1  0.38612900  0.21165500  0.81286200  1
  P  P18  1  0.61387100  0.71165500  0.68713800  1
  P  P19  1  0.61387100  0.78834500  0.18713800  1
  H  H20  1  0.21934900  0.46506000  0.81005800  1
  H  H21  1  0.21934900  0.03494000  0.31005800  1
  H  H22  1  0.78065100  0.53494000  0.18994200  1
  H  H23  1  0.78065100  0.96506000  0.68994200  1
  H  H24  1  0.57081300  0.01843900  0.64674700  1
  H  H25  1  0.57081300  0.48156100  0.14674700  1
  H  H26  1  0.42918700  0.98156100  0.35325300  1
  H  H27  1  0.42918700  0.51843900  0.85325300  1
  H  H28  1  0.00042300  0.70327800  0.96276800  1
  H  H29  1  0.00042300  0.79672200  0.46276800  1
  H  H30  1  0.99957700  0.29672200  0.03723200  1
  H  H31  1  0.99957700  0.20327800  0.53723200  1
  H  H32  1  0.18385000  0.15429900  0.51961200  1
  H  H33  1  0.18385000  0.34570100  0.01961200  1
  H  H34  1  0.81615000  0.84570100  0.48038800  1
  H  H35  1  0.81615000  0.65429900  0.98038800  1
  H  H36  1  0.24694400  0.96763100  0.61164900  1
  H  H37  1  0.24694400  0.53236900  0.11164900  1
  H  H38  1  0.75305600  0.03236900  0.38835100  1
  H  H39  1  0.75305600  0.46763100  0.88835100  1
  H  H40  1  0.24951200  0.53702800  0.99220400  1
  H  H41  1  0.24951200  0.96297200  0.49220400  1
  H  H42  1  0.75048800  0.46297200  0.00779600  1
  H  H43  1  0.75048800  0.03702800  0.50779600  1
  O  O44  1  0.80034800  0.23305800  0.59940000  1
  O  O45  1  0.80034800  0.26694200  0.09940000  1
  O  O46  1  0.19965200  0.76694200  0.40060000  1
  O  O47  1  0.19965200  0.73305800  0.90060000  1
  O  O48  1  0.79145700  0.12706300  0.94899000  1
  O  O49  1  0.79145700  0.37293700  0.44899000  1
  O  O50  1  0.20854300  0.87293700  0.05101000  1
  O  O51  1  0.20854300  0.62706300  0.55101000  1
  O  O52  1  0.62720000  0.41874900  0.58772800  1
  O  O53  1  0.62720000  0.08125100  0.08772800  1
  O  O54  1  0.37280000  0.58125100  0.41227200  1
  O  O55  1  0.37280000  0.91874900  0.91227200  1
  O  O56  1  0.14516400  0.91850400  0.71234800  1
  O  O57  1  0.14516400  0.58149600  0.21234800  1
  O  O58  1  0.85483600  0.08149600  0.28765200  1
  O  O59  1  0.85483600  0.41850400  0.78765200  1
  O  O60  1  0.92141600  0.54673700  0.64434000  1
  O  O61  1  0.92141600  0.95326300  0.14434000  1
  O  O62  1  0.07858400  0.45326300  0.35566000  1
  O  O63  1  0.07858400  0.04673700  0.85566000  1
  O  O64  1  0.37018800  0.07750800  0.79404200  1
  O  O65  1  0.37018800  0.42249200  0.29404200  1
  O  O66  1  0.62981200  0.92249200  0.20595800  1
  O  O67  1  0.62981200  0.57750800  0.70595800  1
  O  O68  1  0.47224300  0.75192200  0.73777400  1
  O  O69  1  0.47224300  0.74807800  0.23777400  1
  O  O70  1  0.52775700  0.24807800  0.26222600  1
  O  O71  1  0.52775700  0.25192200  0.76222600  1
  O  O72  1  0.18841000  0.26262700  0.77920400  1
  O  O73  1  0.18841000  0.23737300  0.27920400  1
  O  O74  1  0.81159000  0.73737300  0.22079600  1
  O  O75  1  0.81159000  0.76262700  0.72079600  1
  O  O76  1  0.52125000  0.72105800  0.55304600  1
  O  O77  1  0.52125000  0.77894200  0.05304600  1
  O  O78  1  0.47875000  0.27894200  0.44695400  1
  O  O79  1  0.47875000  0.22105800  0.94695400  1
  O  O80  1  0.70468600  0.02817400  0.69910600  1
  O  O81  1  0.70468600  0.47182600  0.19910600  1
  O  O82  1  0.29531400  0.97182600  0.30089400  1
  O  O83  1  0.29531400  0.52817400  0.80089400  1
  O  O84  1  0.91654400  0.71197600  0.00686000  1
  O  O85  1  0.91654400  0.78802400  0.50686000  1
  O  O86  1  0.08345600  0.28802400  0.99314000  1
  O  O87  1  0.08345600  0.21197600  0.49314000  1
  O  O88  1  0.29979500  0.00525400  0.56040900  1
  O  O89  1  0.29979500  0.49474600  0.06040900  1
  O  O90  1  0.70020500  0.99474600  0.43959100  1
  O  O91  1  0.70020500  0.50525400  0.93959100  1
