# generated using pymatgen
data_Li3Al2FeO6
_symmetry_space_group_name_H-M   'P 1'
_cell_length_a   5.00128380
_cell_length_b   8.65891400
_cell_length_c   5.11509004
_cell_angle_alpha   90.00000000
_cell_angle_beta   109.14624413
_cell_angle_gamma   90.00000000
_symmetry_Int_Tables_number   1
_chemical_formula_structural   Li3Al2FeO6
_chemical_formula_sum   'Li6 Al4 Fe2 O12'
_cell_volume   209.25941146
_cell_formula_units_Z   2
loop_
 _symmetry_equiv_pos_site_id
 _symmetry_equiv_pos_as_xyz
  1  'x, y, z'
loop_
 _atom_site_type_symbol
 _atom_site_label
 _atom_site_symmetry_multiplicity
 _atom_site_fract_x
 _atom_site_fract_y
 _atom_site_fract_z
 _atom_site_occupancy
  Li  Li0  1  0.50000000  0.00000000  0.50000000  1
  Li  Li1  1  0.50000000  0.33270600  0.50000000  1
  Li  Li2  1  0.50000000  0.66729400  0.50000000  1
  Li  Li3  1  0.00000000  0.50000000  0.50000000  1
  Li  Li4  1  0.00000000  0.83270600  0.50000000  1
  Li  Li5  1  0.00000000  0.16729400  0.50000000  1
  Al  Al6  1  0.50000000  0.16674700  0.00000000  1
  Al  Al7  1  0.50000000  0.83325300  0.00000000  1
  Al  Al8  1  0.00000000  0.66674700  0.00000000  1
  Al  Al9  1  0.00000000  0.33325300  0.00000000  1
  Fe  Fe10  1  0.00000000  0.00000000  0.00000000  1
  Fe  Fe11  1  0.50000000  0.50000000  0.00000000  1
  O  O12  1  0.72538200  0.00000000  0.21970300  1
  O  O13  1  0.27461800  0.00000000  0.78029700  1
  O  O14  1  0.75291400  0.17382900  0.78236000  1
  O  O15  1  0.75291400  0.82617100  0.78236000  1
  O  O16  1  0.24708600  0.17382900  0.21764000  1
  O  O17  1  0.24708600  0.82617100  0.21764000  1
  O  O18  1  0.22538200  0.50000000  0.21970300  1
  O  O19  1  0.77461800  0.50000000  0.78029700  1
  O  O20  1  0.25291400  0.67382900  0.78236000  1
  O  O21  1  0.25291400  0.32617100  0.78236000  1
  O  O22  1  0.74708600  0.67382900  0.21764000  1
  O  O23  1  0.74708600  0.32617100  0.21764000  1
