# generated using pymatgen
data_Li3MnPCO7
_symmetry_space_group_name_H-M   'P 1'
_cell_length_a   5.29454582
_cell_length_b   6.52645095
_cell_length_c   8.58791561
_cell_angle_alpha   95.64961049
_cell_angle_beta   95.24695225
_cell_angle_gamma   93.74540752
_symmetry_Int_Tables_number   1
_chemical_formula_structural   Li3MnPCO7
_chemical_formula_sum   'Li6 Mn2 P2 C2 O14'
_cell_volume   293.24474947
_cell_formula_units_Z   2
loop_
 _symmetry_equiv_pos_site_id
 _symmetry_equiv_pos_as_xyz
  1  'x, y, z'
loop_
 _atom_site_type_symbol
 _atom_site_label
 _atom_site_symmetry_multiplicity
 _atom_site_fract_x
 _atom_site_fract_y
 _atom_site_fract_z
 _atom_site_occupancy
  Li  Li0  1  0.08558950  0.30536300  0.62183650  1
  Li  Li1  1  0.91441050  0.69463700  0.37816350  1
  Li  Li2  1  0.28442650  0.96321300  0.24782750  1
  Li  Li3  1  0.71557350  0.03678700  0.75217250  1
  Li  Li4  1  0.38158850  0.48080100  0.25305850  1
  Li  Li5  1  0.61841150  0.51919900  0.74694150  1
  Mn  Mn6  1  0.81689250  0.24074400  0.14347550  1
  Mn  Mn7  1  0.18310750  0.75925600  0.85652450  1
  P  P8  1  0.28569150  0.25294800  0.91337750  1
  P  P9  1  0.71430850  0.74705200  0.08662250  1
  C  C10  1  0.29731850  0.74131200  0.54520950  1
  C  C11  1  0.70268150  0.25868800  0.45479050  1
  O  O12  1  0.92624650  0.29115100  0.40405250  1
  O  O13  1  0.07375350  0.70884900  0.59594750  1
  O  O14  1  0.10778450  0.07583200  0.81713050  1
  O  O15  1  0.89221550  0.92416800  0.18286950  1
  O  O16  1  0.19014450  0.30895300  0.07623250  1
  O  O17  1  0.80985550  0.69104700  0.92376750  1
  O  O18  1  0.27676250  0.43969700  0.81201150  1
  O  O19  1  0.72323750  0.56030300  0.18798850  1
  O  O20  1  0.30791250  0.73236400  0.39354750  1
  O  O21  1  0.69208750  0.26763600  0.60645250  1
  O  O22  1  0.43506250  0.80824600  0.06854950  1
  O  O23  1  0.56493750  0.19175400  0.93145050  1
  O  O24  1  0.50350650  0.22327100  0.35390050  1
  O  O25  1  0.49649350  0.77672900  0.64609950  1
