# generated using pymatgen
data_K3NaP4(H2O7)2
_symmetry_space_group_name_H-M   'P 1'
_cell_length_a   17.37485200
_cell_length_b   7.35774800
_cell_length_c   11.35392967
_cell_angle_alpha   90.00000000
_cell_angle_beta   99.87437299
_cell_angle_gamma   90.00000000
_symmetry_Int_Tables_number   1
_chemical_formula_structural   K3NaP4(H2O7)2
_chemical_formula_sum   'K12 Na4 P16 H16 O56'
_cell_volume   1429.98180226
_cell_formula_units_Z   4
loop_
 _symmetry_equiv_pos_site_id
 _symmetry_equiv_pos_as_xyz
  1  'x, y, z'
loop_
 _atom_site_type_symbol
 _atom_site_label
 _atom_site_symmetry_multiplicity
 _atom_site_fract_x
 _atom_site_fract_y
 _atom_site_fract_z
 _atom_site_occupancy
  K  K0  1  0.63996600  0.19220400  0.48843100  1
  K  K1  1  0.86003400  0.69220400  0.01156900  1
  K  K2  1  0.86003400  0.30779600  0.51156900  1
  K  K3  1  0.63996600  0.80779600  0.98843100  1
  K  K4  1  0.00000000  0.13763200  0.25000000  1
  K  K5  1  0.00000000  0.86236800  0.75000000  1
  K  K6  1  0.13996600  0.69220400  0.48843100  1
  K  K7  1  0.36003400  0.19220400  0.01156900  1
  K  K8  1  0.36003400  0.80779600  0.51156900  1
  K  K9  1  0.13996600  0.30779600  0.98843100  1
  K  K10  1  0.50000000  0.63763200  0.25000000  1
  K  K11  1  0.50000000  0.36236800  0.75000000  1
  Na  Na12  1  0.75000000  0.75000000  0.50000000  1
  Na  Na13  1  0.75000000  0.25000000  0.00000000  1
  Na  Na14  1  0.25000000  0.25000000  0.50000000  1
  Na  Na15  1  0.25000000  0.75000000  0.00000000  1
  P  P16  1  0.69725400  0.52237900  0.75566700  1
  P  P17  1  0.80274600  0.02237900  0.74433300  1
  P  P18  1  0.80274600  0.97762100  0.24433300  1
  P  P19  1  0.69725400  0.47762100  0.25566700  1
  P  P20  1  0.57029650  0.75206650  0.60312700  1
  P  P21  1  0.92970350  0.25206650  0.89687300  1
  P  P22  1  0.92970350  0.74793350  0.39687300  1
  P  P23  1  0.57029650  0.24793350  0.10312700  1
  P  P24  1  0.19725400  0.02237900  0.75566700  1
  P  P25  1  0.30274600  0.52237900  0.74433300  1
  P  P26  1  0.30274600  0.47762100  0.24433300  1
  P  P27  1  0.19725400  0.97762100  0.25566700  1
  P  P28  1  0.07029650  0.25206650  0.60312700  1
  P  P29  1  0.42970350  0.75206650  0.89687300  1
  P  P30  1  0.42970350  0.24793350  0.39687300  1
  P  P31  1  0.07029650  0.74793350  0.10312700  1
  H  H32  1  0.80001350  0.67667550  0.73172000  1
  H  H33  1  0.69998650  0.17667550  0.76828000  1
  H  H34  1  0.69998650  0.82332450  0.26828000  1
  H  H35  1  0.80001350  0.32332450  0.23172000  1
  H  H36  1  0.56093300  0.95142600  0.74133900  1
  H  H37  1  0.93906700  0.45142600  0.75866100  1
  H  H38  1  0.93906700  0.54857400  0.25866100  1
  H  H39  1  0.56093300  0.04857400  0.24133900  1
  H  H40  1  0.30001350  0.17667550  0.73172000  1
  H  H41  1  0.19998650  0.67667550  0.76828000  1
  H  H42  1  0.19998650  0.32332450  0.26828000  1
  H  H43  1  0.30001350  0.82332450  0.23172000  1
  H  H44  1  0.06093300  0.45142600  0.74133900  1
  H  H45  1  0.43906700  0.95142600  0.75866100  1
  H  H46  1  0.43906700  0.04857400  0.25866100  1
  H  H47  1  0.06093300  0.54857400  0.24133900  1
  O  O48  1  0.72276850  0.53681550  0.88880400  1
  O  O49  1  0.77723150  0.03681550  0.61119600  1
  O  O50  1  0.77723150  0.96318450  0.11119600  1
  O  O51  1  0.72276850  0.46318450  0.38880400  1
  O  O52  1  0.76775850  0.57082950  0.68691200  1
  O  O53  1  0.73224150  0.07082950  0.81308800  1
  O  O54  1  0.73224150  0.92917050  0.31308800  1
  O  O55  1  0.76775850  0.42917050  0.18691200  1
  O  O56  1  0.66040000  0.34517300  0.70574000  1
  O  O57  1  0.83960000  0.84517300  0.79426000  1
  O  O58  1  0.83960000  0.15482700  0.29426000  1
  O  O59  1  0.66040000  0.65482700  0.20574000  1
  O  O60  1  0.63403450  0.68410550  0.71950100  1
  O  O61  1  0.86596550  0.18410550  0.78049900  1
  O  O62  1  0.86596550  0.81589450  0.28049900  1
  O  O63  1  0.63403450  0.31589450  0.21950100  1
  O  O64  1  0.60852100  0.78120600  0.49594000  1
  O  O65  1  0.89147900  0.28120600  0.00406000  1
  O  O66  1  0.89147900  0.71879400  0.50406000  1
  O  O67  1  0.60852100  0.21879400  0.99594000  1
  O  O68  1  0.55451000  0.95607900  0.65458700  1
  O  O69  1  0.94549000  0.45607900  0.84541300  1
  O  O70  1  0.94549000  0.54392100  0.34541300  1
  O  O71  1  0.55451000  0.04392100  0.15458700  1
  O  O72  1  0.99744700  0.14200000  0.59743300  1
  O  O73  1  0.50255300  0.64200000  0.90256700  1
  O  O74  1  0.50255300  0.35800000  0.40256700  1
  O  O75  1  0.99744700  0.85800000  0.09743300  1
  O  O76  1  0.22276850  0.03681550  0.88880400  1
  O  O77  1  0.27723150  0.53681550  0.61119600  1
  O  O78  1  0.27723150  0.46318450  0.11119600  1
  O  O79  1  0.22276850  0.96318450  0.38880400  1
  O  O80  1  0.26775850  0.07082950  0.68691200  1
  O  O81  1  0.23224150  0.57082950  0.81308800  1
  O  O82  1  0.23224150  0.42917050  0.31308800  1
  O  O83  1  0.26775850  0.92917050  0.18691200  1
  O  O84  1  0.16040000  0.84517300  0.70574000  1
  O  O85  1  0.33960000  0.34517300  0.79426000  1
  O  O86  1  0.33960000  0.65482700  0.29426000  1
  O  O87  1  0.16040000  0.15482700  0.20574000  1
  O  O88  1  0.13403450  0.18410550  0.71950100  1
  O  O89  1  0.36596550  0.68410550  0.78049900  1
  O  O90  1  0.36596550  0.31589450  0.28049900  1
  O  O91  1  0.13403450  0.81589450  0.21950100  1
  O  O92  1  0.10852100  0.28120600  0.49594000  1
  O  O93  1  0.39147900  0.78120600  0.00406000  1
  O  O94  1  0.39147900  0.21879400  0.50406000  1
  O  O95  1  0.10852100  0.71879400  0.99594000  1
  O  O96  1  0.05451000  0.45607900  0.65458700  1
  O  O97  1  0.44549000  0.95607900  0.84541300  1
  O  O98  1  0.44549000  0.04392100  0.34541300  1
  O  O99  1  0.05451000  0.54392100  0.15458700  1
  O  O100  1  0.49744700  0.64200000  0.59743300  1
  O  O101  1  0.00255300  0.14200000  0.90256700  1
  O  O102  1  0.00255300  0.85800000  0.40256700  1
  O  O103  1  0.49744700  0.35800000  0.09743300  1
