# generated using pymatgen
data_NaB3H4O7
_symmetry_space_group_name_H-M   'P 1'
_cell_length_a   18.47657200
_cell_length_b   9.92299800
_cell_length_c   6.44171594
_cell_angle_alpha   90.00000000
_cell_angle_beta   103.93778309
_cell_angle_gamma   90.00000000
_symmetry_Int_Tables_number   1
_chemical_formula_structural   NaB3H4O7
_chemical_formula_sum   'Na8 B24 H32 O56'
_cell_volume   1146.27098864
_cell_formula_units_Z   8
loop_
 _symmetry_equiv_pos_site_id
 _symmetry_equiv_pos_as_xyz
  1  'x, y, z'
loop_
 _atom_site_type_symbol
 _atom_site_label
 _atom_site_symmetry_multiplicity
 _atom_site_fract_x
 _atom_site_fract_y
 _atom_site_fract_z
 _atom_site_occupancy
  Na  Na0  1  0.17289300  0.76264300  0.60051600  1
  Na  Na1  1  0.32710700  0.26264300  0.89948400  1
  Na  Na2  1  0.32710700  0.73735700  0.39948400  1
  Na  Na3  1  0.17289300  0.23735700  0.10051600  1
  Na  Na4  1  0.67289300  0.26264300  0.60051600  1
  Na  Na5  1  0.82710700  0.76264300  0.89948400  1
  Na  Na6  1  0.82710700  0.23735700  0.39948400  1
  Na  Na7  1  0.67289300  0.73735700  0.10051600  1
  B  B8  1  0.34095200  0.82934300  0.94261700  1
  B  B9  1  0.15904800  0.32934300  0.55738300  1
  B  B10  1  0.15904800  0.67065700  0.05738300  1
  B  B11  1  0.34095200  0.17065700  0.44261700  1
  B  B12  1  0.40279900  0.60136400  0.99383800  1
  B  B13  1  0.09720100  0.10136400  0.50616200  1
  B  B14  1  0.09720100  0.89863600  0.00616200  1
  B  B15  1  0.40279900  0.39863600  0.49383800  1
  B  B16  1  0.47830850  0.80153150  0.98426500  1
  B  B17  1  0.02169150  0.30153150  0.51573500  1
  B  B18  1  0.02169150  0.69846850  0.01573500  1
  B  B19  1  0.47830850  0.19846850  0.48426500  1
  B  B20  1  0.84095200  0.32934300  0.94261700  1
  B  B21  1  0.65904800  0.82934300  0.55738300  1
  B  B22  1  0.65904800  0.17065700  0.05738300  1
  B  B23  1  0.84095200  0.67065700  0.44261700  1
  B  B24  1  0.90279900  0.10136400  0.99383800  1
  B  B25  1  0.59720100  0.60136400  0.50616200  1
  B  B26  1  0.59720100  0.39863600  0.00616200  1
  B  B27  1  0.90279900  0.89863600  0.49383800  1
  B  B28  1  0.97830850  0.30153150  0.98426500  1
  B  B29  1  0.52169150  0.80153150  0.51573500  1
  B  B30  1  0.52169150  0.19846850  0.01573500  1
  B  B31  1  0.97830850  0.69846850  0.48426500  1
  H  H32  1  0.05902250  0.44314650  0.00404400  1
  H  H33  1  0.44097750  0.94314650  0.49595600  1
  H  H34  1  0.44097750  0.05685350  0.99595600  1
  H  H35  1  0.05902250  0.55685350  0.50404400  1
  H  H36  1  0.30335850  0.93705050  0.66843300  1
  H  H37  1  0.19664150  0.43705050  0.83156700  1
  H  H38  1  0.19664150  0.56294950  0.33156700  1
  H  H39  1  0.30335850  0.06294950  0.16843300  1
  H  H40  1  0.25046350  0.87957750  0.05313300  1
  H  H41  1  0.24953650  0.37957750  0.44686700  1
  H  H42  1  0.24953650  0.62042250  0.94686700  1
  H  H43  1  0.25046350  0.12042250  0.55313300  1
  H  H44  1  0.44865850  0.42064650  0.02184900  1
  H  H45  1  0.05134150  0.92064650  0.47815100  1
  H  H46  1  0.05134150  0.07935350  0.97815100  1
  H  H47  1  0.44865850  0.57935350  0.52184900  1
  H  H48  1  0.55902250  0.94314650  0.00404400  1
  H  H49  1  0.94097750  0.44314650  0.49595600  1
  H  H50  1  0.94097750  0.55685350  0.99595600  1
  H  H51  1  0.55902250  0.05685350  0.50404400  1
  H  H52  1  0.80335850  0.43705050  0.66843300  1
  H  H53  1  0.69664150  0.93705050  0.83156700  1
  H  H54  1  0.69664150  0.06294950  0.33156700  1
  H  H55  1  0.80335850  0.56294950  0.16843300  1
  H  H56  1  0.75046350  0.37957750  0.05313300  1
  H  H57  1  0.74953650  0.87957750  0.44686700  1
  H  H58  1  0.74953650  0.12042250  0.94686700  1
  H  H59  1  0.75046350  0.62042250  0.55313300  1
  H  H60  1  0.94865850  0.92064650  0.02184900  1
  H  H61  1  0.55134150  0.42064650  0.47815100  1
  H  H62  1  0.55134150  0.57935350  0.97815100  1
  H  H63  1  0.94865850  0.07935350  0.52184900  1
  O  O64  1  0.04992850  0.34431450  0.99724800  1
  O  O65  1  0.45007150  0.84431450  0.50275200  1
  O  O66  1  0.45007150  0.15568550  0.00275200  1
  O  O67  1  0.04992850  0.65568550  0.49724800  1
  O  O68  1  0.30075350  0.84190550  0.71746400  1
  O  O69  1  0.19924650  0.34190550  0.78253600  1
  O  O70  1  0.19924650  0.65809450  0.28253600  1
  O  O71  1  0.30075350  0.15809450  0.21746400  1
  O  O72  1  0.30481150  0.89727150  0.09388300  1
  O  O73  1  0.19518850  0.39727150  0.40611700  1
  O  O74  1  0.19518850  0.60272850  0.90611700  1
  O  O75  1  0.30481150  0.10272850  0.59388300  1
  O  O76  1  0.39920200  0.46374400  0.01219000  1
  O  O77  1  0.10079800  0.96374400  0.48781000  1
  O  O78  1  0.10079800  0.03625600  0.98781000  1
  O  O79  1  0.39920200  0.53625600  0.51219000  1
  O  O80  1  0.47076550  0.66047450  0.98244900  1
  O  O81  1  0.02923450  0.16047450  0.51755100  1
  O  O82  1  0.02923450  0.83952550  0.01755100  1
  O  O83  1  0.47076550  0.33952550  0.48244900  1
  O  O84  1  0.34290000  0.68022800  0.99436100  1
  O  O85  1  0.15710000  0.18022800  0.50563900  1
  O  O86  1  0.15710000  0.81977200  0.00563900  1
  O  O87  1  0.34290000  0.31977200  0.49436100  1
  O  O88  1  0.41921550  0.88371150  0.98055400  1
  O  O89  1  0.08078450  0.38371150  0.51944600  1
  O  O90  1  0.08078450  0.61628850  0.01944600  1
  O  O91  1  0.41921550  0.11628850  0.48055400  1
  O  O92  1  0.54992850  0.84431450  0.99724800  1
  O  O93  1  0.95007150  0.34431450  0.50275200  1
  O  O94  1  0.95007150  0.65568550  0.00275200  1
  O  O95  1  0.54992850  0.15568550  0.49724800  1
  O  O96  1  0.80075350  0.34190550  0.71746400  1
  O  O97  1  0.69924650  0.84190550  0.78253600  1
  O  O98  1  0.69924650  0.15809450  0.28253600  1
  O  O99  1  0.80075350  0.65809450  0.21746400  1
  O  O100  1  0.80481150  0.39727150  0.09388300  1
  O  O101  1  0.69518850  0.89727150  0.40611700  1
  O  O102  1  0.69518850  0.10272850  0.90611700  1
  O  O103  1  0.80481150  0.60272850  0.59388300  1
  O  O104  1  0.89920200  0.96374400  0.01219000  1
  O  O105  1  0.60079800  0.46374400  0.48781000  1
  O  O106  1  0.60079800  0.53625600  0.98781000  1
  O  O107  1  0.89920200  0.03625600  0.51219000  1
  O  O108  1  0.97076550  0.16047450  0.98244900  1
  O  O109  1  0.52923450  0.66047450  0.51755100  1
  O  O110  1  0.52923450  0.33952550  0.01755100  1
  O  O111  1  0.97076550  0.83952550  0.48244900  1
  O  O112  1  0.84290000  0.18022800  0.99436100  1
  O  O113  1  0.65710000  0.68022800  0.50563900  1
  O  O114  1  0.65710000  0.31977200  0.00563900  1
  O  O115  1  0.84290000  0.81977200  0.49436100  1
  O  O116  1  0.91921550  0.38371150  0.98055400  1
  O  O117  1  0.58078450  0.88371150  0.51944600  1
  O  O118  1  0.58078450  0.11628850  0.01944600  1
  O  O119  1  0.91921550  0.61628850  0.48055400  1
