# generated using pymatgen
data_La2MgI8
_symmetry_space_group_name_H-M   'P 1'
_cell_length_a   16.25922000
_cell_length_b   9.68658000
_cell_length_c   13.54212782
_cell_angle_alpha   90.00000000
_cell_angle_beta   114.63047943
_cell_angle_gamma   90.00000000
_symmetry_Int_Tables_number   1
_chemical_formula_structural   La2MgI8
_chemical_formula_sum   'La8 Mg4 I32'
_cell_volume   1938.77723868
_cell_formula_units_Z   4
loop_
 _symmetry_equiv_pos_site_id
 _symmetry_equiv_pos_as_xyz
  1  'x, y, z'
loop_
 _atom_site_type_symbol
 _atom_site_label
 _atom_site_symmetry_multiplicity
 _atom_site_fract_x
 _atom_site_fract_y
 _atom_site_fract_z
 _atom_site_occupancy
  La  La0  1  0.27268550  0.71005350  0.81048400  1
  La  La1  1  0.27268550  0.28994650  0.31048400  1
  La  La2  1  0.22731450  0.21005350  0.68951600  1
  La  La3  1  0.22731450  0.78994650  0.18951600  1
  La  La4  1  0.77268550  0.21005350  0.81048400  1
  La  La5  1  0.77268550  0.78994650  0.31048400  1
  La  La6  1  0.72731450  0.71005350  0.68951600  1
  La  La7  1  0.72731450  0.28994650  0.18951600  1
  Mg  Mg8  1  0.00000000  0.99084600  0.75000000  1
  Mg  Mg9  1  0.50000000  0.50915400  0.25000000  1
  Mg  Mg10  1  0.50000000  0.49084600  0.75000000  1
  Mg  Mg11  1  0.00000000  0.00915400  0.25000000  1
  I  I12  1  0.63020100  0.00410900  0.63779000  1
  I  I13  1  0.11851050  0.91999350  0.62516700  1
  I  I14  1  0.63164100  0.70257400  0.85127800  1
  I  I15  1  0.62003350  0.27604350  0.90569600  1
  I  I16  1  0.13020100  0.49589100  0.13779000  1
  I  I17  1  0.61851050  0.58000650  0.12516700  1
  I  I18  1  0.13164100  0.79742600  0.35127800  1
  I  I19  1  0.62003350  0.72395650  0.40569600  1
  I  I20  1  0.87996650  0.77604350  0.59430400  1
  I  I21  1  0.36835900  0.70257400  0.64872200  1
  I  I22  1  0.88148950  0.91999350  0.87483300  1
  I  I23  1  0.36979900  0.00410900  0.86221000  1
  I  I24  1  0.87996650  0.22395650  0.09430400  1
  I  I25  1  0.86835900  0.79742600  0.14872200  1
  I  I26  1  0.38148950  0.58000650  0.37483300  1
  I  I27  1  0.86979900  0.49589100  0.36221000  1
  I  I28  1  0.13020100  0.50410900  0.63779000  1
  I  I29  1  0.61851050  0.41999350  0.62516700  1
  I  I30  1  0.13164100  0.20257400  0.85127800  1
  I  I31  1  0.12003350  0.77604350  0.90569600  1
  I  I32  1  0.63020100  0.99589100  0.13779000  1
  I  I33  1  0.11851050  0.08000650  0.12516700  1
  I  I34  1  0.63164100  0.29742600  0.35127800  1
  I  I35  1  0.12003350  0.22395650  0.40569600  1
  I  I36  1  0.37996650  0.27604350  0.59430400  1
  I  I37  1  0.86835900  0.20257400  0.64872200  1
  I  I38  1  0.38148950  0.41999350  0.87483300  1
  I  I39  1  0.86979900  0.50410900  0.86221000  1
  I  I40  1  0.37996650  0.72395650  0.09430400  1
  I  I41  1  0.36835900  0.29742600  0.14872200  1
  I  I42  1  0.88148950  0.08000650  0.37483300  1
  I  I43  1  0.36979900  0.99589100  0.36221000  1
