# generated using pymatgen
data_LuAlO3
_symmetry_space_group_name_H-M   'P 1'
_cell_length_a   5.25564424
_cell_length_b   5.25564424
_cell_length_c   12.60346599
_cell_angle_alpha   90.00000000
_cell_angle_beta   90.00000000
_cell_angle_gamma   120.00000000
_symmetry_Int_Tables_number   1
_chemical_formula_structural   LuAlO3
_chemical_formula_sum   'Lu6 Al6 O18'
_cell_volume   301.48974533
_cell_formula_units_Z   6
loop_
 _symmetry_equiv_pos_site_id
 _symmetry_equiv_pos_as_xyz
  1  'x, y, z'
loop_
 _atom_site_type_symbol
 _atom_site_label
 _atom_site_symmetry_multiplicity
 _atom_site_fract_x
 _atom_site_fract_y
 _atom_site_fract_z
 _atom_site_occupancy
  Lu  Lu0  1  0.33333333  0.66666667  0.41666667  1
  Lu  Lu1  1  0.33333333  0.66666667  0.91666667  1
  Lu  Lu2  1  0.00000000  0.00000000  0.75000000  1
  Lu  Lu3  1  0.00000000  0.00000000  0.25000000  1
  Lu  Lu4  1  0.66666667  0.33333333  0.08333333  1
  Lu  Lu5  1  0.66666667  0.33333333  0.58333333  1
  Al  Al6  1  0.00000000  0.00000000  0.00000000  1
  Al  Al7  1  0.33333333  0.66666667  0.16666667  1
  Al  Al8  1  0.66666667  0.33333333  0.33333333  1
  Al  Al9  1  0.00000000  0.00000000  0.50000000  1
  Al  Al10  1  0.33333333  0.66666667  0.66666667  1
  Al  Al11  1  0.66666667  0.33333333  0.83333333  1
  O  O12  1  0.66666667  0.92016233  0.08333333  1
  O  O13  1  0.41317100  0.00000000  0.25000000  1
  O  O14  1  0.58682900  0.58682900  0.25000000  1
  O  O15  1  0.07983767  0.74650433  0.08333333  1
  O  O16  1  0.25349567  0.33333333  0.08333333  1
  O  O17  1  0.00000000  0.41317100  0.25000000  1
  O  O18  1  0.33333333  0.25349567  0.41666667  1
  O  O19  1  0.07983767  0.33333333  0.58333333  1
  O  O20  1  0.25349567  0.92016233  0.58333333  1
  O  O21  1  0.74650433  0.07983767  0.41666667  1
  O  O22  1  0.92016233  0.66666667  0.41666667  1
  O  O23  1  0.66666667  0.74650433  0.58333333  1
  O  O24  1  0.00000000  0.58682900  0.75000000  1
  O  O25  1  0.74650433  0.66666667  0.91666667  1
  O  O26  1  0.92016233  0.25349567  0.91666667  1
  O  O27  1  0.41317100  0.41317100  0.75000000  1
  O  O28  1  0.58682900  0.00000000  0.75000000  1
  O  O29  1  0.33333333  0.07983767  0.91666667  1
