# generated using pymatgen
data_Ba4Hf3O10
_symmetry_space_group_name_H-M   'P 1'
_cell_length_a   5.95459400
_cell_length_b   30.44162800
_cell_length_c   5.93499700
_cell_angle_alpha   90.00000000
_cell_angle_beta   90.00000000
_cell_angle_gamma   90.00000000
_symmetry_Int_Tables_number   1
_chemical_formula_structural   Ba4Hf3O10
_chemical_formula_sum   'Ba16 Hf12 O40'
_cell_volume   1075.82227903
_cell_formula_units_Z   4
loop_
 _symmetry_equiv_pos_site_id
 _symmetry_equiv_pos_as_xyz
  1  'x, y, z'
loop_
 _atom_site_type_symbol
 _atom_site_label
 _atom_site_symmetry_multiplicity
 _atom_site_fract_x
 _atom_site_fract_y
 _atom_site_fract_z
 _atom_site_occupancy
  Ba  Ba0  1  0.00000000  0.06880700  0.50000000  1
  Ba  Ba1  1  0.50000000  0.29634000  0.50000000  1
  Ba  Ba2  1  0.00000000  0.20366000  0.50000000  1
  Ba  Ba3  1  0.50000000  0.43119300  0.50000000  1
  Ba  Ba4  1  0.00000000  0.29634000  0.00000000  1
  Ba  Ba5  1  0.50000000  0.06880700  0.00000000  1
  Ba  Ba6  1  0.50000000  0.20366000  0.00000000  1
  Ba  Ba7  1  0.00000000  0.43119300  0.00000000  1
  Ba  Ba8  1  0.50000000  0.56880700  0.50000000  1
  Ba  Ba9  1  0.00000000  0.79634000  0.50000000  1
  Ba  Ba10  1  0.50000000  0.70366000  0.50000000  1
  Ba  Ba11  1  0.00000000  0.93119300  0.50000000  1
  Ba  Ba12  1  0.50000000  0.79634000  0.00000000  1
  Ba  Ba13  1  0.00000000  0.56880700  0.00000000  1
  Ba  Ba14  1  0.00000000  0.70366000  0.00000000  1
  Ba  Ba15  1  0.50000000  0.93119300  0.00000000  1
  Hf  Hf16  1  0.50000000  0.00000000  0.50000000  1
  Hf  Hf17  1  0.50000000  0.13910400  0.50000000  1
  Hf  Hf18  1  0.00000000  0.36089600  0.50000000  1
  Hf  Hf19  1  0.50000000  0.36089600  0.00000000  1
  Hf  Hf20  1  0.00000000  0.00000000  0.00000000  1
  Hf  Hf21  1  0.00000000  0.13910400  0.00000000  1
  Hf  Hf22  1  0.00000000  0.50000000  0.50000000  1
  Hf  Hf23  1  0.00000000  0.63910400  0.50000000  1
  Hf  Hf24  1  0.50000000  0.86089600  0.50000000  1
  Hf  Hf25  1  0.00000000  0.86089600  0.00000000  1
  Hf  Hf26  1  0.50000000  0.50000000  0.00000000  1
  Hf  Hf27  1  0.50000000  0.63910400  0.00000000  1
  O  O28  1  0.50000000  0.06909800  0.50000000  1
  O  O29  1  0.50000000  0.20764500  0.50000000  1
  O  O30  1  0.00000000  0.29235500  0.50000000  1
  O  O31  1  0.00000000  0.43090200  0.50000000  1
  O  O32  1  0.77032300  0.00000000  0.72956400  1
  O  O33  1  0.73922500  0.36163000  0.73917500  1
  O  O34  1  0.23922500  0.13837000  0.73917500  1
  O  O35  1  0.73922500  0.13837000  0.76082500  1
  O  O36  1  0.23922500  0.36163000  0.76082500  1
  O  O37  1  0.27032300  0.00000000  0.77043600  1
  O  O38  1  0.00000000  0.06909800  0.00000000  1
  O  O39  1  0.50000000  0.29235500  0.00000000  1
  O  O40  1  0.00000000  0.20764500  0.00000000  1
  O  O41  1  0.50000000  0.43090200  0.00000000  1
  O  O42  1  0.72967700  0.00000000  0.22956400  1
  O  O43  1  0.26077500  0.13837000  0.23917500  1
  O  O44  1  0.76077500  0.36163000  0.23917500  1
  O  O45  1  0.76077500  0.13837000  0.26082500  1
  O  O46  1  0.26077500  0.36163000  0.26082500  1
  O  O47  1  0.22967700  0.00000000  0.27043600  1
  O  O48  1  0.00000000  0.56909800  0.50000000  1
  O  O49  1  0.00000000  0.70764500  0.50000000  1
  O  O50  1  0.50000000  0.79235500  0.50000000  1
  O  O51  1  0.50000000  0.93090200  0.50000000  1
  O  O52  1  0.27032300  0.50000000  0.72956400  1
  O  O53  1  0.23922500  0.86163000  0.73917500  1
  O  O54  1  0.73922500  0.63837000  0.73917500  1
  O  O55  1  0.23922500  0.63837000  0.76082500  1
  O  O56  1  0.73922500  0.86163000  0.76082500  1
  O  O57  1  0.77032300  0.50000000  0.77043600  1
  O  O58  1  0.50000000  0.56909800  0.00000000  1
  O  O59  1  0.00000000  0.79235500  0.00000000  1
  O  O60  1  0.50000000  0.70764500  0.00000000  1
  O  O61  1  0.00000000  0.93090200  0.00000000  1
  O  O62  1  0.22967700  0.50000000  0.22956400  1
  O  O63  1  0.76077500  0.63837000  0.23917500  1
  O  O64  1  0.26077500  0.86163000  0.23917500  1
  O  O65  1  0.26077500  0.63837000  0.26082500  1
  O  O66  1  0.76077500  0.86163000  0.26082500  1
  O  O67  1  0.72967700  0.50000000  0.27043600  1
