# generated using pymatgen
data_Li3Mn(CoO3)2
_symmetry_space_group_name_H-M   'P 1'
_cell_length_a   12.47905857
_cell_length_b   3.04616146
_cell_length_c   6.03501288
_cell_angle_alpha   90.00000000
_cell_angle_beta   104.78279703
_cell_angle_gamma   90.00000000
_symmetry_Int_Tables_number   1
_chemical_formula_structural   Li3Mn(CoO3)2
_chemical_formula_sum   'Li6 Mn2 Co4 O12'
_cell_volume   221.81684430
_cell_formula_units_Z   2
loop_
 _symmetry_equiv_pos_site_id
 _symmetry_equiv_pos_as_xyz
  1  'x, y, z'
loop_
 _atom_site_type_symbol
 _atom_site_label
 _atom_site_symmetry_multiplicity
 _atom_site_fract_x
 _atom_site_fract_y
 _atom_site_fract_z
 _atom_site_occupancy
  Li  Li0  1  0.50000000  0.50000000  0.00000000  1
  Li  Li1  1  0.16878200  0.50000000  0.33054200  1
  Li  Li2  1  0.33121800  0.00000000  0.66945800  1
  Li  Li3  1  0.00000000  0.00000000  0.00000000  1
  Li  Li4  1  0.66878200  0.00000000  0.33054200  1
  Li  Li5  1  0.83121800  0.50000000  0.66945800  1
  Mn  Mn6  1  0.50000000  0.50000000  0.50000000  1
  Mn  Mn7  1  0.00000000  0.00000000  0.50000000  1
  Co  Co8  1  0.16693075  0.50000000  0.83666950  1
  Co  Co9  1  0.33306925  0.00000000  0.16333050  1
  Co  Co10  1  0.66693075  0.00000000  0.83666950  1
  Co  Co11  1  0.83306925  0.50000000  0.16333050  1
  O  O12  1  0.65885975  0.50000000  0.59181350  1
  O  O13  1  0.34114025  0.50000000  0.40818650  1
  O  O14  1  0.49226250  0.00000000  0.25670900  1
  O  O15  1  0.50773750  0.00000000  0.74329100  1
  O  O16  1  0.32670050  0.50000000  0.92074600  1
  O  O17  1  0.17329950  0.00000000  0.07925400  1
  O  O18  1  0.15885975  0.00000000  0.59181350  1
  O  O19  1  0.84114025  0.00000000  0.40818650  1
  O  O20  1  0.99226250  0.50000000  0.25670900  1
  O  O21  1  0.00773750  0.50000000  0.74329100  1
  O  O22  1  0.82670050  0.00000000  0.92074600  1
  O  O23  1  0.67329950  0.50000000  0.07925400  1
