# generated using pymatgen
data_Ca2Al11Si13Ag7O48
_symmetry_space_group_name_H-M   'P 1'
_cell_length_a   12.17338000
_cell_length_b   12.22018237
_cell_length_c   12.94690883
_cell_angle_alpha   90.13200379
_cell_angle_beta   90.57463543
_cell_angle_gamma   90.06293066
_symmetry_Int_Tables_number   1
_chemical_formula_structural   Ca2Al11Si13Ag7O48
_chemical_formula_sum   'Ca2 Al11 Si13 Ag7 O48'
_cell_volume   1925.89092987
_cell_formula_units_Z   1
loop_
 _symmetry_equiv_pos_site_id
 _symmetry_equiv_pos_as_xyz
  1  'x, y, z'
loop_
 _atom_site_type_symbol
 _atom_site_label
 _atom_site_symmetry_multiplicity
 _atom_site_fract_x
 _atom_site_fract_y
 _atom_site_fract_z
 _atom_site_occupancy
  Ca  Ca0  1  0.18628300  0.81963300  0.22664900  1
  Ca  Ca1  1  0.81548300  0.82119000  0.22281400  1
  Al  Al2  1  0.00000300  0.19505300  0.62657700  1
  Al  Al3  1  0.99933500  0.80426000  0.62555500  1
  Al  Al4  1  0.80358200  0.00149300  0.62517100  1
  Al  Al5  1  0.00327900  0.18963200  0.38050900  1
  Al  Al6  1  0.19920800  0.99845300  0.39030600  1
  Al  Al7  1  0.00227000  0.80436100  0.39189800  1
  Al  Al8  1  0.80491500  0.99932100  0.38586800  1
  Al  Al9  1  0.63739800  0.99825400  0.16720100  1
  Al  Al10  1  0.00020700  0.37000300  0.17479400  1
  Al  Al11  1  0.00094700  0.64111600  0.16805400  1
  Al  Al12  1  0.36238000  0.99825300  0.17013800  1
  Si  Si13  1  0.81121600  0.63132900  0.99486000  1
  Si  Si14  1  0.62961700  0.81394200  0.99294300  1
  Si  Si15  1  0.62506300  0.00117300  0.82103000  1
  Si  Si16  1  0.99959900  0.62971000  0.82679000  1
  Si  Si17  1  0.99944300  0.37235800  0.82427800  1
  Si  Si18  1  0.36667400  0.00153100  0.82224100  1
  Si  Si19  1  0.19222800  0.00156600  0.62825700  1
  Si  Si20  1  0.62962900  0.18534600  0.99693900  1
  Si  Si21  1  0.36716700  0.18443900  0.99815400  1
  Si  Si22  1  0.18636800  0.37039600  0.00203400  1
  Si  Si23  1  0.81395900  0.36926400  0.99570300  1
  Si  Si24  1  0.18971000  0.62957100  0.00076700  1
  Si  Si25  1  0.36671400  0.81509500  0.99450600  1
  Ag  Ag26  1  0.80378900  0.80991500  0.78806800  1
  Ag  Ag27  1  0.80385400  0.19098000  0.79138500  1
  Ag  Ag28  1  0.19138100  0.79937200  0.78845600  1
  Ag  Ag29  1  0.19172200  0.20176800  0.79180800  1
  Ag  Ag30  1  0.00151000  0.42342900  0.43044400  1
  Ag  Ag31  1  0.81502900  0.18566000  0.21264100  1
  Ag  Ag32  1  0.18655700  0.18623300  0.21596100  1
  O  O33  1  0.22094400  0.50007500  0.00475400  1
  O  O34  1  0.69944600  0.29944500  0.98245700  1
  O  O35  1  0.30297300  0.69802300  0.97811600  1
  O  O36  1  0.49776900  0.78901900  0.99724000  1
  O  O37  1  0.69521000  0.69752800  0.97737500  1
  O  O38  1  0.65331000  0.11068300  0.89278200  1
  O  O39  1  0.10877600  0.65275300  0.90107900  1
  O  O40  1  0.33774200  0.11155700  0.89168100  1
  O  O41  1  0.10947000  0.34760200  0.89763400  1
  O  O42  1  0.88759300  0.65949700  0.89320800  1
  O  O43  1  0.65148300  0.88799100  0.88868800  1
  O  O44  1  0.88680100  0.34227800  0.89006400  1
  O  O45  1  0.33887200  0.88884600  0.88902500  1
  O  O46  1  0.99543900  0.50126900  0.79612000  1
  O  O47  1  0.49441300  0.00236700  0.79283800  1
  O  O48  1  0.01076300  0.30058500  0.72251700  1
  O  O49  1  0.69868900  0.00307500  0.72227400  1
  O  O50  1  0.01154200  0.70722800  0.72974500  1
  O  O51  1  0.29073500  0.00285100  0.72086500  1
  O  O52  1  0.12106600  0.11355200  0.65248000  1
  O  O53  1  0.88344200  0.11942900  0.65755300  1
  O  O54  1  0.11988100  0.89034600  0.65132300  1
  O  O55  1  0.88421700  0.88399000  0.65696900  1
  O  O56  1  0.00273200  0.25333500  0.50412500  1
  O  O57  1  0.74520500  0.00478200  0.50473200  1
  O  O58  1  0.00173400  0.73647500  0.50875800  1
  O  O59  1  0.25029200  0.00364800  0.51831600  1
  O  O60  1  0.12531900  0.11697900  0.36156900  1
  O  O61  1  0.88496000  0.11426500  0.35340700  1
  O  O62  1  0.12594800  0.87545100  0.37664800  1
  O  O63  1  0.88173500  0.87755400  0.37105100  1
  O  O64  1  0.72663500  0.97747200  0.26896000  1
  O  O65  1  0.00353900  0.29879000  0.28975400  1
  O  O66  1  0.00317400  0.74060500  0.26351700  1
  O  O67  1  0.27944200  0.97785600  0.27618200  1
  O  O68  1  0.99884700  0.50736900  0.19876100  1
  O  O69  1  0.49988600  0.99544500  0.17878500  1
  O  O70  1  0.67399900  0.12018400  0.09728900  1
  O  O71  1  0.32346400  0.11827400  0.09745000  1
  O  O72  1  0.12169600  0.33251700  0.10337000  1
  O  O73  1  0.88168800  0.33210900  0.09722000  1
  O  O74  1  0.12959100  0.67582600  0.10352700  1
  O  O75  1  0.87498200  0.67695800  0.09767300  1
  O  O76  1  0.31882600  0.87514400  0.09600000  1
  O  O77  1  0.67824100  0.87470800  0.09432900  1
  O  O78  1  0.49803300  0.21379400  0.99856500  1
  O  O79  1  0.29859900  0.29896200  0.98504700  1
  O  O80  1  0.78433500  0.50041200  0.99558100  1
