# generated using pymatgen
data_Li4MnNi5O12
_symmetry_space_group_name_H-M   'P 1'
_cell_length_a   5.04849200
_cell_length_b   8.48915600
_cell_length_c   10.00516710
_cell_angle_alpha   90.00000000
_cell_angle_beta   91.90197047
_cell_angle_gamma   90.00000000
_symmetry_Int_Tables_number   1
_chemical_formula_structural   Li4MnNi5O12
_chemical_formula_sum   'Li8 Mn2 Ni10 O24'
_cell_volume   428.55957571
_cell_formula_units_Z   2
loop_
 _symmetry_equiv_pos_site_id
 _symmetry_equiv_pos_as_xyz
  1  'x, y, z'
loop_
 _atom_site_type_symbol
 _atom_site_label
 _atom_site_symmetry_multiplicity
 _atom_site_fract_x
 _atom_site_fract_y
 _atom_site_fract_z
 _atom_site_occupancy
  Li  Li0  1  0.39519350  0.74648950  0.24974600  1
  Li  Li1  1  0.60480650  0.74648950  0.75025400  1
  Li  Li2  1  0.39653600  0.25393500  0.24902000  1
  Li  Li3  1  0.60346400  0.25393500  0.75098000  1
  Li  Li4  1  0.89519350  0.24648950  0.24974600  1
  Li  Li5  1  0.10480650  0.24648950  0.75025400  1
  Li  Li6  1  0.89653600  0.75393500  0.24902000  1
  Li  Li7  1  0.10346400  0.75393500  0.75098000  1
  Mn  Mn8  1  0.50000000  0.50015400  0.00000000  1
  Mn  Mn9  1  0.00000000  0.00015400  0.00000000  1
  Ni  Ni10  1  0.50000000  0.66265400  0.50000000  1
  Ni  Ni11  1  0.50000000  0.16538800  0.00000000  1
  Ni  Ni12  1  0.50000000  0.83514500  0.00000000  1
  Ni  Ni13  1  0.50000000  0.33331500  0.50000000  1
  Ni  Ni14  1  0.50000000  0.00105200  0.50000000  1
  Ni  Ni15  1  0.00000000  0.16265400  0.50000000  1
  Ni  Ni16  1  0.00000000  0.66538800  0.00000000  1
  Ni  Ni17  1  0.00000000  0.33514500  0.00000000  1
  Ni  Ni18  1  0.00000000  0.83331500  0.50000000  1
  Ni  Ni19  1  0.00000000  0.50105200  0.50000000  1
  O  O20  1  0.35413650  0.67036950  0.89209200  1
  O  O21  1  0.64586350  0.67036950  0.10790800  1
  O  O22  1  0.33003850  0.82358550  0.60166800  1
  O  O23  1  0.35622600  0.17972600  0.60825500  1
  O  O24  1  0.66996150  0.82358550  0.39833200  1
  O  O25  1  0.16493250  0.99741750  0.40592800  1
  O  O26  1  0.64377400  0.17972600  0.39174500  1
  O  O27  1  0.35374000  0.33030000  0.89250700  1
  O  O28  1  0.32666000  0.00022200  0.90324100  1
  O  O29  1  0.64626000  0.33030000  0.10749300  1
  O  O30  1  0.67334000  0.00022200  0.09675900  1
  O  O31  1  0.83506750  0.99741750  0.59407200  1
  O  O32  1  0.85413650  0.17036950  0.89209200  1
  O  O33  1  0.14586350  0.17036950  0.10790800  1
  O  O34  1  0.83003850  0.32358550  0.60166800  1
  O  O35  1  0.85622600  0.67972600  0.60825500  1
  O  O36  1  0.16996150  0.32358550  0.39833200  1
  O  O37  1  0.66493250  0.49741750  0.40592800  1
  O  O38  1  0.14377400  0.67972600  0.39174500  1
  O  O39  1  0.85374000  0.83030000  0.89250700  1
  O  O40  1  0.82666000  0.50022200  0.90324100  1
  O  O41  1  0.14626000  0.83030000  0.10749300  1
  O  O42  1  0.17334000  0.50022200  0.09675900  1
  O  O43  1  0.33506750  0.49741750  0.59407200  1
