# generated using pymatgen
data_ZnP2H6O5
_symmetry_space_group_name_H-M   'P 1'
_cell_length_a   7.81772200
_cell_length_b   7.50053400
_cell_length_c   10.58903252
_cell_angle_alpha   90.00000000
_cell_angle_beta   104.31843548
_cell_angle_gamma   90.00000000
_symmetry_Int_Tables_number   1
_chemical_formula_structural   ZnP2H6O5
_chemical_formula_sum   'Zn4 P8 H24 O20'
_cell_volume   601.62222775
_cell_formula_units_Z   4
loop_
 _symmetry_equiv_pos_site_id
 _symmetry_equiv_pos_as_xyz
  1  'x, y, z'
loop_
 _atom_site_type_symbol
 _atom_site_label
 _atom_site_symmetry_multiplicity
 _atom_site_fract_x
 _atom_site_fract_y
 _atom_site_fract_z
 _atom_site_occupancy
  Zn  Zn0  1  0.19375900  0.46062400  0.60317600  1
  Zn  Zn1  1  0.80624100  0.96062400  0.89682400  1
  Zn  Zn2  1  0.80624100  0.53937600  0.39682400  1
  Zn  Zn3  1  0.19375900  0.03937600  0.10317600  1
  P  P4  1  0.46871400  0.12385600  0.68742500  1
  P  P5  1  0.53128600  0.62385600  0.81257500  1
  P  P6  1  0.53128600  0.87614400  0.31257500  1
  P  P7  1  0.46871400  0.37614400  0.18742500  1
  P  P8  1  0.03851300  0.31406700  0.84530300  1
  P  P9  1  0.96148700  0.81406700  0.65469700  1
  P  P10  1  0.96148700  0.68593300  0.15469700  1
  P  P11  1  0.03851300  0.18593300  0.34530300  1
  H  H12  1  0.40623700  0.65731100  0.46531200  1
  H  H13  1  0.59376300  0.15731100  0.03468800  1
  H  H14  1  0.59376300  0.34268900  0.53468800  1
  H  H15  1  0.40623700  0.84268900  0.96531200  1
  H  H16  1  0.20234100  0.68096700  0.40329500  1
  H  H17  1  0.79765900  0.18096700  0.09670500  1
  H  H18  1  0.79765900  0.31903300  0.59670500  1
  H  H19  1  0.20234100  0.81903300  0.90329500  1
  H  H20  1  0.39303800  0.97747800  0.60757000  1
  H  H21  1  0.60696200  0.47747800  0.89243000  1
  H  H22  1  0.60696200  0.02252200  0.39243000  1
  H  H23  1  0.39303800  0.52252200  0.10757000  1
  H  H24  1  0.38999500  0.11637000  0.79406600  1
  H  H25  1  0.61000500  0.61637000  0.70593400  1
  H  H26  1  0.61000500  0.88363000  0.20593400  1
  H  H27  1  0.38999500  0.38363000  0.29406600  1
  H  H28  1  0.88159800  0.41337700  0.83461600  1
  H  H29  1  0.11840200  0.91337700  0.66538400  1
  H  H30  1  0.11840200  0.58662300  0.16538400  1
  H  H31  1  0.88159800  0.08662300  0.33461600  1
  H  H32  1  0.17258900  0.42389600  0.92016000  1
  H  H33  1  0.82741100  0.92389600  0.57984000  1
  H  H34  1  0.82741100  0.57610400  0.07984000  1
  H  H35  1  0.17258900  0.07610400  0.42016000  1
  O  O36  1  0.41210700  0.29635600  0.60918200  1
  O  O37  1  0.58789300  0.79635600  0.89081800  1
  O  O38  1  0.58789300  0.70364400  0.39081800  1
  O  O39  1  0.41210700  0.20364400  0.10918200  1
  O  O40  1  0.66800500  0.09992000  0.73350400  1
  O  O41  1  0.33199500  0.59992000  0.76649600  1
  O  O42  1  0.33199500  0.90008000  0.26649600  1
  O  O43  1  0.66800500  0.40008000  0.23350400  1
  O  O44  1  0.06728500  0.28650400  0.70867300  1
  O  O45  1  0.93271500  0.78650400  0.79132700  1
  O  O46  1  0.93271500  0.71349600  0.29132700  1
  O  O47  1  0.06728500  0.21349600  0.20867300  1
  O  O48  1  0.02850100  0.14421700  0.92455600  1
  O  O49  1  0.97149900  0.64421700  0.57544400  1
  O  O50  1  0.97149900  0.85578300  0.07544400  1
  O  O51  1  0.02850100  0.35578300  0.42455600  1
  O  O52  1  0.28861300  0.64860100  0.48441700  1
  O  O53  1  0.71138700  0.14860100  0.01558300  1
  O  O54  1  0.71138700  0.35139900  0.51558300  1
  O  O55  1  0.28861300  0.85139900  0.98441700  1
