# generated using pymatgen
data_Gd2AsO5
_symmetry_space_group_name_H-M   'P 1'
_cell_length_a   8.49649300
_cell_length_b   8.49649300
_cell_length_c   5.84241600
_cell_angle_alpha   90.00000000
_cell_angle_beta   90.00000000
_cell_angle_gamma   90.00000000
_symmetry_Int_Tables_number   1
_chemical_formula_structural   Gd2AsO5
_chemical_formula_sum   'Gd8 As4 O20'
_cell_volume   421.76630886
_cell_formula_units_Z   4
loop_
 _symmetry_equiv_pos_site_id
 _symmetry_equiv_pos_as_xyz
  1  'x, y, z'
loop_
 _atom_site_type_symbol
 _atom_site_label
 _atom_site_symmetry_multiplicity
 _atom_site_fract_x
 _atom_site_fract_y
 _atom_site_fract_z
 _atom_site_occupancy
  Gd  Gd0  1  0.34861700  0.35802600  0.24878700  1
  Gd  Gd1  1  0.35802600  0.65138300  0.75121300  1
  Gd  Gd2  1  0.64197400  0.34861700  0.75121300  1
  Gd  Gd3  1  0.65138300  0.64197400  0.24878700  1
  Gd  Gd4  1  0.84861700  0.85802600  0.75121300  1
  Gd  Gd5  1  0.85802600  0.15138300  0.24878700  1
  Gd  Gd6  1  0.14197400  0.84861700  0.24878700  1
  Gd  Gd7  1  0.15138300  0.14197400  0.75121300  1
  As  As8  1  0.50000000  0.00000000  0.54410800  1
  As  As9  1  0.50000000  0.00000000  0.13970000  1
  As  As10  1  0.00000000  0.50000000  0.45589200  1
  As  As11  1  0.00000000  0.50000000  0.86030000  1
  O  O12  1  0.30578400  0.91356200  0.60577700  1
  O  O13  1  0.30541800  0.08868300  0.09905800  1
  O  O14  1  0.41131700  0.80541800  0.09905800  1
  O  O15  1  0.41356200  0.19421600  0.60577700  1
  O  O16  1  0.50000000  0.50000000  0.50000000  1
  O  O17  1  0.50000000  0.50000000  0.00000000  1
  O  O18  1  0.58643800  0.80578400  0.60577700  1
  O  O19  1  0.58868300  0.19458200  0.09905800  1
  O  O20  1  0.69458200  0.91131700  0.09905800  1
  O  O21  1  0.69421600  0.08643800  0.60577700  1
  O  O22  1  0.80578400  0.41356200  0.39422300  1
  O  O23  1  0.80541800  0.58868300  0.90094200  1
  O  O24  1  0.91131700  0.30541800  0.90094200  1
  O  O25  1  0.91356200  0.69421600  0.39422300  1
  O  O26  1  0.00000000  0.00000000  0.50000000  1
  O  O27  1  0.00000000  0.00000000  0.00000000  1
  O  O28  1  0.08643800  0.30578400  0.39422300  1
  O  O29  1  0.08868300  0.69458200  0.90094200  1
  O  O30  1  0.19458200  0.41131700  0.90094200  1
  O  O31  1  0.19421600  0.58643800  0.39422300  1
