# generated using pymatgen
data_Ga2P3H12(NO4)3
_symmetry_space_group_name_H-M   'P 1'
_cell_length_a   13.43082400
_cell_length_b   10.36780200
_cell_length_c   9.17572115
_cell_angle_alpha   90.00000000
_cell_angle_beta   110.73487129
_cell_angle_gamma   90.00000000
_symmetry_Int_Tables_number   1
_chemical_formula_structural   Ga2P3H12(NO4)3
_chemical_formula_sum   'Ga8 P12 H48 N12 O48'
_cell_volume   1194.94357219
_cell_formula_units_Z   4
loop_
 _symmetry_equiv_pos_site_id
 _symmetry_equiv_pos_as_xyz
  1  'x, y, z'
loop_
 _atom_site_type_symbol
 _atom_site_label
 _atom_site_symmetry_multiplicity
 _atom_site_fract_x
 _atom_site_fract_y
 _atom_site_fract_z
 _atom_site_occupancy
  Ga  Ga0  1  0.16742100  0.42381100  0.57887100  1
  Ga  Ga1  1  0.16742100  0.57618900  0.07887100  1
  Ga  Ga2  1  0.83257900  0.42381100  0.92112900  1
  Ga  Ga3  1  0.83257900  0.57618900  0.42112900  1
  Ga  Ga4  1  0.66742100  0.92381100  0.57887100  1
  Ga  Ga5  1  0.66742100  0.07618900  0.07887100  1
  Ga  Ga6  1  0.33257900  0.92381100  0.92112900  1
  Ga  Ga7  1  0.33257900  0.07618900  0.42112900  1
  P  P8  1  0.29430250  0.62451550  0.83901800  1
  P  P9  1  0.29430250  0.37548450  0.33901800  1
  P  P10  1  0.00000000  0.49696800  0.75000000  1
  P  P11  1  0.00000000  0.50303200  0.25000000  1
  P  P12  1  0.70569750  0.62451550  0.66098200  1
  P  P13  1  0.70569750  0.37548450  0.16098200  1
  P  P14  1  0.79430250  0.12451550  0.83901800  1
  P  P15  1  0.79430250  0.87548450  0.33901800  1
  P  P16  1  0.50000000  0.99696800  0.75000000  1
  P  P17  1  0.50000000  0.00303200  0.25000000  1
  P  P18  1  0.20569750  0.12451550  0.66098200  1
  P  P19  1  0.20569750  0.87548450  0.16098200  1
  H  H20  1  0.33914050  0.62444850  0.52199200  1
  H  H21  1  0.33914050  0.37555150  0.02199200  1
  H  H22  1  0.13820150  0.73934250  0.56472800  1
  H  H23  1  0.11470450  0.26214150  0.87309800  1
  H  H24  1  0.13820150  0.26065750  0.06472800  1
  H  H25  1  0.03134500  0.96052200  0.68607400  1
  H  H26  1  0.06011600  0.84125100  0.82103800  1
  H  H27  1  0.96734800  0.17443900  0.56455100  1
  H  H28  1  0.03265200  0.17443900  0.93544900  1
  H  H29  1  0.93988400  0.84125100  0.67896200  1
  H  H30  1  0.11470450  0.73785850  0.37309800  1
  H  H31  1  0.96865500  0.96052200  0.81392600  1
  H  H32  1  0.03134500  0.03947800  0.18607400  1
  H  H33  1  0.88529550  0.26214150  0.62690200  1
  H  H34  1  0.06011600  0.15874900  0.32103800  1
  H  H35  1  0.96734800  0.82556100  0.06455100  1
  H  H36  1  0.03265200  0.82556100  0.43544900  1
  H  H37  1  0.93988400  0.15874900  0.17896200  1
  H  H38  1  0.96865500  0.03947800  0.31392600  1
  H  H39  1  0.86179850  0.73934250  0.93527200  1
  H  H40  1  0.88529550  0.73785850  0.12690200  1
  H  H41  1  0.86179850  0.26065750  0.43527200  1
  H  H42  1  0.66085950  0.62444850  0.97800800  1
  H  H43  1  0.66085950  0.37555150  0.47800800  1
  H  H44  1  0.83914050  0.12444850  0.52199200  1
  H  H45  1  0.83914050  0.87555150  0.02199200  1
  H  H46  1  0.63820150  0.23934250  0.56472800  1
  H  H47  1  0.61470450  0.76214150  0.87309800  1
  H  H48  1  0.63820150  0.76065750  0.06472800  1
  H  H49  1  0.53134500  0.46052200  0.68607400  1
  H  H50  1  0.56011600  0.34125100  0.82103800  1
  H  H51  1  0.46734800  0.67443900  0.56455100  1
  H  H52  1  0.53265200  0.67443900  0.93544900  1
  H  H53  1  0.43988400  0.34125100  0.67896200  1
  H  H54  1  0.61470450  0.23785850  0.37309800  1
  H  H55  1  0.46865500  0.46052200  0.81392600  1
  H  H56  1  0.53134500  0.53947800  0.18607400  1
  H  H57  1  0.38529550  0.76214150  0.62690200  1
  H  H58  1  0.56011600  0.65874900  0.32103800  1
  H  H59  1  0.46734800  0.32556100  0.06455100  1
  H  H60  1  0.53265200  0.32556100  0.43544900  1
  H  H61  1  0.43988400  0.65874900  0.17896200  1
  H  H62  1  0.46865500  0.53947800  0.31392600  1
  H  H63  1  0.36179850  0.23934250  0.93527200  1
  H  H64  1  0.38529550  0.23785850  0.12690200  1
  H  H65  1  0.36179850  0.76065750  0.43527200  1
  H  H66  1  0.16085950  0.12444850  0.97800800  1
  H  H67  1  0.16085950  0.87555150  0.47800800  1
  N  N68  1  0.11228550  0.20509950  0.96467900  1
  N  N69  1  0.00000000  0.89795100  0.75000000  1
  N  N70  1  0.88771450  0.20509950  0.53532100  1
  N  N71  1  0.11228550  0.79490050  0.46467900  1
  N  N72  1  0.00000000  0.10204900  0.25000000  1
  N  N73  1  0.88771450  0.79490050  0.03532100  1
  N  N74  1  0.61228550  0.70509950  0.96467900  1
  N  N75  1  0.50000000  0.39795100  0.75000000  1
  N  N76  1  0.38771450  0.70509950  0.53532100  1
  N  N77  1  0.61228550  0.29490050  0.46467900  1
  N  N78  1  0.50000000  0.60204900  0.25000000  1
  N  N79  1  0.38771450  0.29490050  0.03532100  1
  O  O80  1  0.23658650  0.26962850  0.66020300  1
  O  O81  1  0.21770050  0.58405550  0.67228700  1
  O  O82  1  0.27080800  0.54831900  0.96858300  1
  O  O83  1  0.23658650  0.73037150  0.16020300  1
  O  O84  1  0.08926050  0.10173050  0.64174800  1
  O  O85  1  0.21770050  0.41594450  0.17228700  1
  O  O86  1  0.27080800  0.45168100  0.46858300  1
  O  O87  1  0.08113300  0.40594500  0.71726100  1
  O  O88  1  0.05027200  0.58969900  0.89103000  1
  O  O89  1  0.08926050  0.89826950  0.14174800  1
  O  O90  1  0.94972800  0.58969900  0.60897000  1
  O  O91  1  0.08113300  0.59405500  0.21726100  1
  O  O92  1  0.91886700  0.40594500  0.78273900  1
  O  O93  1  0.05027200  0.41030100  0.39103000  1
  O  O94  1  0.91073950  0.10173050  0.85825200  1
  O  O95  1  0.94972800  0.41030100  0.10897000  1
  O  O96  1  0.91886700  0.59405500  0.28273900  1
  O  O97  1  0.72919200  0.54831900  0.53141700  1
  O  O98  1  0.78229950  0.58405550  0.82771300  1
  O  O99  1  0.91073950  0.89826950  0.35825200  1
  O  O100  1  0.76341350  0.26962850  0.83979700  1
  O  O101  1  0.72919200  0.45168100  0.03141700  1
  O  O102  1  0.78229950  0.41594450  0.32771300  1
  O  O103  1  0.76341350  0.73037150  0.33979700  1
  O  O104  1  0.73658650  0.76962850  0.66020300  1
  O  O105  1  0.71770050  0.08405550  0.67228700  1
  O  O106  1  0.77080800  0.04831900  0.96858300  1
  O  O107  1  0.73658650  0.23037150  0.16020300  1
  O  O108  1  0.58926050  0.60173050  0.64174800  1
  O  O109  1  0.71770050  0.91594450  0.17228700  1
  O  O110  1  0.77080800  0.95168100  0.46858300  1
  O  O111  1  0.58113300  0.90594500  0.71726100  1
  O  O112  1  0.55027200  0.08969900  0.89103000  1
  O  O113  1  0.58926050  0.39826950  0.14174800  1
  O  O114  1  0.44972800  0.08969900  0.60897000  1
  O  O115  1  0.58113300  0.09405500  0.21726100  1
  O  O116  1  0.41886700  0.90594500  0.78273900  1
  O  O117  1  0.55027200  0.91030100  0.39103000  1
  O  O118  1  0.41073950  0.60173050  0.85825200  1
  O  O119  1  0.44972800  0.91030100  0.10897000  1
  O  O120  1  0.41886700  0.09405500  0.28273900  1
  O  O121  1  0.22919200  0.04831900  0.53141700  1
  O  O122  1  0.28229950  0.08405550  0.82771300  1
  O  O123  1  0.41073950  0.39826950  0.35825200  1
  O  O124  1  0.26341350  0.76962850  0.83979700  1
  O  O125  1  0.22919200  0.95168100  0.03141700  1
  O  O126  1  0.28229950  0.91594450  0.32771300  1
  O  O127  1  0.26341350  0.23037150  0.33979700  1
