# generated using pymatgen
data_Ga4SiO8
_symmetry_space_group_name_H-M   'P 1'
_cell_length_a   12.44950600
_cell_length_b   2.98249200
_cell_length_c   9.40821080
_cell_angle_alpha   90.00000000
_cell_angle_beta   126.11084274
_cell_angle_gamma   90.00000000
_symmetry_Int_Tables_number   1
_chemical_formula_structural   Ga4SiO8
_chemical_formula_sum   'Ga8 Si2 O16'
_cell_volume   282.21781565
_cell_formula_units_Z   2
loop_
 _symmetry_equiv_pos_site_id
 _symmetry_equiv_pos_as_xyz
  1  'x, y, z'
loop_
 _atom_site_type_symbol
 _atom_site_label
 _atom_site_symmetry_multiplicity
 _atom_site_fract_x
 _atom_site_fract_y
 _atom_site_fract_z
 _atom_site_occupancy
  Ga  Ga0  1  0.24482400  0.00000000  0.64429700  1
  Ga  Ga1  1  0.03871800  0.50000000  0.72168500  1
  Ga  Ga2  1  0.96128200  0.50000000  0.27831500  1
  Ga  Ga3  1  0.75517600  0.00000000  0.35570300  1
  Ga  Ga4  1  0.74482400  0.50000000  0.64429700  1
  Ga  Ga5  1  0.53871800  0.00000000  0.72168500  1
  Ga  Ga6  1  0.46128200  0.00000000  0.27831500  1
  Ga  Ga7  1  0.25517600  0.50000000  0.35570300  1
  Si  Si8  1  0.00000000  0.00000000  0.00000000  1
  Si  Si9  1  0.50000000  0.50000000  0.00000000  1
  O  O10  1  0.11449900  0.00000000  0.70127700  1
  O  O11  1  0.65186300  0.50000000  0.20587400  1
  O  O12  1  0.85379200  0.50000000  0.53694200  1
  O  O13  1  0.05508100  0.50000000  0.93156600  1
  O  O14  1  0.94491900  0.50000000  0.06843400  1
  O  O15  1  0.14620800  0.50000000  0.46305800  1
  O  O16  1  0.34813700  0.50000000  0.79412600  1
  O  O17  1  0.88550100  0.00000000  0.29872300  1
  O  O18  1  0.61449900  0.50000000  0.70127700  1
  O  O19  1  0.15186300  0.00000000  0.20587400  1
  O  O20  1  0.35379200  0.00000000  0.53694200  1
  O  O21  1  0.55508100  0.00000000  0.93156600  1
  O  O22  1  0.44491900  0.00000000  0.06843400  1
  O  O23  1  0.64620800  0.00000000  0.46305800  1
  O  O24  1  0.84813700  0.00000000  0.79412600  1
  O  O25  1  0.38550100  0.50000000  0.29872300  1
