# generated using pymatgen
data_CaAl2Si3H6O13
_symmetry_space_group_name_H-M   'P 1'
_cell_length_a   6.57386000
_cell_length_b   19.17949800
_cell_length_c   9.90454824
_cell_angle_alpha   90.00000000
_cell_angle_beta   109.18400971
_cell_angle_gamma   90.00000000
_symmetry_Int_Tables_number   1
_chemical_formula_structural   CaAl2Si3H6O13
_chemical_formula_sum   'Ca4 Al8 Si12 H24 O52'
_cell_volume   1179.45033716
_cell_formula_units_Z   4
loop_
 _symmetry_equiv_pos_site_id
 _symmetry_equiv_pos_as_xyz
  1  'x, y, z'
loop_
 _atom_site_type_symbol
 _atom_site_label
 _atom_site_symmetry_multiplicity
 _atom_site_fract_x
 _atom_site_fract_y
 _atom_site_fract_z
 _atom_site_occupancy
  Ca  Ca0  1  0.73524150  0.10691350  0.94790600  1
  Ca  Ca1  1  0.23524150  0.39308650  0.44790600  1
  Ca  Ca2  1  0.23524150  0.60691350  0.94790600  1
  Ca  Ca3  1  0.73524150  0.89308650  0.44790600  1
  Al  Al4  1  0.54903500  0.03357400  0.56659500  1
  Al  Al5  1  0.04903500  0.46642600  0.06659500  1
  Al  Al6  1  0.46095800  0.21146000  0.39994800  1
  Al  Al7  1  0.96095800  0.28854000  0.89994800  1
  Al  Al8  1  0.04903500  0.53357400  0.56659500  1
  Al  Al9  1  0.54903500  0.96642600  0.06659500  1
  Al  Al10  1  0.96095800  0.71146000  0.39994800  1
  Al  Al11  1  0.46095800  0.78854000  0.89994800  1
  Si  Si12  1  0.12761550  0.12085150  0.50260500  1
  Si  Si13  1  0.62761550  0.37914850  0.00260500  1
  Si  Si14  1  0.15522950  0.41837850  0.80077000  1
  Si  Si15  1  0.65522950  0.08162150  0.30077000  1
  Si  Si16  1  0.33501800  0.33225700  0.16866800  1
  Si  Si17  1  0.83501800  0.16774300  0.66866800  1
  Si  Si18  1  0.62761550  0.62085150  0.50260500  1
  Si  Si19  1  0.12761550  0.87914850  0.00260500  1
  Si  Si20  1  0.65522950  0.91837850  0.80077000  1
  Si  Si21  1  0.15522950  0.58162150  0.30077000  1
  Si  Si22  1  0.83501800  0.83225700  0.16866800  1
  Si  Si23  1  0.33501800  0.66774300  0.66866800  1
  H  H24  1  0.65909150  0.47071650  0.55092100  1
  H  H25  1  0.15909150  0.02928350  0.05092100  1
  H  H26  1  0.70819350  0.39644250  0.62539100  1
  H  H27  1  0.20819350  0.10355750  0.12539100  1
  H  H28  1  0.77690900  0.34225400  0.30884700  1
  H  H29  1  0.27690900  0.15774600  0.80884700  1
  H  H30  1  0.86344000  0.30094900  0.45470600  1
  H  H31  1  0.36344000  0.19905100  0.95470600  1
  H  H32  1  0.39420750  0.30943850  0.72439400  1
  H  H33  1  0.89420750  0.19056150  0.22439400  1
  H  H34  1  0.29903400  0.25579200  0.59230200  1
  H  H35  1  0.79903400  0.24420800  0.09230200  1
  H  H36  1  0.15909150  0.97071650  0.55092100  1
  H  H37  1  0.65909150  0.52928350  0.05092100  1
  H  H38  1  0.20819350  0.89644250  0.62539100  1
  H  H39  1  0.70819350  0.60355750  0.12539100  1
  H  H40  1  0.27690900  0.84225400  0.30884700  1
  H  H41  1  0.77690900  0.65774600  0.80884700  1
  H  H42  1  0.36344000  0.80094900  0.45470600  1
  H  H43  1  0.86344000  0.69905100  0.95470600  1
  H  H44  1  0.89420750  0.80943850  0.72439400  1
  H  H45  1  0.39420750  0.69056150  0.22439400  1
  H  H46  1  0.79903400  0.75579200  0.59230200  1
  H  H47  1  0.29903400  0.74420800  0.09230200  1
  O  O48  1  0.27177150  0.04968050  0.53093300  1
  O  O49  1  0.77177150  0.45031950  0.03093300  1
  O  O50  1  0.25982150  0.18722350  0.47328300  1
  O  O51  1  0.75982150  0.31277650  0.97328300  1
  O  O52  1  0.12418700  0.45109100  0.64341600  1
  O  O53  1  0.62418700  0.04890900  0.14341600  1
  O  O54  1  0.39674000  0.29481200  0.32411000  1
  O  O55  1  0.89674000  0.20518800  0.82411000  1
  O  O56  1  0.69279600  0.09963800  0.68438500  1
  O  O57  1  0.19279600  0.40036200  0.18438500  1
  O  O58  1  0.48118450  0.14437350  0.28377600  1
  O  O59  1  0.98118450  0.35562650  0.78377600  1
  O  O60  1  0.12451700  0.47899000  0.91112000  1
  O  O61  1  0.62451700  0.02101000  0.41112000  1
  O  O62  1  0.21301250  0.28152150  0.03618100  1
  O  O63  1  0.71301250  0.21847850  0.53618100  1
  O  O64  1  0.40532500  0.38881900  0.86638700  1
  O  O65  1  0.90532500  0.11118100  0.36638700  1
  O  O66  1  0.56207450  0.36110150  0.14713100  1
  O  O67  1  0.06207450  0.13889850  0.64713100  1
  O  O68  1  0.59404900  0.42472900  0.55924400  1
  O  O69  1  0.09404900  0.07527100  0.05924400  1
  O  O70  1  0.90864000  0.33054700  0.38885200  1
  O  O71  1  0.40864000  0.16945300  0.88885200  1
  O  O72  1  0.32657900  0.30534500  0.62115800  1
  O  O73  1  0.82657900  0.19465500  0.12115800  1
  O  O74  1  0.77177150  0.54968050  0.53093300  1
  O  O75  1  0.27177150  0.95031950  0.03093300  1
  O  O76  1  0.75982150  0.68722350  0.47328300  1
  O  O77  1  0.25982150  0.81277650  0.97328300  1
  O  O78  1  0.62418700  0.95109100  0.64341600  1
  O  O79  1  0.12418700  0.54890900  0.14341600  1
  O  O80  1  0.89674000  0.79481200  0.32411000  1
  O  O81  1  0.39674000  0.70518800  0.82411000  1
  O  O82  1  0.19279600  0.59963800  0.68438500  1
  O  O83  1  0.69279600  0.90036200  0.18438500  1
  O  O84  1  0.98118450  0.64437350  0.28377600  1
  O  O85  1  0.48118450  0.85562650  0.78377600  1
  O  O86  1  0.62451700  0.97899000  0.91112000  1
  O  O87  1  0.12451700  0.52101000  0.41112000  1
  O  O88  1  0.71301250  0.78152150  0.03618100  1
  O  O89  1  0.21301250  0.71847850  0.53618100  1
  O  O90  1  0.90532500  0.88881900  0.86638700  1
  O  O91  1  0.40532500  0.61118100  0.36638700  1
  O  O92  1  0.06207450  0.86110150  0.14713100  1
  O  O93  1  0.56207450  0.63889850  0.64713100  1
  O  O94  1  0.09404900  0.92472900  0.55924400  1
  O  O95  1  0.59404900  0.57527100  0.05924400  1
  O  O96  1  0.40864000  0.83054700  0.38885200  1
  O  O97  1  0.90864000  0.66945300  0.88885200  1
  O  O98  1  0.82657900  0.80534500  0.62115800  1
  O  O99  1  0.32657900  0.69465500  0.12115800  1
