# generated using pymatgen
data_Li6Fe(OF)3
_symmetry_space_group_name_H-M   'P 1'
_cell_length_a   8.27640588
_cell_length_b   8.27640588
_cell_length_c   7.51427400
_cell_angle_alpha   90.00000000
_cell_angle_beta   90.00000000
_cell_angle_gamma   120.00000000
_symmetry_Int_Tables_number   1
_chemical_formula_structural   Li6Fe(OF)3
_chemical_formula_sum   'Li18 Fe3 O9 F9'
_cell_volume   445.76012877
_cell_formula_units_Z   3
loop_
 _symmetry_equiv_pos_site_id
 _symmetry_equiv_pos_as_xyz
  1  'x, y, z'
loop_
 _atom_site_type_symbol
 _atom_site_label
 _atom_site_symmetry_multiplicity
 _atom_site_fract_x
 _atom_site_fract_y
 _atom_site_fract_z
 _atom_site_occupancy
  Li  Li0  1  0.67712825  0.02089875  0.66062650  1
  Li  Li1  1  0.97910125  0.32287175  0.66062650  1
  Li  Li2  1  0.67712825  0.65622950  0.66062650  1
  Li  Li3  1  0.97910125  0.65622950  0.66062650  1
  Li  Li4  1  0.34377050  0.32287175  0.66062650  1
  Li  Li5  1  0.34377050  0.02089875  0.66062650  1
  Li  Li6  1  0.34379492  0.35423208  0.99395983  1
  Li  Li7  1  0.64576792  0.65620508  0.99395983  1
  Li  Li8  1  0.34379492  0.98956283  0.99395983  1
  Li  Li9  1  0.64576792  0.98956283  0.99395983  1
  Li  Li10  1  0.01043717  0.65620508  0.99395983  1
  Li  Li11  1  0.01043717  0.35423208  0.99395983  1
  Li  Li12  1  0.01046158  0.68756542  0.32729317  1
  Li  Li13  1  0.31243458  0.98953842  0.32729317  1
  Li  Li14  1  0.01046158  0.32289617  0.32729317  1
  Li  Li15  1  0.31243458  0.32289617  0.32729317  1
  Li  Li16  1  0.67710383  0.98953842  0.32729317  1
  Li  Li17  1  0.67710383  0.68756542  0.32729317  1
  Fe  Fe18  1  0.66666667  0.33333333  0.39627983  1
  Fe  Fe19  1  0.33333333  0.66666667  0.72961317  1
  Fe  Fe20  1  0.00000000  0.00000000  0.06294650  1
  O  O21  1  0.45751275  0.54248725  0.81157700  1
  O  O22  1  0.45751275  0.91502550  0.81157700  1
  O  O23  1  0.08497450  0.54248725  0.81157700  1
  O  O24  1  0.12417942  0.87582058  0.14491033  1
  O  O25  1  0.12417942  0.24835883  0.14491033  1
  O  O26  1  0.75164117  0.87582058  0.14491033  1
  O  O27  1  0.79084608  0.20915392  0.47824367  1
  O  O28  1  0.79084608  0.58169217  0.47824367  1
  O  O29  1  0.41830783  0.20915392  0.47824367  1
  F  F30  1  0.25867667  0.12933833  0.84612083  1
  F  F31  1  0.87066167  0.74132333  0.84612083  1
  F  F32  1  0.87066167  0.12933833  0.84612083  1
  F  F33  1  0.92534333  0.46267167  0.17945417  1
  F  F34  1  0.53732833  0.07465667  0.17945417  1
  F  F35  1  0.53732833  0.46267167  0.17945417  1
  F  F36  1  0.59201000  0.79600500  0.51278750  1
  F  F37  1  0.20399500  0.40799000  0.51278750  1
  F  F38  1  0.20399500  0.79600500  0.51278750  1
