# generated using pymatgen
data_Ba2SrI6
_symmetry_space_group_name_H-M   'P 1'
_cell_length_a   9.32990400
_cell_length_b   16.15913600
_cell_length_c   10.45325486
_cell_angle_alpha   90.00000000
_cell_angle_beta   92.30186589
_cell_angle_gamma   90.00000000
_symmetry_Int_Tables_number   1
_chemical_formula_structural   Ba2SrI6
_chemical_formula_sum   'Ba8 Sr4 I24'
_cell_volume   1574.69435714
_cell_formula_units_Z   4
loop_
 _symmetry_equiv_pos_site_id
 _symmetry_equiv_pos_as_xyz
  1  'x, y, z'
loop_
 _atom_site_type_symbol
 _atom_site_label
 _atom_site_symmetry_multiplicity
 _atom_site_fract_x
 _atom_site_fract_y
 _atom_site_fract_z
 _atom_site_occupancy
  Ba  Ba0  1  0.55385700  0.16441800  0.49202000  1
  Ba  Ba1  1  0.44614300  0.16441800  0.00798000  1
  Ba  Ba2  1  0.55385700  0.83558200  0.99202000  1
  Ba  Ba3  1  0.44614300  0.83558200  0.50798000  1
  Ba  Ba4  1  0.05385700  0.66441800  0.49202000  1
  Ba  Ba5  1  0.94614300  0.66441800  0.00798000  1
  Ba  Ba6  1  0.05385700  0.33558200  0.99202000  1
  Ba  Ba7  1  0.94614300  0.33558200  0.50798000  1
  Sr  Sr8  1  0.50000000  0.45237200  0.25000000  1
  Sr  Sr9  1  0.50000000  0.54762800  0.75000000  1
  Sr  Sr10  1  0.00000000  0.95237200  0.25000000  1
  Sr  Sr11  1  0.00000000  0.04762800  0.75000000  1
  I  I12  1  0.67106950  0.02063550  0.14762500  1
  I  I13  1  0.22818100  0.78562200  0.21169700  1
  I  I14  1  0.57116500  0.37824100  0.55184500  1
  I  I15  1  0.42883500  0.37824100  0.94815500  1
  I  I16  1  0.77181900  0.78562200  0.28830300  1
  I  I17  1  0.32893050  0.02063550  0.35237500  1
  I  I18  1  0.67106950  0.97936450  0.64762500  1
  I  I19  1  0.22818100  0.21437800  0.71169700  1
  I  I20  1  0.57116500  0.62175900  0.05184500  1
  I  I21  1  0.42883500  0.62175900  0.44815500  1
  I  I22  1  0.77181900  0.21437800  0.78830300  1
  I  I23  1  0.32893050  0.97936450  0.85237500  1
  I  I24  1  0.17106950  0.52063550  0.14762500  1
  I  I25  1  0.72818100  0.28562200  0.21169700  1
  I  I26  1  0.07116500  0.87824100  0.55184500  1
  I  I27  1  0.92883500  0.87824100  0.94815500  1
  I  I28  1  0.27181900  0.28562200  0.28830300  1
  I  I29  1  0.82893050  0.52063550  0.35237500  1
  I  I30  1  0.17106950  0.47936450  0.64762500  1
  I  I31  1  0.72818100  0.71437800  0.71169700  1
  I  I32  1  0.07116500  0.12175900  0.05184500  1
  I  I33  1  0.92883500  0.12175900  0.44815500  1
  I  I34  1  0.27181900  0.71437800  0.78830300  1
  I  I35  1  0.82893050  0.47936450  0.85237500  1
