# generated using pymatgen
data_Li2Mn2Fe(PO4)3
_symmetry_space_group_name_H-M   'P 1'
_cell_length_a   14.71936800
_cell_length_b   8.95769000
_cell_length_c   8.30726204
_cell_angle_alpha   90.00000000
_cell_angle_beta   120.29674740
_cell_angle_gamma   90.00000000
_symmetry_Int_Tables_number   1
_chemical_formula_structural   Li2Mn2Fe(PO4)3
_chemical_formula_sum   'Li8 Mn8 Fe4 P12 O48'
_cell_volume   945.73032230
_cell_formula_units_Z   4
loop_
 _symmetry_equiv_pos_site_id
 _symmetry_equiv_pos_as_xyz
  1  'x, y, z'
loop_
 _atom_site_type_symbol
 _atom_site_label
 _atom_site_symmetry_multiplicity
 _atom_site_fract_x
 _atom_site_fract_y
 _atom_site_fract_z
 _atom_site_occupancy
  Li  Li0  1  0.50000000  0.63729400  0.00000000  1
  Li  Li1  1  0.50000000  0.33989100  0.50000000  1
  Li  Li2  1  0.70353900  0.94942700  0.90196300  1
  Li  Li3  1  0.29646100  0.94942700  0.09803700  1
  Li  Li4  1  0.00000000  0.13729400  0.00000000  1
  Li  Li5  1  0.00000000  0.83989100  0.50000000  1
  Li  Li6  1  0.20353900  0.44942700  0.90196300  1
  Li  Li7  1  0.79646100  0.44942700  0.09803700  1
  Mn  Mn8  1  0.60249350  0.75025550  0.39383000  1
  Mn  Mn9  1  0.39750650  0.75025550  0.60617000  1
  Mn  Mn10  1  0.59456400  0.24984000  0.90509700  1
  Mn  Mn11  1  0.40543600  0.24984000  0.09490300  1
  Mn  Mn12  1  0.10249350  0.25025550  0.39383000  1
  Mn  Mn13  1  0.89750650  0.25025550  0.60617000  1
  Mn  Mn14  1  0.09456400  0.74984000  0.90509700  1
  Mn  Mn15  1  0.90543600  0.74984000  0.09490300  1
  Fe  Fe16  1  0.25382300  0.25138500  0.25831500  1
  Fe  Fe17  1  0.74617700  0.25138500  0.74168500  1
  Fe  Fe18  1  0.75382300  0.75138500  0.25831500  1
  Fe  Fe19  1  0.24617700  0.75138500  0.74168500  1
  P  P20  1  0.15422250  0.90727650  0.31965100  1
  P  P21  1  0.84577750  0.90727650  0.68034900  1
  P  P22  1  0.50000000  0.93732800  0.00000000  1
  P  P23  1  0.50000000  0.04028300  0.50000000  1
  P  P24  1  0.14741100  0.10258300  0.80738300  1
  P  P25  1  0.85258900  0.10258300  0.19261700  1
  P  P26  1  0.65422250  0.40727650  0.31965100  1
  P  P27  1  0.34577750  0.40727650  0.68034900  1
  P  P28  1  0.00000000  0.43732800  0.00000000  1
  P  P29  1  0.00000000  0.54028300  0.50000000  1
  P  P30  1  0.64741100  0.60258300  0.80738300  1
  P  P31  1  0.35258900  0.60258300  0.19261700  1
  O  O32  1  0.35018100  0.67071500  0.35947900  1
  O  O33  1  0.44525400  0.94238500  0.57683300  1
  O  O34  1  0.16439150  0.08427750  0.32178200  1
  O  O35  1  0.54357150  0.63695750  0.79872500  1
  O  O36  1  0.54676150  0.35751050  0.28926100  1
  O  O37  1  0.23836750  0.84453350  0.51069100  1
  O  O38  1  0.76163250  0.84453350  0.48930900  1
  O  O39  1  0.83560850  0.08427750  0.67821800  1
  O  O40  1  0.55474600  0.94238500  0.42316700  1
  O  O41  1  0.41639950  0.82687450  0.84871700  1
  O  O42  1  0.41338050  0.14734650  0.35223500  1
  O  O43  1  0.64981900  0.67071500  0.64052100  1
  O  O44  1  0.82748500  0.86475900  0.84113800  1
  O  O45  1  0.58360050  0.82687450  0.15128300  1
  O  O46  1  0.58661950  0.14734650  0.64776500  1
  O  O47  1  0.43450750  0.02807050  0.06016400  1
  O  O48  1  0.17081400  0.93037300  0.81383600  1
  O  O49  1  0.23714200  0.16653500  0.00018800  1
  O  O50  1  0.76285800  0.16653500  0.99981200  1
  O  O51  1  0.45642850  0.63695750  0.20127500  1
  O  O52  1  0.45323850  0.35751050  0.71073900  1
  O  O53  1  0.82918600  0.93037300  0.18616400  1
  O  O54  1  0.56549250  0.02807050  0.93983600  1
  O  O55  1  0.17251500  0.86475900  0.15886200  1
  O  O56  1  0.85018100  0.17071500  0.35947900  1
  O  O57  1  0.94525400  0.44238500  0.57683300  1
  O  O58  1  0.66439150  0.58427750  0.32178200  1
  O  O59  1  0.04357150  0.13695750  0.79872500  1
  O  O60  1  0.04676150  0.85751050  0.28926100  1
  O  O61  1  0.73836750  0.34453350  0.51069100  1
  O  O62  1  0.26163250  0.34453350  0.48930900  1
  O  O63  1  0.33560850  0.58427750  0.67821800  1
  O  O64  1  0.05474600  0.44238500  0.42316700  1
  O  O65  1  0.91639950  0.32687450  0.84871700  1
  O  O66  1  0.91338050  0.64734650  0.35223500  1
  O  O67  1  0.14981900  0.17071500  0.64052100  1
  O  O68  1  0.32748500  0.36475900  0.84113800  1
  O  O69  1  0.08360050  0.32687450  0.15128300  1
  O  O70  1  0.08661950  0.64734650  0.64776500  1
  O  O71  1  0.93450750  0.52807050  0.06016400  1
  O  O72  1  0.67081400  0.43037300  0.81383600  1
  O  O73  1  0.73714200  0.66653500  0.00018800  1
  O  O74  1  0.26285800  0.66653500  0.99981200  1
  O  O75  1  0.95642850  0.13695750  0.20127500  1
  O  O76  1  0.95323850  0.85751050  0.71073900  1
  O  O77  1  0.32918600  0.43037300  0.18616400  1
  O  O78  1  0.06549250  0.52807050  0.93983600  1
  O  O79  1  0.67251500  0.36475900  0.15886200  1
