# generated using pymatgen
data_Y3AlO6
_symmetry_space_group_name_H-M   'P 1'
_cell_length_a   8.90483000
_cell_length_b   11.15128600
_cell_length_c   5.40160400
_cell_angle_alpha   90.00000000
_cell_angle_beta   90.00000000
_cell_angle_gamma   90.00000000
_symmetry_Int_Tables_number   1
_chemical_formula_structural   Y3AlO6
_chemical_formula_sum   'Y12 Al4 O24'
_cell_volume   536.38093069
_cell_formula_units_Z   4
loop_
 _symmetry_equiv_pos_site_id
 _symmetry_equiv_pos_as_xyz
  1  'x, y, z'
loop_
 _atom_site_type_symbol
 _atom_site_label
 _atom_site_symmetry_multiplicity
 _atom_site_fract_x
 _atom_site_fract_y
 _atom_site_fract_z
 _atom_site_occupancy
  Y  Y0  1  0.19270950  0.89396550  0.53011100  1
  Y  Y1  1  0.19270950  0.10603450  0.03011100  1
  Y  Y2  1  0.50000000  0.10259600  0.57572900  1
  Y  Y3  1  0.50000000  0.89740400  0.07572900  1
  Y  Y4  1  0.80729050  0.10603450  0.03011100  1
  Y  Y5  1  0.80729050  0.89396550  0.53011100  1
  Y  Y6  1  0.69270950  0.39396550  0.53011100  1
  Y  Y7  1  0.69270950  0.60603450  0.03011100  1
  Y  Y8  1  0.00000000  0.60259600  0.57572900  1
  Y  Y9  1  0.00000000  0.39740400  0.07572900  1
  Y  Y10  1  0.30729050  0.60603450  0.03011100  1
  Y  Y11  1  0.30729050  0.39396550  0.53011100  1
  Al  Al12  1  0.50000000  0.30484300  0.99374200  1
  Al  Al13  1  0.50000000  0.69515700  0.49374200  1
  Al  Al14  1  0.00000000  0.80484300  0.99374200  1
  Al  Al15  1  0.00000000  0.19515700  0.49374200  1
  O  O16  1  0.33929150  0.98400650  0.80165100  1
  O  O17  1  0.33929150  0.01599350  0.30165100  1
  O  O18  1  0.34724450  0.23724250  0.82938400  1
  O  O19  1  0.34724450  0.76275750  0.32938400  1
  O  O20  1  0.50000000  0.45425800  0.87078400  1
  O  O21  1  0.50000000  0.28625000  0.32140400  1
  O  O22  1  0.50000000  0.71375000  0.82140400  1
  O  O23  1  0.50000000  0.54574200  0.37078400  1
  O  O24  1  0.65275550  0.23724250  0.82938400  1
  O  O25  1  0.65275550  0.76275750  0.32938400  1
  O  O26  1  0.66070850  0.01599350  0.30165100  1
  O  O27  1  0.66070850  0.98400650  0.80165100  1
  O  O28  1  0.83929150  0.48400650  0.80165100  1
  O  O29  1  0.83929150  0.51599350  0.30165100  1
  O  O30  1  0.84724450  0.73724250  0.82938400  1
  O  O31  1  0.84724450  0.26275750  0.32938400  1
  O  O32  1  0.00000000  0.95425800  0.87078400  1
  O  O33  1  0.00000000  0.78625000  0.32140400  1
  O  O34  1  0.00000000  0.21375000  0.82140400  1
  O  O35  1  0.00000000  0.04574200  0.37078400  1
  O  O36  1  0.15275550  0.73724250  0.82938400  1
  O  O37  1  0.15275550  0.26275750  0.32938400  1
  O  O38  1  0.16070850  0.51599350  0.30165100  1
  O  O39  1  0.16070850  0.48400650  0.80165100  1
