# generated using pymatgen
data_TaGaO4
_symmetry_space_group_name_H-M   'P 1'
_cell_length_a   4.67097900
_cell_length_b   5.00790100
_cell_length_c   5.65089300
_cell_angle_alpha   90.00000000
_cell_angle_beta   90.00000000
_cell_angle_gamma   90.00000000
_symmetry_Int_Tables_number   1
_chemical_formula_structural   TaGaO4
_chemical_formula_sum   'Ta2 Ga2 O8'
_cell_volume   132.18456117
_cell_formula_units_Z   2
loop_
 _symmetry_equiv_pos_site_id
 _symmetry_equiv_pos_as_xyz
  1  'x, y, z'
loop_
 _atom_site_type_symbol
 _atom_site_label
 _atom_site_symmetry_multiplicity
 _atom_site_fract_x
 _atom_site_fract_y
 _atom_site_fract_z
 _atom_site_occupancy
  Ta  Ta0  1  0.00000000  0.00000000  0.17993400  1
  Ta  Ta1  1  0.50000000  0.00000000  0.67993400  1
  Ga  Ga2  1  0.00000000  0.50000000  0.83025800  1
  Ga  Ga3  1  0.50000000  0.50000000  0.33025800  1
  O  O4  1  0.77324700  0.16843600  0.88460700  1
  O  O5  1  0.77278300  0.67694800  0.11029700  1
  O  O6  1  0.72721700  0.67694800  0.61029700  1
  O  O7  1  0.72675300  0.16843600  0.38460700  1
  O  O8  1  0.27278300  0.32305200  0.61029700  1
  O  O9  1  0.27324700  0.83156400  0.38460700  1
  O  O10  1  0.22675300  0.83156400  0.88460700  1
  O  O11  1  0.22721700  0.32305200  0.11029700  1
