# generated using pymatgen
data_UP3H10BrO8
_symmetry_space_group_name_H-M   'P 1'
_cell_length_a   7.59804100
_cell_length_b   10.37720300
_cell_length_c   15.10987300
_cell_angle_alpha   90.00000000
_cell_angle_beta   90.00000000
_cell_angle_gamma   90.00000000
_symmetry_Int_Tables_number   1
_chemical_formula_structural   UP3H10BrO8
_chemical_formula_sum   'U4 P12 H40 Br4 O32'
_cell_volume   1191.35929992
_cell_formula_units_Z   4
loop_
 _symmetry_equiv_pos_site_id
 _symmetry_equiv_pos_as_xyz
  1  'x, y, z'
loop_
 _atom_site_type_symbol
 _atom_site_label
 _atom_site_symmetry_multiplicity
 _atom_site_fract_x
 _atom_site_fract_y
 _atom_site_fract_z
 _atom_site_occupancy
  U  U0  1  0.69823300  0.92898900  0.75000000  1
  U  U1  1  0.30176700  0.07101100  0.25000000  1
  U  U2  1  0.69823300  0.57101100  0.25000000  1
  U  U3  1  0.30176700  0.42898900  0.75000000  1
  P  P4  1  0.37455500  0.12647300  0.61434800  1
  P  P5  1  0.62544500  0.87352700  0.11434800  1
  P  P6  1  0.37455500  0.37352700  0.38565200  1
  P  P7  1  0.62544500  0.62647300  0.88565200  1
  P  P8  1  0.62544500  0.87352700  0.38565200  1
  P  P9  1  0.37455500  0.12647300  0.88565200  1
  P  P10  1  0.62544500  0.62647300  0.61434800  1
  P  P11  1  0.37455500  0.37352700  0.11434800  1
  P  P12  1  0.15502000  0.77893900  0.75000000  1
  P  P13  1  0.84498000  0.22106100  0.25000000  1
  P  P14  1  0.15502000  0.72106100  0.25000000  1
  P  P15  1  0.84498000  0.27893900  0.75000000  1
  H  H16  1  0.85542700  0.04697100  0.57126200  1
  H  H17  1  0.14457300  0.95302900  0.07126200  1
  H  H18  1  0.85542700  0.45302900  0.42873800  1
  H  H19  1  0.14457300  0.54697100  0.92873800  1
  H  H20  1  0.14457300  0.95302900  0.42873800  1
  H  H21  1  0.85542700  0.04697100  0.92873800  1
  H  H22  1  0.14457300  0.54697100  0.57126200  1
  H  H23  1  0.85542700  0.45302900  0.07126200  1
  H  H24  1  0.92585800  0.90111200  0.57353500  1
  H  H25  1  0.07414200  0.09888800  0.07353500  1
  H  H26  1  0.92585800  0.59888800  0.42646500  1
  H  H27  1  0.07414200  0.40111200  0.92646500  1
  H  H28  1  0.07414200  0.09888800  0.42646500  1
  H  H29  1  0.92585800  0.90111200  0.92646500  1
  H  H30  1  0.07414200  0.40111200  0.57353500  1
  H  H31  1  0.92585800  0.59888800  0.07353500  1
  H  H32  1  0.23723200  0.83425800  0.67526900  1
  H  H33  1  0.76276800  0.16574200  0.17526900  1
  H  H34  1  0.23723200  0.66574200  0.32473100  1
  H  H35  1  0.76276800  0.33425800  0.82473100  1
  H  H36  1  0.76276800  0.16574200  0.32473100  1
  H  H37  1  0.23723200  0.83425800  0.82473100  1
  H  H38  1  0.76276800  0.33425800  0.67526900  1
  H  H39  1  0.23723200  0.66574200  0.17526900  1
  H  H40  1  0.19673300  0.08494500  0.61720100  1
  H  H41  1  0.80326700  0.91505500  0.11720100  1
  H  H42  1  0.19673300  0.41505500  0.38279900  1
  H  H43  1  0.80326700  0.58494500  0.88279900  1
  H  H44  1  0.80326700  0.91505500  0.38279900  1
  H  H45  1  0.19673300  0.08494500  0.88279900  1
  H  H46  1  0.80326700  0.58494500  0.61720100  1
  H  H47  1  0.19673300  0.41505500  0.11720100  1
  H  H48  1  0.41419400  0.13548900  0.52263200  1
  H  H49  1  0.58580600  0.86451100  0.02263200  1
  H  H50  1  0.41419400  0.36451100  0.47736800  1
  H  H51  1  0.58580600  0.63548900  0.97736800  1
  H  H52  1  0.58580600  0.86451100  0.47736800  1
  H  H53  1  0.41419400  0.13548900  0.97736800  1
  H  H54  1  0.58580600  0.63548900  0.52263200  1
  H  H55  1  0.41419400  0.36451100  0.02263200  1
  Br  Br56  1  0.09157700  0.75000000  0.50000000  1
  Br  Br57  1  0.90842300  0.25000000  0.00000000  1
  Br  Br58  1  0.90842300  0.25000000  0.50000000  1
  Br  Br59  1  0.09157700  0.75000000  0.00000000  1
  O  O60  1  0.38560500  0.26060500  0.65538800  1
  O  O61  1  0.61439500  0.73939500  0.15538800  1
  O  O62  1  0.38560500  0.23939500  0.34461200  1
  O  O63  1  0.61439500  0.76060500  0.84461200  1
  O  O64  1  0.61439500  0.73939500  0.34461200  1
  O  O65  1  0.38560500  0.26060500  0.84461200  1
  O  O66  1  0.61439500  0.76060500  0.65538800  1
  O  O67  1  0.38560500  0.23939500  0.15538800  1
  O  O68  1  0.48911200  0.02158300  0.65504400  1
  O  O69  1  0.51088800  0.97841700  0.15504400  1
  O  O70  1  0.48911200  0.47841700  0.34495600  1
  O  O71  1  0.51088800  0.52158300  0.84495600  1
  O  O72  1  0.51088800  0.97841700  0.34495600  1
  O  O73  1  0.48911200  0.02158300  0.84495600  1
  O  O74  1  0.51088800  0.52158300  0.65504400  1
  O  O75  1  0.48911200  0.47841700  0.15504400  1
  O  O76  1  0.95958200  0.81536500  0.75000000  1
  O  O77  1  0.04041800  0.18463500  0.25000000  1
  O  O78  1  0.95958200  0.68463500  0.25000000  1
  O  O79  1  0.04041800  0.31536500  0.75000000  1
  O  O80  1  0.19411800  0.63450300  0.75000000  1
  O  O81  1  0.80588200  0.36549700  0.25000000  1
  O  O82  1  0.19411800  0.86549700  0.25000000  1
  O  O83  1  0.80588200  0.13450300  0.75000000  1
  O  O84  1  0.85381000  0.96615600  0.60519800  1
  O  O85  1  0.14619000  0.03384400  0.10519800  1
  O  O86  1  0.85381000  0.53384400  0.39480200  1
  O  O87  1  0.14619000  0.46615600  0.89480200  1
  O  O88  1  0.14619000  0.03384400  0.39480200  1
  O  O89  1  0.85381000  0.96615600  0.89480200  1
  O  O90  1  0.14619000  0.46615600  0.60519800  1
  O  O91  1  0.85381000  0.53384400  0.10519800  1
