# generated using pymatgen
data_Li4Fe3Co2Sb3O16
_symmetry_space_group_name_H-M   'P 1'
_cell_length_a   10.34198400
_cell_length_b   6.05415200
_cell_length_c   9.82326218
_cell_angle_alpha   90.00000000
_cell_angle_beta   90.10399061
_cell_angle_gamma   90.00000000
_symmetry_Int_Tables_number   1
_chemical_formula_structural   Li4Fe3Co2Sb3O16
_chemical_formula_sum   'Li8 Fe6 Co4 Sb6 O32'
_cell_volume   615.05251978
_cell_formula_units_Z   2
loop_
 _symmetry_equiv_pos_site_id
 _symmetry_equiv_pos_as_xyz
  1  'x, y, z'
loop_
 _atom_site_type_symbol
 _atom_site_label
 _atom_site_symmetry_multiplicity
 _atom_site_fract_x
 _atom_site_fract_y
 _atom_site_fract_z
 _atom_site_occupancy
  Li  Li0  1  0.33340300  0.00000000  0.87472100  1
  Li  Li1  1  0.01451900  0.00000000  0.98939400  1
  Li  Li2  1  0.00992600  0.00000000  0.50636100  1
  Li  Li3  1  0.66875700  0.00000000  0.40136800  1
  Li  Li4  1  0.83340300  0.50000000  0.87472100  1
  Li  Li5  1  0.51451900  0.50000000  0.98939400  1
  Li  Li6  1  0.50992600  0.50000000  0.50636100  1
  Li  Li7  1  0.16875700  0.50000000  0.40136800  1
  Fe  Fe8  1  0.16695200  0.00000000  0.21539700  1
  Fe  Fe9  1  0.58246500  0.75491700  0.71529100  1
  Fe  Fe10  1  0.58246500  0.24508300  0.71529100  1
  Fe  Fe11  1  0.66695200  0.50000000  0.21539700  1
  Fe  Fe12  1  0.08246500  0.25491700  0.71529100  1
  Fe  Fe13  1  0.08246500  0.74508300  0.71529100  1
  Co  Co14  1  0.32520200  0.00000000  0.51901700  1
  Co  Co15  1  0.65678700  0.00000000  0.97566700  1
  Co  Co16  1  0.82520200  0.50000000  0.51901700  1
  Co  Co17  1  0.15678700  0.50000000  0.97566700  1
  Sb  Sb18  1  0.41424250  0.75358450  0.21569600  1
  Sb  Sb19  1  0.41424250  0.24641550  0.21569600  1
  Sb  Sb20  1  0.82850400  0.00000000  0.71513000  1
  Sb  Sb21  1  0.91424250  0.25358450  0.21569600  1
  Sb  Sb22  1  0.91424250  0.74641550  0.21569600  1
  Sb  Sb23  1  0.32850400  0.50000000  0.71513000  1
  O  O24  1  0.42086600  0.73561600  0.60136700  1
  O  O25  1  0.48725200  0.00000000  0.33207700  1
  O  O26  1  0.33144200  0.00000000  0.10201900  1
  O  O27  1  0.00066100  0.00000000  0.31950900  1
  O  O28  1  0.99857400  0.00000000  0.81169300  1
  O  O29  1  0.42086600  0.26438400  0.60136700  1
  O  O30  1  0.25536500  0.77639400  0.32586200  1
  O  O31  1  0.25536500  0.22360600  0.32586200  1
  O  O32  1  0.84247600  0.00000000  0.10009600  1
  O  O33  1  0.15724900  0.00000000  0.61297000  1
  O  O34  1  0.73873600  0.77464300  0.83347300  1
  O  O35  1  0.73873600  0.22535700  0.83347300  1
  O  O36  1  0.66392300  0.00000000  0.60615100  1
  O  O37  1  0.57804850  0.73349350  0.10849000  1
  O  O38  1  0.51693400  0.00000000  0.82600400  1
  O  O39  1  0.57804850  0.26650650  0.10849000  1
  O  O40  1  0.92086600  0.23561600  0.60136700  1
  O  O41  1  0.98725200  0.50000000  0.33207700  1
  O  O42  1  0.83144200  0.50000000  0.10201900  1
  O  O43  1  0.50066100  0.50000000  0.31950900  1
  O  O44  1  0.49857400  0.50000000  0.81169300  1
  O  O45  1  0.92086600  0.76438400  0.60136700  1
  O  O46  1  0.75536500  0.27639400  0.32586200  1
  O  O47  1  0.75536500  0.72360600  0.32586200  1
  O  O48  1  0.34247600  0.50000000  0.10009600  1
  O  O49  1  0.65724900  0.50000000  0.61297000  1
  O  O50  1  0.23873600  0.27464300  0.83347300  1
  O  O51  1  0.23873600  0.72535700  0.83347300  1
  O  O52  1  0.16392300  0.50000000  0.60615100  1
  O  O53  1  0.07804850  0.23349350  0.10849000  1
  O  O54  1  0.01693400  0.50000000  0.82600400  1
  O  O55  1  0.07804850  0.76650650  0.10849000  1
