# generated using pymatgen
data_Li2Bi2B2O7
_symmetry_space_group_name_H-M   'P 1'
_cell_length_a   14.77527400
_cell_length_b   8.81426000
_cell_length_c   7.77646231
_cell_angle_alpha   90.00000000
_cell_angle_beta   90.59923787
_cell_angle_gamma   90.00000000
_symmetry_Int_Tables_number   1
_chemical_formula_structural   Li2Bi2B2O7
_chemical_formula_sum   'Li12 Bi12 B12 O42'
_cell_volume   1012.69745560
_cell_formula_units_Z   6
loop_
 _symmetry_equiv_pos_site_id
 _symmetry_equiv_pos_as_xyz
  1  'x, y, z'
loop_
 _atom_site_type_symbol
 _atom_site_label
 _atom_site_symmetry_multiplicity
 _atom_site_fract_x
 _atom_site_fract_y
 _atom_site_fract_z
 _atom_site_occupancy
  Li  Li0  1  0.66827950  0.99724750  0.27412000  1
  Li  Li1  1  0.49727450  0.48669850  0.25429700  1
  Li  Li2  1  0.50272550  0.48669850  0.74570300  1
  Li  Li3  1  0.67027100  0.01487000  0.80827900  1
  Li  Li4  1  0.33172050  0.99724750  0.72588000  1
  Li  Li5  1  0.32972900  0.01487000  0.19172100  1
  Li  Li6  1  0.16827950  0.49724750  0.27412000  1
  Li  Li7  1  0.99727450  0.98669850  0.25429700  1
  Li  Li8  1  0.00272550  0.98669850  0.74570300  1
  Li  Li9  1  0.17027100  0.51487000  0.80827900  1
  Li  Li10  1  0.83172050  0.49724750  0.72588000  1
  Li  Li11  1  0.82972900  0.51487000  0.19172100  1
  Bi  Bi12  1  0.65839900  0.72065500  0.99440000  1
  Bi  Bi13  1  0.13516600  0.12477700  0.49664600  1
  Bi  Bi14  1  0.34160100  0.72065500  0.00560000  1
  Bi  Bi15  1  0.86483400  0.12477700  0.50335400  1
  Bi  Bi16  1  0.50000000  0.19138700  0.50000000  1
  Bi  Bi17  1  0.50000000  0.09500900  0.00000000  1
  Bi  Bi18  1  0.15839900  0.22065500  0.99440000  1
  Bi  Bi19  1  0.63516600  0.62477700  0.49664600  1
  Bi  Bi20  1  0.84160100  0.22065500  0.00560000  1
  Bi  Bi21  1  0.36483400  0.62477700  0.50335400  1
  Bi  Bi22  1  0.00000000  0.69138700  0.50000000  1
  Bi  Bi23  1  0.00000000  0.59500900  0.00000000  1
  B  B24  1  0.82994050  0.83193650  0.74117600  1
  B  B25  1  0.50290000  0.85097600  0.69893700  1
  B  B26  1  0.66536850  0.32785050  0.76140200  1
  B  B27  1  0.17005950  0.83193650  0.25882400  1
  B  B28  1  0.49710000  0.85097600  0.30106300  1
  B  B29  1  0.33463150  0.32785050  0.23859800  1
  B  B30  1  0.32994050  0.33193650  0.74117600  1
  B  B31  1  0.00290000  0.35097600  0.69893700  1
  B  B32  1  0.16536850  0.82785050  0.76140200  1
  B  B33  1  0.67005950  0.33193650  0.25882400  1
  B  B34  1  0.99710000  0.35097600  0.30106300  1
  B  B35  1  0.83463150  0.82785050  0.23859800  1
  O  O36  1  0.54826150  0.72046150  0.75893700  1
  O  O37  1  0.74058300  0.82782200  0.80001300  1
  O  O38  1  0.58203100  0.84009500  0.37364400  1
  O  O39  1  0.87239050  0.97332250  0.74535400  1
  O  O40  1  0.79906550  0.96447650  0.29293000  1
  O  O41  1  0.54147200  0.99508600  0.71769300  1
  O  O42  1  0.62102050  0.95341750  0.04149900  1
  O  O43  1  0.50000000  0.51558500  0.50000000  1
  O  O44  1  0.72399700  0.21177800  0.81368300  1
  O  O45  1  0.62951700  0.20385900  0.32263900  1
  O  O46  1  0.45173850  0.72046150  0.24106300  1
  O  O47  1  0.25941700  0.82782200  0.19998700  1
  O  O48  1  0.41796900  0.84009500  0.62635600  1
  O  O49  1  0.57216700  0.30363200  0.76310600  1
  O  O50  1  0.12760950  0.97332250  0.25464600  1
  O  O51  1  0.20093450  0.96447650  0.70707000  1
  O  O52  1  0.45852800  0.99508600  0.28230700  1
  O  O53  1  0.37897950  0.95341750  0.95850100  1
  O  O54  1  0.27600300  0.21177800  0.18631700  1
  O  O55  1  0.37048300  0.20385900  0.67736100  1
  O  O56  1  0.42783300  0.30363200  0.23689400  1
  O  O57  1  0.04826150  0.22046150  0.75893700  1
  O  O58  1  0.24058300  0.32782200  0.80001300  1
  O  O59  1  0.08203100  0.34009500  0.37364400  1
  O  O60  1  0.37239050  0.47332250  0.74535400  1
  O  O61  1  0.29906550  0.46447650  0.29293000  1
  O  O62  1  0.04147200  0.49508600  0.71769300  1
  O  O63  1  0.12102050  0.45341750  0.04149900  1
  O  O64  1  0.00000000  0.01558500  0.50000000  1
  O  O65  1  0.22399700  0.71177800  0.81368300  1
  O  O66  1  0.12951700  0.70385900  0.32263900  1
  O  O67  1  0.95173850  0.22046150  0.24106300  1
  O  O68  1  0.75941700  0.32782200  0.19998700  1
  O  O69  1  0.91796900  0.34009500  0.62635600  1
  O  O70  1  0.07216700  0.80363200  0.76310600  1
  O  O71  1  0.62760950  0.47332250  0.25464600  1
  O  O72  1  0.70093450  0.46447650  0.70707000  1
  O  O73  1  0.95852800  0.49508600  0.28230700  1
  O  O74  1  0.87897950  0.45341750  0.95850100  1
  O  O75  1  0.77600300  0.71177800  0.18631700  1
  O  O76  1  0.87048300  0.70385900  0.67736100  1
  O  O77  1  0.92783300  0.80363200  0.23689400  1
