# generated using pymatgen
data_Ca2Ti6N2O11
_symmetry_space_group_name_H-M   'P 1'
_cell_length_a   15.04024200
_cell_length_b   3.75455800
_cell_length_c   9.50175871
_cell_angle_alpha   90.00000000
_cell_angle_beta   99.57401927
_cell_angle_gamma   90.00000000
_symmetry_Int_Tables_number   1
_chemical_formula_structural   Ca2Ti6N2O11
_chemical_formula_sum   'Ca4 Ti12 N4 O22'
_cell_volume   529.08575774
_cell_formula_units_Z   2
loop_
 _symmetry_equiv_pos_site_id
 _symmetry_equiv_pos_as_xyz
  1  'x, y, z'
loop_
 _atom_site_type_symbol
 _atom_site_label
 _atom_site_symmetry_multiplicity
 _atom_site_fract_x
 _atom_site_fract_y
 _atom_site_fract_z
 _atom_site_occupancy
  Ca  Ca0  1  0.53776100  0.00000000  0.81007500  1
  Ca  Ca1  1  0.95192100  0.50000000  0.26267400  1
  Ca  Ca2  1  0.03776100  0.50000000  0.81007500  1
  Ca  Ca3  1  0.45192100  0.00000000  0.26267400  1
  Ti  Ti4  1  0.61776000  0.50000000  0.08770900  1
  Ti  Ti5  1  0.67221500  0.50000000  0.43017000  1
  Ti  Ti6  1  0.73198500  0.50000000  0.75547600  1
  Ti  Ti7  1  0.76445500  0.00000000  0.22365900  1
  Ti  Ti8  1  0.84869400  0.00000000  0.56227000  1
  Ti  Ti9  1  0.88271700  0.00000000  0.92320000  1
  Ti  Ti10  1  0.11776000  0.00000000  0.08770900  1
  Ti  Ti11  1  0.17221500  0.00000000  0.43017000  1
  Ti  Ti12  1  0.23198500  0.00000000  0.75547600  1
  Ti  Ti13  1  0.26445500  0.50000000  0.22365900  1
  Ti  Ti14  1  0.34869400  0.50000000  0.56227000  1
  Ti  Ti15  1  0.38271700  0.50000000  0.92320000  1
  N  N16  1  0.65571600  0.00000000  0.09797600  1
  N  N17  1  0.50419900  0.50000000  0.98425600  1
  N  N18  1  0.15571600  0.50000000  0.09797600  1
  N  N19  1  0.00419900  0.00000000  0.98425600  1
  O  O20  1  0.57156600  0.50000000  0.28529800  1
  O  O21  1  0.63111100  0.50000000  0.59802200  1
  O  O22  1  0.65949100  0.50000000  0.88551800  1
  O  O23  1  0.70839600  0.00000000  0.41697500  1
  O  O24  1  0.76415100  0.00000000  0.74942200  1
  O  O25  1  0.75789200  0.50000000  0.25701900  1
  O  O26  1  0.80570400  0.50000000  0.56777600  1
  O  O27  1  0.85970000  0.50000000  0.88253200  1
  O  O28  1  0.85795700  0.00000000  0.11272500  1
  O  O29  1  0.89447300  0.00000000  0.39689100  1
  O  O30  1  0.94388400  0.00000000  0.70448300  1
  O  O31  1  0.07156600  0.00000000  0.28529800  1
  O  O32  1  0.13111100  0.00000000  0.59802200  1
  O  O33  1  0.15949100  0.00000000  0.88551800  1
  O  O34  1  0.20839600  0.50000000  0.41697500  1
  O  O35  1  0.26415100  0.50000000  0.74942200  1
  O  O36  1  0.25789200  0.00000000  0.25701900  1
  O  O37  1  0.30570400  0.00000000  0.56777600  1
  O  O38  1  0.35970000  0.00000000  0.88253200  1
  O  O39  1  0.35795700  0.50000000  0.11272500  1
  O  O40  1  0.39447300  0.50000000  0.39689100  1
  O  O41  1  0.44388400  0.50000000  0.70448300  1
