# generated using pymatgen
data_Sb3P6WO24
_symmetry_space_group_name_H-M   'P 1'
_cell_length_a   8.83960362
_cell_length_b   8.83960362
_cell_length_c   22.86275875
_cell_angle_alpha   90.00000000
_cell_angle_beta   90.00000000
_cell_angle_gamma   120.00000000
_symmetry_Int_Tables_number   1
_chemical_formula_structural   Sb3P6WO24
_chemical_formula_sum   'Sb9 P18 W3 O72'
_cell_volume   1547.12301880
_cell_formula_units_Z   3
loop_
 _symmetry_equiv_pos_site_id
 _symmetry_equiv_pos_as_xyz
  1  'x, y, z'
loop_
 _atom_site_type_symbol
 _atom_site_label
 _atom_site_symmetry_multiplicity
 _atom_site_fract_x
 _atom_site_fract_y
 _atom_site_fract_z
 _atom_site_occupancy
  Sb  Sb0  1  0.00000000  0.00000000  0.14039700  1
  Sb  Sb1  1  0.33333333  0.66666667  0.02479067  1
  Sb  Sb2  1  0.33333333  0.66666667  0.31140167  1
  Sb  Sb3  1  0.66666667  0.33333333  0.47373033  1
  Sb  Sb4  1  0.00000000  0.00000000  0.35812400  1
  Sb  Sb5  1  0.00000000  0.00000000  0.64473500  1
  Sb  Sb6  1  0.33333333  0.66666667  0.80706367  1
  Sb  Sb7  1  0.66666667  0.33333333  0.69145733  1
  Sb  Sb8  1  0.66666667  0.33333333  0.97806833  1
  P  P9  1  0.64432967  0.60423133  0.08232133  1
  P  P10  1  0.95990167  0.35567033  0.08232133  1
  P  P11  1  0.39576867  0.04009833  0.08232133  1
  P  P12  1  0.29420200  0.29768200  0.25134800  1
  P  P13  1  0.70231800  0.99652000  0.25134800  1
  P  P14  1  0.00348000  0.70579800  0.25134800  1
  P  P15  1  0.31099633  0.93756467  0.41565467  1
  P  P16  1  0.62656833  0.68900367  0.41565467  1
  P  P17  1  0.06243533  0.37343167  0.41565467  1
  P  P18  1  0.96086867  0.63101533  0.58468133  1
  P  P19  1  0.36898467  0.32985333  0.58468133  1
  P  P20  1  0.67014667  0.03913133  0.58468133  1
  P  P21  1  0.97766300  0.27089800  0.74898800  1
  P  P22  1  0.29323500  0.02233700  0.74898800  1
  P  P23  1  0.72910200  0.70676500  0.74898800  1
  P  P24  1  0.62753533  0.96434867  0.91801467  1
  P  P25  1  0.03565133  0.66318667  0.91801467  1
  P  P26  1  0.33681333  0.37246467  0.91801467  1
  W  W27  1  0.66666667  0.33333333  0.18848433  1
  W  W28  1  0.33333333  0.66666667  0.52181767  1
  W  W29  1  0.00000000  0.00000000  0.85515100  1
  O  O30  1  0.95359133  0.76634667  0.30714867  1
  O  O31  1  0.23365333  0.18724467  0.30714867  1
  O  O32  1  0.79956433  0.78626167  0.08463667  1
  O  O33  1  0.81275533  0.04640867  0.30714867  1
  O  O34  1  0.46450333  0.59288467  0.08348467  1
  O  O35  1  0.64095700  0.49512100  0.13734300  1
  O  O36  1  0.98669733  0.20043567  0.08463667  1
  O  O37  1  0.12838133  0.53549667  0.08348467  1
  O  O38  1  0.40711533  0.87161867  0.08348467  1
  O  O39  1  0.17446400  0.23119700  0.19906000  1
  O  O40  1  0.47502567  0.30682033  0.23473733  1
  O  O41  1  0.76880300  0.94326700  0.19906000  1
  O  O42  1  0.85416400  0.35904300  0.13734300  1
  O  O43  1  0.21373833  0.01330267  0.08463667  1
  O  O44  1  0.50487900  0.14583600  0.13734300  1
  O  O45  1  0.35263867  0.49494233  0.26114033  1
  O  O46  1  0.50505767  0.85769633  0.26114033  1
  O  O47  1  0.69317967  0.16820533  0.23473733  1
  O  O48  1  0.05673300  0.82553600  0.19906000  1
  O  O49  1  0.14230367  0.64736133  0.26114033  1
  O  O50  1  0.85620833  0.34205967  0.02597867  1
  O  O51  1  0.83179467  0.52497433  0.23473733  1
  O  O52  1  0.48585133  0.14379167  0.02597867  1
  O  O53  1  0.65794033  0.51414867  0.02597867  1
  O  O54  1  0.62025800  0.09968000  0.64048200  1
  O  O55  1  0.90032000  0.52057800  0.64048200  1
  O  O56  1  0.46623100  0.11959500  0.41797000  1
  O  O57  1  0.47942200  0.37974200  0.64048200  1
  O  O58  1  0.13117000  0.92621800  0.41681800  1
  O  O59  1  0.30762367  0.82845433  0.47067633  1
  O  O60  1  0.65336400  0.53376900  0.41797000  1
  O  O61  1  0.79504800  0.86883000  0.41681800  1
  O  O62  1  0.07378200  0.20495200  0.41681800  1
  O  O63  1  0.84113067  0.56453033  0.53239333  1
  O  O64  1  0.14169233  0.64015367  0.56807067  1
  O  O65  1  0.43546967  0.27660033  0.53239333  1
  O  O66  1  0.52083067  0.69237633  0.47067633  1
  O  O67  1  0.88040500  0.34663600  0.41797000  1
  O  O68  1  0.17154567  0.47916933  0.47067633  1
  O  O69  1  0.01930533  0.82827567  0.59447367  1
  O  O70  1  0.17172433  0.19102967  0.59447367  1
  O  O71  1  0.35984633  0.50153867  0.56807067  1
  O  O72  1  0.72339967  0.15886933  0.53239333  1
  O  O73  1  0.80897033  0.98069467  0.59447367  1
  O  O74  1  0.52287500  0.67539300  0.35931200  1
  O  O75  1  0.49846133  0.85830767  0.56807067  1
  O  O76  1  0.15251800  0.47712500  0.35931200  1
  O  O77  1  0.32460700  0.84748200  0.35931200  1
  O  O78  1  0.28692467  0.43301333  0.97381533  1
  O  O79  1  0.56698667  0.85391133  0.97381533  1
  O  O80  1  0.13289767  0.45292833  0.75130333  1
  O  O81  1  0.14608867  0.71307533  0.97381533  1
  O  O82  1  0.79783667  0.25955133  0.75015133  1
  O  O83  1  0.97429033  0.16178767  0.80400967  1
  O  O84  1  0.32003067  0.86710233  0.75130333  1
  O  O85  1  0.46171467  0.20216333  0.75015133  1
  O  O86  1  0.74044867  0.53828533  0.75015133  1
  O  O87  1  0.50779733  0.89786367  0.86572667  1
  O  O88  1  0.80835900  0.97348700  0.90140400  1
  O  O89  1  0.10213633  0.60993367  0.86572667  1
  O  O90  1  0.18749733  0.02570967  0.80400967  1
  O  O91  1  0.54707167  0.67996933  0.75130333  1
  O  O92  1  0.83821233  0.81250267  0.80400967  1
  O  O93  1  0.68597200  0.16160900  0.92780700  1
  O  O94  1  0.83839100  0.52436300  0.92780700  1
  O  O95  1  0.02651300  0.83487200  0.90140400  1
  O  O96  1  0.39006633  0.49220267  0.86572667  1
  O  O97  1  0.47563700  0.31402800  0.92780700  1
  O  O98  1  0.18954167  0.00872633  0.69264533  1
  O  O99  1  0.16512800  0.19164100  0.90140400  1
  O  O100  1  0.81918467  0.81045833  0.69264533  1
  O  O101  1  0.99127367  0.18081533  0.69264533  1
