# generated using pymatgen
data_SrSc2O4
_symmetry_space_group_name_H-M   'P 1'
_cell_length_a   3.21014400
_cell_length_b   10.54085600
_cell_length_c   10.68560000
_cell_angle_alpha   90.00000000
_cell_angle_beta   90.00000000
_cell_angle_gamma   90.00000000
_symmetry_Int_Tables_number   1
_chemical_formula_structural   SrSc2O4
_chemical_formula_sum   'Sr4 Sc8 O16'
_cell_volume   361.57576000
_cell_formula_units_Z   4
loop_
 _symmetry_equiv_pos_site_id
 _symmetry_equiv_pos_as_xyz
  1  'x, y, z'
loop_
 _atom_site_type_symbol
 _atom_site_label
 _atom_site_symmetry_multiplicity
 _atom_site_fract_x
 _atom_site_fract_y
 _atom_site_fract_z
 _atom_site_occupancy
  Sr  Sr0  1  0.00000000  0.10993400  0.75000000  1
  Sr  Sr1  1  0.50000000  0.39006600  0.25000000  1
  Sr  Sr2  1  0.50000000  0.60993400  0.75000000  1
  Sr  Sr3  1  0.00000000  0.89006600  0.25000000  1
  Sc  Sc4  1  0.00000000  0.36445200  0.92943800  1
  Sc  Sc5  1  0.50000000  0.13554800  0.07056200  1
  Sc  Sc6  1  0.00000000  0.36445200  0.57056200  1
  Sc  Sc7  1  0.50000000  0.13554800  0.42943800  1
  Sc  Sc8  1  0.50000000  0.86445200  0.92943800  1
  Sc  Sc9  1  0.00000000  0.63554800  0.07056200  1
  Sc  Sc10  1  0.50000000  0.86445200  0.57056200  1
  Sc  Sc11  1  0.00000000  0.63554800  0.42943800  1
  O  O12  1  0.00000000  0.00000000  0.50000000  1
  O  O13  1  0.00000000  0.00000000  0.00000000  1
  O  O14  1  0.00000000  0.26292100  0.10475700  1
  O  O15  1  0.00000000  0.43508000  0.75000000  1
  O  O16  1  0.50000000  0.06492000  0.25000000  1
  O  O17  1  0.50000000  0.23707900  0.89524300  1
  O  O18  1  0.00000000  0.26292100  0.39524300  1
  O  O19  1  0.50000000  0.23707900  0.60475700  1
  O  O20  1  0.50000000  0.50000000  0.50000000  1
  O  O21  1  0.50000000  0.50000000  0.00000000  1
  O  O22  1  0.50000000  0.76292100  0.10475700  1
  O  O23  1  0.50000000  0.93508000  0.75000000  1
  O  O24  1  0.00000000  0.56492000  0.25000000  1
  O  O25  1  0.00000000  0.73707900  0.89524300  1
  O  O26  1  0.50000000  0.76292100  0.39524300  1
  O  O27  1  0.00000000  0.73707900  0.60475700  1
