# generated using pymatgen
data_Tb2Ti2O7
_symmetry_space_group_name_H-M   'P 1'
_cell_length_a   7.54996100
_cell_length_b   5.38084200
_cell_length_c   13.24859270
_cell_angle_alpha   90.00000000
_cell_angle_beta   98.36306838
_cell_angle_gamma   90.00000000
_symmetry_Int_Tables_number   1
_chemical_formula_structural   Tb2Ti2O7
_chemical_formula_sum   'Tb8 Ti8 O28'
_cell_volume   532.50268945
_cell_formula_units_Z   4
loop_
 _symmetry_equiv_pos_site_id
 _symmetry_equiv_pos_as_xyz
  1  'x, y, z'
loop_
 _atom_site_type_symbol
 _atom_site_label
 _atom_site_symmetry_multiplicity
 _atom_site_fract_x
 _atom_site_fract_y
 _atom_site_fract_z
 _atom_site_occupancy
  Tb  Tb0  1  0.35249000  0.27528400  0.88437700  1
  Tb  Tb1  1  0.28400200  0.73630500  0.63195100  1
  Tb  Tb2  1  0.85636500  0.35458200  0.93647400  1
  Tb  Tb3  1  0.64751000  0.77528400  0.11562300  1
  Tb  Tb4  1  0.76428400  0.75696700  0.57474700  1
  Tb  Tb5  1  0.71599800  0.23630500  0.36804900  1
  Tb  Tb6  1  0.23571600  0.25696700  0.42525300  1
  Tb  Tb7  1  0.14363500  0.85458200  0.06352600  1
  Ti  Ti8  1  0.41136500  0.29079700  0.17076400  1
  Ti  Ti9  1  0.47001400  0.75561600  0.37159700  1
  Ti  Ti10  1  0.96954100  0.75686100  0.37674300  1
  Ti  Ti11  1  0.52998600  0.25561600  0.62840300  1
  Ti  Ti12  1  0.58863500  0.79079700  0.82923600  1
  Ti  Ti13  1  0.93133400  0.27948600  0.17857400  1
  Ti  Ti14  1  0.03045900  0.25686100  0.62325700  1
  Ti  Ti15  1  0.06866600  0.77948600  0.82142600  1
  O  O16  1  0.05730200  0.52368500  0.52443800  1
  O  O17  1  0.12693900  0.44290700  0.73208300  1
  O  O18  1  0.51324300  0.94028400  0.26227200  1
  O  O19  1  0.42308400  0.41961100  0.32114200  1
  O  O20  1  0.41197200  0.08429600  0.05273200  1
  O  O21  1  0.32614700  0.86951600  0.80497200  1
  O  O22  1  0.36641100  0.58917600  0.11536600  1
  O  O23  1  0.27266600  0.14307200  0.59085800  1
  O  O24  1  0.54506600  0.01860300  0.47078700  1
  O  O25  1  0.48675700  0.44028400  0.73772800  1
  O  O26  1  0.45493400  0.51860300  0.52921300  1
  O  O27  1  0.58802800  0.58429600  0.94726800  1
  O  O28  1  0.86194200  0.06191600  0.06892100  1
  O  O29  1  0.67385300  0.36951600  0.19502800  1
  O  O30  1  0.72733400  0.64307200  0.40914200  1
  O  O31  1  0.82666300  0.67148700  0.81547400  1
  O  O32  1  0.77839200  0.33191500  0.61665900  1
  O  O33  1  0.92670500  0.55656100  0.09261900  1
  O  O34  1  0.63358900  0.08917600  0.88463400  1
  O  O35  1  0.99046500  0.42212300  0.31974900  1
  O  O36  1  0.57691600  0.91961100  0.67885800  1
  O  O37  1  0.94269800  0.02368500  0.47556200  1
  O  O38  1  0.87306100  0.94290700  0.26791700  1
  O  O39  1  0.22160800  0.83191500  0.38334100  1
  O  O40  1  0.13805800  0.56191600  0.93107900  1
  O  O41  1  0.17333700  0.17148700  0.18452600  1
  O  O42  1  0.07329500  0.05656100  0.90738100  1
  O  O43  1  0.00953500  0.92212300  0.68025100  1
