# generated using pymatgen
data_Ca5BC4Cl3
_symmetry_space_group_name_H-M   'P 1'
_cell_length_a   3.88563400
_cell_length_b   14.05948800
_cell_length_c   18.68898400
_cell_angle_alpha   90.00000000
_cell_angle_beta   90.00000000
_cell_angle_gamma   90.00000000
_symmetry_Int_Tables_number   1
_chemical_formula_structural   Ca5BC4Cl3
_chemical_formula_sum   'Ca20 B4 C16 Cl12'
_cell_volume   1020.97965558
_cell_formula_units_Z   4
loop_
 _symmetry_equiv_pos_site_id
 _symmetry_equiv_pos_as_xyz
  1  'x, y, z'
loop_
 _atom_site_type_symbol
 _atom_site_label
 _atom_site_symmetry_multiplicity
 _atom_site_fract_x
 _atom_site_fract_y
 _atom_site_fract_z
 _atom_site_occupancy
  Ca  Ca0  1  0.00000000  0.15595500  0.75000000  1
  Ca  Ca1  1  0.00000000  0.36293400  0.06262700  1
  Ca  Ca2  1  0.00000000  0.05479900  0.14111100  1
  Ca  Ca3  1  0.00000000  0.36293400  0.43737300  1
  Ca  Ca4  1  0.00000000  0.05479900  0.35888900  1
  Ca  Ca5  1  0.50000000  0.13706600  0.56262700  1
  Ca  Ca6  1  0.50000000  0.44520100  0.85888900  1
  Ca  Ca7  1  0.50000000  0.13706600  0.93737300  1
  Ca  Ca8  1  0.50000000  0.34404500  0.25000000  1
  Ca  Ca9  1  0.50000000  0.44520100  0.64111100  1
  Ca  Ca10  1  0.50000000  0.65595500  0.75000000  1
  Ca  Ca11  1  0.50000000  0.86293400  0.06262700  1
  Ca  Ca12  1  0.50000000  0.55479900  0.14111100  1
  Ca  Ca13  1  0.50000000  0.86293400  0.43737300  1
  Ca  Ca14  1  0.50000000  0.55479900  0.35888900  1
  Ca  Ca15  1  0.00000000  0.63706600  0.56262700  1
  Ca  Ca16  1  0.00000000  0.94520100  0.85888900  1
  Ca  Ca17  1  0.00000000  0.63706600  0.93737300  1
  Ca  Ca18  1  0.00000000  0.84404500  0.25000000  1
  Ca  Ca19  1  0.00000000  0.94520100  0.64111100  1
  B  B20  1  0.00000000  0.46555700  0.25000000  1
  B  B21  1  0.50000000  0.03444300  0.75000000  1
  B  B22  1  0.50000000  0.96555700  0.25000000  1
  B  B23  1  0.00000000  0.53444300  0.75000000  1
  C  C24  1  0.00000000  0.04184100  0.51171300  1
  C  C25  1  0.00000000  0.04184100  0.98828700  1
  C  C26  1  0.50000000  0.45815900  0.01171300  1
  C  C27  1  0.50000000  0.45815900  0.48828700  1
  C  C28  1  0.00000000  0.45040000  0.17316800  1
  C  C29  1  0.00000000  0.45040000  0.32683200  1
  C  C30  1  0.50000000  0.04960000  0.67316800  1
  C  C31  1  0.50000000  0.04960000  0.82683200  1
  C  C32  1  0.50000000  0.54184100  0.51171300  1
  C  C33  1  0.50000000  0.54184100  0.98828700  1
  C  C34  1  0.00000000  0.95815900  0.01171300  1
  C  C35  1  0.00000000  0.95815900  0.48828700  1
  C  C36  1  0.50000000  0.95040000  0.17316800  1
  C  C37  1  0.50000000  0.95040000  0.32683200  1
  C  C38  1  0.00000000  0.54960000  0.67316800  1
  C  C39  1  0.00000000  0.54960000  0.82683200  1
  Cl  Cl40  1  0.00000000  0.28419400  0.58539700  1
  Cl  Cl41  1  0.00000000  0.28419400  0.91460300  1
  Cl  Cl42  1  0.00000000  0.19380600  0.25000000  1
  Cl  Cl43  1  0.50000000  0.21580600  0.08539700  1
  Cl  Cl44  1  0.50000000  0.30619400  0.75000000  1
  Cl  Cl45  1  0.50000000  0.21580600  0.41460300  1
  Cl  Cl46  1  0.50000000  0.78419400  0.58539700  1
  Cl  Cl47  1  0.50000000  0.78419400  0.91460300  1
  Cl  Cl48  1  0.50000000  0.69380600  0.25000000  1
  Cl  Cl49  1  0.00000000  0.71580600  0.08539700  1
  Cl  Cl50  1  0.00000000  0.80619400  0.75000000  1
  Cl  Cl51  1  0.00000000  0.71580600  0.41460300  1
