# generated using pymatgen
data_BaYF5
_symmetry_space_group_name_H-M   'P 1'
_cell_length_a   5.62452600
_cell_length_b   9.80562300
_cell_length_c   8.34394726
_cell_angle_alpha   90.00000000
_cell_angle_beta   92.83127526
_cell_angle_gamma   90.00000000
_symmetry_Int_Tables_number   1
_chemical_formula_structural   BaYF5
_chemical_formula_sum   'Ba4 Y4 F20'
_cell_volume   459.62348773
_cell_formula_units_Z   4
loop_
 _symmetry_equiv_pos_site_id
 _symmetry_equiv_pos_as_xyz
  1  'x, y, z'
loop_
 _atom_site_type_symbol
 _atom_site_label
 _atom_site_symmetry_multiplicity
 _atom_site_fract_x
 _atom_site_fract_y
 _atom_site_fract_z
 _atom_site_occupancy
  Ba  Ba0  1  0.99930700  0.43158700  0.74319500  1
  Ba  Ba1  1  0.50187000  0.69948300  0.00585700  1
  Ba  Ba2  1  0.49813000  0.19948300  0.99414300  1
  Ba  Ba3  1  0.00069300  0.93158700  0.25680500  1
  Y  Y4  1  0.99547900  0.93824900  0.73803300  1
  Y  Y5  1  0.53221300  0.68231700  0.54084600  1
  Y  Y6  1  0.46778700  0.18231700  0.45915400  1
  Y  Y7  1  0.00452100  0.43824900  0.26196700  1
  F  F8  1  0.14379300  0.31170700  0.49033400  1
  F  F9  1  0.81096000  0.40384200  0.01971100  1
  F  F10  1  0.90027900  0.65463000  0.18109200  1
  F  F11  1  0.77097000  0.51728100  0.47397500  1
  F  F12  1  0.82584600  0.71051900  0.78078200  1
  F  F13  1  0.76006400  0.06033900  0.56856200  1
  F  F14  1  0.68234200  0.30293600  0.29591800  1
  F  F15  1  0.57547100  0.27933400  0.69009000  1
  F  F16  1  0.56309100  0.04419400  0.25338200  1
  F  F17  1  0.71754300  0.96508400  0.91958100  1
  F  F18  1  0.28245700  0.46508400  0.08041900  1
  F  F19  1  0.43690900  0.54419400  0.74661800  1
  F  F20  1  0.42452900  0.77933400  0.30991000  1
  F  F21  1  0.31765800  0.80293600  0.70408200  1
  F  F22  1  0.23993600  0.56033900  0.43143800  1
  F  F23  1  0.17415400  0.21051900  0.21921800  1
  F  F24  1  0.22903000  0.01728100  0.52602500  1
  F  F25  1  0.09972100  0.15463000  0.81890800  1
  F  F26  1  0.18904000  0.90384200  0.98028900  1
  F  F27  1  0.85620700  0.81170700  0.50966600  1
