# generated using pymatgen
data_SmBO3
_symmetry_space_group_name_H-M   'P 1'
_cell_length_a   4.21243000
_cell_length_b   6.92413800
_cell_length_c   8.81102400
_cell_angle_alpha   90.00000000
_cell_angle_beta   90.00000000
_cell_angle_gamma   90.00000000
_symmetry_Int_Tables_number   1
_chemical_formula_structural   SmBO3
_chemical_formula_sum   'Sm4 B4 O12'
_cell_volume   256.99507232
_cell_formula_units_Z   4
loop_
 _symmetry_equiv_pos_site_id
 _symmetry_equiv_pos_as_xyz
  1  'x, y, z'
loop_
 _atom_site_type_symbol
 _atom_site_label
 _atom_site_symmetry_multiplicity
 _atom_site_fract_x
 _atom_site_fract_y
 _atom_site_fract_z
 _atom_site_occupancy
  Sm  Sm0  1  0.05605300  0.00000000  0.50000000  1
  Sm  Sm1  1  0.05605300  0.00000000  0.00000000  1
  Sm  Sm2  1  0.55605300  0.50000000  0.50000000  1
  Sm  Sm3  1  0.55605300  0.50000000  0.00000000  1
  B  B4  1  0.62794550  0.87126250  0.75000000  1
  B  B5  1  0.62794550  0.12873750  0.25000000  1
  B  B6  1  0.12794550  0.37126250  0.75000000  1
  B  B7  1  0.12794550  0.62873750  0.25000000  1
  O  O8  1  0.50377150  0.82857450  0.60691500  1
  O  O9  1  0.50377150  0.82857450  0.89308500  1
  O  O10  1  0.91399100  0.96623300  0.75000000  1
  O  O11  1  0.50377150  0.17142550  0.10691500  1
  O  O12  1  0.50377150  0.17142550  0.39308500  1
  O  O13  1  0.91399100  0.03376700  0.25000000  1
  O  O14  1  0.00377150  0.32857450  0.60691500  1
  O  O15  1  0.00377150  0.32857450  0.89308500  1
  O  O16  1  0.41399100  0.46623300  0.75000000  1
  O  O17  1  0.00377150  0.67142550  0.10691500  1
  O  O18  1  0.00377150  0.67142550  0.39308500  1
  O  O19  1  0.41399100  0.53376700  0.25000000  1
