# generated using pymatgen
data_Ni3OF5
_symmetry_space_group_name_H-M   'P 1'
_cell_length_a   5.62311200
_cell_length_b   4.69481400
_cell_length_c   7.75943501
_cell_angle_alpha   90.00000000
_cell_angle_beta   93.84614184
_cell_angle_gamma   90.00000000
_symmetry_Int_Tables_number   1
_chemical_formula_structural   Ni3OF5
_chemical_formula_sum   'Ni6 O2 F10'
_cell_volume   204.38357520
_cell_formula_units_Z   2
loop_
 _symmetry_equiv_pos_site_id
 _symmetry_equiv_pos_as_xyz
  1  'x, y, z'
loop_
 _atom_site_type_symbol
 _atom_site_label
 _atom_site_symmetry_multiplicity
 _atom_site_fract_x
 _atom_site_fract_y
 _atom_site_fract_z
 _atom_site_occupancy
  Ni  Ni0  1  0.74812900  0.99050300  0.00762600  1
  Ni  Ni1  1  0.41225100  0.01322200  0.66791700  1
  Ni  Ni2  1  0.07676300  0.99138700  0.33029400  1
  Ni  Ni3  1  0.92323700  0.49138700  0.66970600  1
  Ni  Ni4  1  0.58774900  0.51322200  0.33208300  1
  Ni  Ni5  1  0.25187100  0.49050300  0.99237400  1
  O  O6  1  0.21361100  0.30497600  0.76621000  1
  O  O7  1  0.78638900  0.80497600  0.23379000  1
  F  F8  1  0.87983000  0.30314600  0.43482700  1
  F  F9  1  0.54968000  0.30468900  0.10222200  1
  F  F10  1  0.71512900  0.19410800  0.77365700  1
  F  F11  1  0.04549600  0.20008500  0.10159700  1
  F  F12  1  0.38160500  0.19788500  0.42911300  1
  F  F13  1  0.12017000  0.80314600  0.56517300  1
  F  F14  1  0.45032000  0.80468900  0.89777800  1
  F  F15  1  0.28487100  0.69410800  0.22634300  1
  F  F16  1  0.61839500  0.69788500  0.57088700  1
  F  F17  1  0.95450400  0.70008500  0.89840300  1
