# generated using pymatgen
data_PH6NO2
_symmetry_space_group_name_H-M   'P 1'
_cell_length_a   7.63039400
_cell_length_b   11.60514200
_cell_length_c   4.04955100
_cell_angle_alpha   90.00000000
_cell_angle_beta   90.00000000
_cell_angle_gamma   90.00000000
_symmetry_Int_Tables_number   1
_chemical_formula_structural   PH6NO2
_chemical_formula_sum   'P4 H24 N4 O8'
_cell_volume   358.59505408
_cell_formula_units_Z   4
loop_
 _symmetry_equiv_pos_site_id
 _symmetry_equiv_pos_as_xyz
  1  'x, y, z'
loop_
 _atom_site_type_symbol
 _atom_site_label
 _atom_site_symmetry_multiplicity
 _atom_site_fract_x
 _atom_site_fract_y
 _atom_site_fract_z
 _atom_site_occupancy
  P  P0  1  0.50000000  0.75000000  0.03749800  1
  P  P1  1  0.50000000  0.25000000  0.96250200  1
  P  P2  1  0.00000000  0.25000000  0.03749800  1
  P  P3  1  0.00000000  0.75000000  0.96250200  1
  H  H4  1  0.16976550  0.94783050  0.35286200  1
  H  H5  1  0.16976550  0.05216950  0.64713800  1
  H  H6  1  0.33023450  0.05216950  0.35286200  1
  H  H7  1  0.33023450  0.94783050  0.64713800  1
  H  H8  1  0.35509000  0.75000000  0.25785800  1
  H  H9  1  0.35509000  0.25000000  0.74214200  1
  H  H10  1  0.64491000  0.75000000  0.25785800  1
  H  H11  1  0.64491000  0.25000000  0.74214200  1
  H  H12  1  0.66976550  0.05216950  0.35286200  1
  H  H13  1  0.66976550  0.94783050  0.64713800  1
  H  H14  1  0.83023450  0.05216950  0.64713800  1
  H  H15  1  0.83023450  0.94783050  0.35286200  1
  H  H16  1  0.66976550  0.44783050  0.35286200  1
  H  H17  1  0.66976550  0.55216950  0.64713800  1
  H  H18  1  0.83023450  0.55216950  0.35286200  1
  H  H19  1  0.83023450  0.44783050  0.64713800  1
  H  H20  1  0.85509000  0.25000000  0.25785800  1
  H  H21  1  0.85509000  0.75000000  0.74214200  1
  H  H22  1  0.14491000  0.25000000  0.25785800  1
  H  H23  1  0.14491000  0.75000000  0.74214200  1
  H  H24  1  0.16976550  0.55216950  0.35286200  1
  H  H25  1  0.16976550  0.44783050  0.64713800  1
  H  H26  1  0.33023450  0.55216950  0.64713800  1
  H  H27  1  0.33023450  0.44783050  0.35286200  1
  N  N28  1  0.25000000  0.00000000  0.50000000  1
  N  N29  1  0.75000000  0.00000000  0.50000000  1
  N  N30  1  0.75000000  0.50000000  0.50000000  1
  N  N31  1  0.25000000  0.50000000  0.50000000  1
  O  O32  1  0.50000000  0.63644100  0.84751100  1
  O  O33  1  0.50000000  0.36355900  0.15248900  1
  O  O34  1  0.50000000  0.86355900  0.84751100  1
  O  O35  1  0.50000000  0.13644100  0.15248900  1
  O  O36  1  0.00000000  0.13644100  0.84751100  1
  O  O37  1  0.00000000  0.86355900  0.15248900  1
  O  O38  1  0.00000000  0.36355900  0.84751100  1
  O  O39  1  0.00000000  0.63644100  0.15248900  1
