# generated using pymatgen
data_Rb2ZrO3
_symmetry_space_group_name_H-M   'P 1'
_cell_length_a   7.45999600
_cell_length_b   10.94941200
_cell_length_c   5.97341900
_cell_angle_alpha   90.00000000
_cell_angle_beta   90.00000000
_cell_angle_gamma   90.00000000
_symmetry_Int_Tables_number   1
_chemical_formula_structural   Rb2ZrO3
_chemical_formula_sum   'Rb8 Zr4 O12'
_cell_volume   487.92421395
_cell_formula_units_Z   4
loop_
 _symmetry_equiv_pos_site_id
 _symmetry_equiv_pos_as_xyz
  1  'x, y, z'
loop_
 _atom_site_type_symbol
 _atom_site_label
 _atom_site_symmetry_multiplicity
 _atom_site_fract_x
 _atom_site_fract_y
 _atom_site_fract_z
 _atom_site_occupancy
  Rb  Rb0  1  0.64290150  0.16319450  0.25620900  1
  Rb  Rb1  1  0.35709850  0.16319450  0.75620900  1
  Rb  Rb2  1  0.35709850  0.83680550  0.75620900  1
  Rb  Rb3  1  0.64290150  0.83680550  0.25620900  1
  Rb  Rb4  1  0.14290150  0.66319450  0.25620900  1
  Rb  Rb5  1  0.85709850  0.66319450  0.75620900  1
  Rb  Rb6  1  0.85709850  0.33680550  0.75620900  1
  Rb  Rb7  1  0.14290150  0.33680550  0.25620900  1
  Zr  Zr8  1  0.91285100  0.00000000  0.73620200  1
  Zr  Zr9  1  0.08714900  0.00000000  0.23620200  1
  Zr  Zr10  1  0.41285100  0.50000000  0.73620200  1
  Zr  Zr11  1  0.58714900  0.50000000  0.23620200  1
  O  O12  1  0.51033100  0.37601600  0.49282900  1
  O  O13  1  0.48966900  0.37601600  0.99282900  1
  O  O14  1  0.65439900  0.00000000  0.70572200  1
  O  O15  1  0.34560100  0.00000000  0.20572200  1
  O  O16  1  0.48966900  0.62398400  0.99282900  1
  O  O17  1  0.51033100  0.62398400  0.49282900  1
  O  O18  1  0.01033100  0.87601600  0.49282900  1
  O  O19  1  0.98966900  0.87601600  0.99282900  1
  O  O20  1  0.15439900  0.50000000  0.70572200  1
  O  O21  1  0.84560100  0.50000000  0.20572200  1
  O  O22  1  0.98966900  0.12398400  0.99282900  1
  O  O23  1  0.01033100  0.12398400  0.49282900  1
