# generated using pymatgen
data_Li4Ti2Mn3Ni3O16
_symmetry_space_group_name_H-M   'P 1'
_cell_length_a   10.22537003
_cell_length_b   5.76947978
_cell_length_c   9.46772308
_cell_angle_alpha   90.00000000
_cell_angle_beta   92.11505267
_cell_angle_gamma   90.00000000
_symmetry_Int_Tables_number   1
_chemical_formula_structural   Li4Ti2Mn3Ni3O16
_chemical_formula_sum   'Li8 Ti4 Mn6 Ni6 O32'
_cell_volume   558.16842321
_cell_formula_units_Z   2
loop_
 _symmetry_equiv_pos_site_id
 _symmetry_equiv_pos_as_xyz
  1  'x, y, z'
loop_
 _atom_site_type_symbol
 _atom_site_label
 _atom_site_symmetry_multiplicity
 _atom_site_fract_x
 _atom_site_fract_y
 _atom_site_fract_z
 _atom_site_occupancy
  Li  Li0  1  0.66044050  0.00000000  0.89468700  1
  Li  Li1  1  0.99493050  0.00000000  0.99263200  1
  Li  Li2  1  0.50237550  0.50000000  0.49627400  1
  Li  Li3  1  0.83227050  0.50000000  0.39458600  1
  Li  Li4  1  0.16044050  0.50000000  0.89468700  1
  Li  Li5  1  0.49493050  0.50000000  0.99263200  1
  Li  Li6  1  0.00237550  0.00000000  0.49627400  1
  Li  Li7  1  0.33227050  0.00000000  0.39458600  1
  Ti  Ti8  1  0.67191100  0.00000000  0.49703900  1
  Ti  Ti9  1  0.83160850  0.50000000  0.99428800  1
  Ti  Ti10  1  0.17191100  0.50000000  0.49703900  1
  Ti  Ti11  1  0.33160850  0.00000000  0.99428800  1
  Mn  Mn12  1  0.58721150  0.75548250  0.21571600  1
  Mn  Mn13  1  0.58721150  0.24451750  0.21571600  1
  Mn  Mn14  1  0.67259500  0.50000000  0.71777900  1
  Mn  Mn15  1  0.08721150  0.25548250  0.21571600  1
  Mn  Mn16  1  0.08721150  0.74451750  0.21571600  1
  Mn  Mn17  1  0.17259500  0.00000000  0.71777900  1
  Ni  Ni18  1  0.82985650  0.00000000  0.21304900  1
  Ni  Ni19  1  0.91494400  0.25368000  0.71415000  1
  Ni  Ni20  1  0.91494400  0.74632000  0.71415000  1
  Ni  Ni21  1  0.32985650  0.50000000  0.21304900  1
  Ni  Ni22  1  0.41494400  0.75368000  0.71415000  1
  Ni  Ni23  1  0.41494400  0.24632000  0.71415000  1
  O  O24  1  0.59360950  0.74931650  0.59526700  1
  O  O25  1  0.51913700  0.00000000  0.33279500  1
  O  O26  1  0.65662150  0.00000000  0.10636700  1
  O  O27  1  0.50753950  0.50000000  0.30759700  1
  O  O28  1  0.50541050  0.50000000  0.80418200  1
  O  O29  1  0.59360950  0.25068350  0.59526700  1
  O  O30  1  0.73366850  0.77274750  0.34235200  1
  O  O31  1  0.73366850  0.22725250  0.34235200  1
  O  O32  1  0.66315150  0.50000000  0.10265100  1
  O  O33  1  0.83987600  0.00000000  0.59536500  1
  O  O34  1  0.75110250  0.28237250  0.84493500  1
  O  O35  1  0.75110250  0.71762750  0.84493500  1
  O  O36  1  0.82967450  0.50000000  0.61327700  1
  O  O37  1  0.92218200  0.25704800  0.09164100  1
  O  O38  1  0.97512000  0.50000000  0.83720800  1
  O  O39  1  0.92218200  0.74295200  0.09164100  1
  O  O40  1  0.09360950  0.24931650  0.59526700  1
  O  O41  1  0.01913700  0.50000000  0.33279500  1
  O  O42  1  0.15662150  0.50000000  0.10636700  1
  O  O43  1  0.00753950  0.00000000  0.30759700  1
  O  O44  1  0.00541050  0.00000000  0.80418200  1
  O  O45  1  0.09360950  0.75068350  0.59526700  1
  O  O46  1  0.23366850  0.27274750  0.34235200  1
  O  O47  1  0.23366850  0.72725250  0.34235200  1
  O  O48  1  0.16315150  0.00000000  0.10265100  1
  O  O49  1  0.33987600  0.50000000  0.59536500  1
  O  O50  1  0.25110250  0.78237250  0.84493500  1
  O  O51  1  0.25110250  0.21762750  0.84493500  1
  O  O52  1  0.32967450  0.00000000  0.61327700  1
  O  O53  1  0.42218200  0.75704800  0.09164100  1
  O  O54  1  0.47512000  0.00000000  0.83720800  1
  O  O55  1  0.42218200  0.24295200  0.09164100  1
