# generated using pymatgen
data_MnCr(PO4)2
_symmetry_space_group_name_H-M   'P 1'
_cell_length_a   4.83844923
_cell_length_b   5.88522203
_cell_length_c   9.86507043
_cell_angle_alpha   90.00000000
_cell_angle_beta   91.72516821
_cell_angle_gamma   90.00000000
_symmetry_Int_Tables_number   1
_chemical_formula_structural   MnCr(PO4)2
_chemical_formula_sum   'Mn2 Cr2 P4 O16'
_cell_volume   280.78398544
_cell_formula_units_Z   2
loop_
 _symmetry_equiv_pos_site_id
 _symmetry_equiv_pos_as_xyz
  1  'x, y, z'
loop_
 _atom_site_type_symbol
 _atom_site_label
 _atom_site_symmetry_multiplicity
 _atom_site_fract_x
 _atom_site_fract_y
 _atom_site_fract_z
 _atom_site_occupancy
  Mn  Mn0  1  0.57017200  0.75000000  0.22167500  1
  Mn  Mn1  1  0.42982800  0.25000000  0.77832500  1
  Cr  Cr2  1  0.95147000  0.75000000  0.72462500  1
  Cr  Cr3  1  0.04853000  0.25000000  0.27537500  1
  P  P4  1  0.89164300  0.25000000  0.59402100  1
  P  P5  1  0.10835700  0.75000000  0.40597900  1
  P  P6  1  0.40445500  0.75000000  0.90600000  1
  P  P7  1  0.59554500  0.25000000  0.09400000  1
  O  O8  1  0.16835000  0.75000000  0.55856100  1
  O  O9  1  0.83165000  0.25000000  0.44143900  1
  O  O10  1  0.21038400  0.25000000  0.61768600  1
  O  O11  1  0.78961600  0.75000000  0.38231400  1
  O  O12  1  0.71315900  0.75000000  0.88422800  1
  O  O13  1  0.28684100  0.25000000  0.11577200  1
  O  O14  1  0.65549700  0.25000000  0.94200000  1
  O  O15  1  0.34450300  0.75000000  0.05800000  1
  O  O16  1  0.75291600  0.04297000  0.66649800  1
  O  O17  1  0.75291600  0.45703000  0.66649800  1
  O  O18  1  0.24708400  0.54297000  0.33350200  1
  O  O19  1  0.24708400  0.95703000  0.33350200  1
  O  O20  1  0.24434900  0.95166700  0.83178800  1
  O  O21  1  0.24434900  0.54833300  0.83178800  1
  O  O22  1  0.75565100  0.04833300  0.16821200  1
  O  O23  1  0.75565100  0.45166700  0.16821200  1
