# generated using pymatgen
data_V3O5F
_symmetry_space_group_name_H-M   'P 1'
_cell_length_a   6.43631900
_cell_length_b   3.06615500
_cell_length_c   10.28994694
_cell_angle_alpha   90.00000000
_cell_angle_beta   108.15144689
_cell_angle_gamma   90.00000000
_symmetry_Int_Tables_number   1
_chemical_formula_structural   V3O5F
_chemical_formula_sum   'V6 O10 F2'
_cell_volume   192.96407326
_cell_formula_units_Z   2
loop_
 _symmetry_equiv_pos_site_id
 _symmetry_equiv_pos_as_xyz
  1  'x, y, z'
loop_
 _atom_site_type_symbol
 _atom_site_label
 _atom_site_symmetry_multiplicity
 _atom_site_fract_x
 _atom_site_fract_y
 _atom_site_fract_z
 _atom_site_occupancy
  V  V0  1  0.00748800  0.00000000  0.01656200  1
  V  V1  1  0.18836400  0.50000000  0.34229800  1
  V  V2  1  0.49926600  0.50000000  0.99839000  1
  V  V3  1  0.64858000  0.00000000  0.32179800  1
  V  V4  1  0.33432600  0.00000000  0.66959500  1
  V  V5  1  0.82253500  0.50000000  0.64385400  1
  O  O6  1  0.06265400  0.50000000  0.13471200  1
  O  O7  1  0.70432100  0.00000000  0.99777000  1
  O  O8  1  0.29255300  0.00000000  0.99960100  1
  O  O9  1  0.63580800  0.00000000  0.66657400  1
  O  O10  1  0.59741100  0.50000000  0.18866000  1
  O  O11  1  0.26739400  0.50000000  0.54252100  1
  O  O12  1  0.73707300  0.50000000  0.46312400  1
  O  O13  1  0.40078400  0.50000000  0.80297600  1
  O  O14  1  0.36702500  0.00000000  0.33543200  1
  O  O15  1  0.03050000  0.00000000  0.66863000  1
  F  F16  1  0.96844600  0.00000000  0.33554800  1
  F  F17  1  0.93547100  0.50000000  0.87195700  1
