# generated using pymatgen
data_TmBiO3
_symmetry_space_group_name_H-M   'P 1'
_cell_length_a   5.94949561
_cell_length_b   5.94949561
_cell_length_c   15.08924768
_cell_angle_alpha   90.00000000
_cell_angle_beta   90.00000000
_cell_angle_gamma   120.00000000
_symmetry_Int_Tables_number   1
_chemical_formula_structural   TmBiO3
_chemical_formula_sum   'Tm6 Bi6 O18'
_cell_volume   462.54981906
_cell_formula_units_Z   6
loop_
 _symmetry_equiv_pos_site_id
 _symmetry_equiv_pos_as_xyz
  1  'x, y, z'
loop_
 _atom_site_type_symbol
 _atom_site_label
 _atom_site_symmetry_multiplicity
 _atom_site_fract_x
 _atom_site_fract_y
 _atom_site_fract_z
 _atom_site_occupancy
  Tm  Tm0  1  0.00000000  0.00000000  0.14299700  1
  Tm  Tm1  1  0.66666667  0.33333333  0.19033633  1
  Tm  Tm2  1  0.66666667  0.33333333  0.47633033  1
  Tm  Tm3  1  0.33333333  0.66666667  0.52366967  1
  Tm  Tm4  1  0.33333333  0.66666667  0.80966367  1
  Tm  Tm5  1  0.00000000  0.00000000  0.85700300  1
  Bi  Bi6  1  0.33333333  0.66666667  0.02458867  1
  Bi  Bi7  1  0.33333333  0.66666667  0.30874467  1
  Bi  Bi8  1  0.00000000  0.00000000  0.35792200  1
  Bi  Bi9  1  0.00000000  0.00000000  0.64207800  1
  Bi  Bi10  1  0.66666667  0.33333333  0.69125533  1
  Bi  Bi11  1  0.66666667  0.33333333  0.97541133  1
  O  O12  1  0.70203067  0.62922033  0.08352233  1
  O  O13  1  0.73947700  0.03536400  0.24981100  1
  O  O14  1  0.29588700  0.26052300  0.24981100  1
  O  O15  1  0.37077967  0.07281033  0.08352233  1
  O  O16  1  0.92718967  0.29796933  0.08352233  1
  O  O17  1  0.96463600  0.70411300  0.24981100  1
  O  O18  1  0.36869733  0.96255367  0.41685567  1
  O  O19  1  0.40614367  0.36869733  0.58314433  1
  O  O20  1  0.96255367  0.59385633  0.58314433  1
  O  O21  1  0.03744633  0.40614367  0.41685567  1
  O  O22  1  0.59385633  0.63130267  0.41685567  1
  O  O23  1  0.63130267  0.03744633  0.58314433  1
  O  O24  1  0.03536400  0.29588700  0.75018900  1
  O  O25  1  0.07281033  0.70203067  0.91647767  1
  O  O26  1  0.62922033  0.92718967  0.91647767  1
  O  O27  1  0.70411300  0.73947700  0.75018900  1
  O  O28  1  0.26052300  0.96463600  0.75018900  1
  O  O29  1  0.29796933  0.37077967  0.91647767  1
