# generated using pymatgen
data_La4CoO8
_symmetry_space_group_name_H-M   'P 1'
_cell_length_a   5.31874400
_cell_length_b   5.31874400
_cell_length_c   25.60635000
_cell_angle_alpha   90.00000000
_cell_angle_beta   90.00000000
_cell_angle_gamma   90.00000000
_symmetry_Int_Tables_number   1
_chemical_formula_structural   La4CoO8
_chemical_formula_sum   'La16 Co4 O32'
_cell_volume   724.37900147
_cell_formula_units_Z   4
loop_
 _symmetry_equiv_pos_site_id
 _symmetry_equiv_pos_as_xyz
  1  'x, y, z'
loop_
 _atom_site_type_symbol
 _atom_site_label
 _atom_site_symmetry_multiplicity
 _atom_site_fract_x
 _atom_site_fract_y
 _atom_site_fract_z
 _atom_site_occupancy
  La  La0  1  0.50000000  0.00000000  0.06535200  1
  La  La1  1  0.00000000  0.50000000  0.43152600  1
  La  La2  1  0.50000000  0.50000000  0.18464800  1
  La  La3  1  0.00000000  0.00000000  0.31535200  1
  La  La4  1  0.50000000  0.50000000  0.31847400  1
  La  La5  1  0.00000000  0.00000000  0.18152600  1
  La  La6  1  0.00000000  0.50000000  0.06847400  1
  La  La7  1  0.50000000  0.00000000  0.43464800  1
  La  La8  1  0.00000000  0.50000000  0.56535200  1
  La  La9  1  0.50000000  0.00000000  0.93152600  1
  La  La10  1  0.00000000  0.00000000  0.68464800  1
  La  La11  1  0.50000000  0.50000000  0.81535200  1
  La  La12  1  0.00000000  0.00000000  0.81847400  1
  La  La13  1  0.50000000  0.50000000  0.68152600  1
  La  La14  1  0.50000000  0.00000000  0.56847400  1
  La  La15  1  0.00000000  0.50000000  0.93464800  1
  Co  Co16  1  0.50000000  0.00000000  0.25000000  1
  Co  Co17  1  0.50000000  0.50000000  0.00000000  1
  Co  Co18  1  0.00000000  0.50000000  0.75000000  1
  Co  Co19  1  0.00000000  0.00000000  0.50000000  1
  O  O20  1  0.25673050  0.75673050  0.25000000  1
  O  O21  1  0.25673050  0.74326950  0.00000000  1
  O  O22  1  0.74326950  0.75673050  0.25000000  1
  O  O23  1  0.00000000  0.50000000  0.34328600  1
  O  O24  1  0.50000000  0.00000000  0.16902100  1
  O  O25  1  0.25673050  0.25673050  0.00000000  1
  O  O26  1  0.25673050  0.24326950  0.25000000  1
  O  O27  1  0.24326950  0.24326950  0.50000000  1
  O  O28  1  0.00000000  0.00000000  0.09328600  1
  O  O29  1  0.74326950  0.24326950  0.25000000  1
  O  O30  1  0.50000000  0.50000000  0.08097900  1
  O  O31  1  0.74326950  0.25673050  0.00000000  1
  O  O32  1  0.00000000  0.00000000  0.41902100  1
  O  O33  1  0.50000000  0.50000000  0.40671400  1
  O  O34  1  0.50000000  0.00000000  0.33097900  1
  O  O35  1  0.00000000  0.50000000  0.15671400  1
  O  O36  1  0.75673050  0.25673050  0.75000000  1
  O  O37  1  0.75673050  0.24326950  0.50000000  1
  O  O38  1  0.24326950  0.25673050  0.75000000  1
  O  O39  1  0.50000000  0.00000000  0.84328600  1
  O  O40  1  0.00000000  0.50000000  0.66902100  1
  O  O41  1  0.75673050  0.75673050  0.50000000  1
  O  O42  1  0.75673050  0.74326950  0.75000000  1
  O  O43  1  0.74326950  0.74326950  0.00000000  1
  O  O44  1  0.50000000  0.50000000  0.59328600  1
  O  O45  1  0.24326950  0.74326950  0.75000000  1
  O  O46  1  0.00000000  0.00000000  0.58097900  1
  O  O47  1  0.24326950  0.75673050  0.50000000  1
  O  O48  1  0.50000000  0.50000000  0.91902100  1
  O  O49  1  0.00000000  0.00000000  0.90671400  1
  O  O50  1  0.00000000  0.50000000  0.83097900  1
  O  O51  1  0.50000000  0.00000000  0.65671400  1
