# generated using pymatgen
data_Mg2Mn3O8
_symmetry_space_group_name_H-M   'P 1'
_cell_length_a   5.86574200
_cell_length_b   11.47422400
_cell_length_c   8.41461100
_cell_angle_alpha   90.00000000
_cell_angle_beta   90.00000000
_cell_angle_gamma   90.00000000
_symmetry_Int_Tables_number   1
_chemical_formula_structural   Mg2Mn3O8
_chemical_formula_sum   'Mg8 Mn12 O32'
_cell_volume   566.34402711
_cell_formula_units_Z   4
loop_
 _symmetry_equiv_pos_site_id
 _symmetry_equiv_pos_as_xyz
  1  'x, y, z'
loop_
 _atom_site_type_symbol
 _atom_site_label
 _atom_site_symmetry_multiplicity
 _atom_site_fract_x
 _atom_site_fract_y
 _atom_site_fract_z
 _atom_site_occupancy
  Mg  Mg0  1  0.00000000  0.64118400  0.10615700  1
  Mg  Mg1  1  0.00000000  0.85881600  0.60615700  1
  Mg  Mg2  1  0.50000000  0.64118400  0.39384300  1
  Mg  Mg3  1  0.50000000  0.85881600  0.89384300  1
  Mg  Mg4  1  0.50000000  0.14118400  0.10615700  1
  Mg  Mg5  1  0.50000000  0.35881600  0.60615700  1
  Mg  Mg6  1  0.00000000  0.14118400  0.39384300  1
  Mg  Mg7  1  0.00000000  0.35881600  0.89384300  1
  Mn  Mn8  1  0.25000000  0.62280000  0.75000000  1
  Mn  Mn9  1  0.75000000  0.87720000  0.25000000  1
  Mn  Mn10  1  0.00000000  0.50000000  0.50000000  1
  Mn  Mn11  1  0.50000000  0.50000000  0.00000000  1
  Mn  Mn12  1  0.25000000  0.87720000  0.25000000  1
  Mn  Mn13  1  0.75000000  0.62280000  0.75000000  1
  Mn  Mn14  1  0.75000000  0.12280000  0.75000000  1
  Mn  Mn15  1  0.25000000  0.37720000  0.25000000  1
  Mn  Mn16  1  0.50000000  0.00000000  0.50000000  1
  Mn  Mn17  1  0.00000000  0.00000000  0.00000000  1
  Mn  Mn18  1  0.75000000  0.37720000  0.25000000  1
  Mn  Mn19  1  0.25000000  0.12280000  0.75000000  1
  O  O20  1  0.76879700  0.88520000  0.02556200  1
  O  O21  1  0.26879700  0.61480000  0.97443800  1
  O  O22  1  0.73120300  0.88520000  0.47443800  1
  O  O23  1  0.23120300  0.61480000  0.52556200  1
  O  O24  1  0.50000000  0.99746200  0.26435400  1
  O  O25  1  0.00000000  0.77090500  0.26220400  1
  O  O26  1  0.00000000  0.72909500  0.76220400  1
  O  O27  1  0.50000000  0.77090500  0.23779600  1
  O  O28  1  0.00000000  0.50253800  0.73564600  1
  O  O29  1  0.50000000  0.50253800  0.76435400  1
  O  O30  1  0.50000000  0.72909500  0.73779600  1
  O  O31  1  0.00000000  0.99746200  0.23564600  1
  O  O32  1  0.26879700  0.88520000  0.47443800  1
  O  O33  1  0.76879700  0.61480000  0.52556200  1
  O  O34  1  0.23120300  0.88520000  0.02556200  1
  O  O35  1  0.73120300  0.61480000  0.97443800  1
  O  O36  1  0.26879700  0.38520000  0.02556200  1
  O  O37  1  0.76879700  0.11480000  0.97443800  1
  O  O38  1  0.23120300  0.38520000  0.47443800  1
  O  O39  1  0.73120300  0.11480000  0.52556200  1
  O  O40  1  0.00000000  0.49746200  0.26435400  1
  O  O41  1  0.50000000  0.27090500  0.26220400  1
  O  O42  1  0.50000000  0.22909500  0.76220400  1
  O  O43  1  0.00000000  0.27090500  0.23779600  1
  O  O44  1  0.50000000  0.00253800  0.73564600  1
  O  O45  1  0.00000000  0.00253800  0.76435400  1
  O  O46  1  0.00000000  0.22909500  0.73779600  1
  O  O47  1  0.50000000  0.49746200  0.23564600  1
  O  O48  1  0.76879700  0.38520000  0.47443800  1
  O  O49  1  0.26879700  0.11480000  0.52556200  1
  O  O50  1  0.73120300  0.38520000  0.02556200  1
  O  O51  1  0.23120300  0.11480000  0.97443800  1
