# generated using pymatgen
data_Ba2In2O5
_symmetry_space_group_name_H-M   'P 1'
_cell_length_a   8.16536800
_cell_length_b   17.51493200
_cell_length_c   8.69514300
_cell_angle_alpha   90.00000000
_cell_angle_beta   90.00000000
_cell_angle_gamma   90.00000000
_symmetry_Int_Tables_number   1
_chemical_formula_structural   Ba2In2O5
_chemical_formula_sum   'Ba16 In16 O40'
_cell_volume   1243.54339983
_cell_formula_units_Z   8
loop_
 _symmetry_equiv_pos_site_id
 _symmetry_equiv_pos_as_xyz
  1  'x, y, z'
loop_
 _atom_site_type_symbol
 _atom_site_label
 _atom_site_symmetry_multiplicity
 _atom_site_fract_x
 _atom_site_fract_y
 _atom_site_fract_z
 _atom_site_occupancy
  Ba  Ba0  1  0.25000000  0.87767400  0.25268500  1
  Ba  Ba1  1  0.75000000  0.61162600  0.25485800  1
  Ba  Ba2  1  0.75000000  0.88189300  0.25690100  1
  Ba  Ba3  1  0.25000000  0.88189300  0.74309900  1
  Ba  Ba4  1  0.75000000  0.61698100  0.74319000  1
  Ba  Ba5  1  0.25000000  0.61698100  0.25681000  1
  Ba  Ba6  1  0.75000000  0.87767400  0.74731500  1
  Ba  Ba7  1  0.25000000  0.61162600  0.74514200  1
  Ba  Ba8  1  0.75000000  0.37767400  0.25268500  1
  Ba  Ba9  1  0.25000000  0.11162600  0.25485800  1
  Ba  Ba10  1  0.25000000  0.38189300  0.25690100  1
  Ba  Ba11  1  0.75000000  0.38189300  0.74309900  1
  Ba  Ba12  1  0.25000000  0.11698100  0.74319000  1
  Ba  Ba13  1  0.75000000  0.11698100  0.25681000  1
  Ba  Ba14  1  0.25000000  0.37767400  0.74731500  1
  Ba  Ba15  1  0.75000000  0.11162600  0.74514200  1
  In  In16  1  0.50000000  0.50456900  0.00000000  1
  In  In17  1  0.50000000  0.74407600  0.00000000  1
  In  In18  1  0.50000000  0.75081700  0.50000000  1
  In  In19  1  0.00000000  0.99755700  0.50000000  1
  In  In20  1  0.00000000  0.74407600  0.00000000  1
  In  In21  1  0.00000000  0.50456900  0.00000000  1
  In  In22  1  0.50000000  0.99755700  0.50000000  1
  In  In23  1  0.00000000  0.75081700  0.50000000  1
  In  In24  1  0.00000000  0.00456900  0.00000000  1
  In  In25  1  0.00000000  0.24407600  0.00000000  1
  In  In26  1  0.00000000  0.25081700  0.50000000  1
  In  In27  1  0.50000000  0.49755700  0.50000000  1
  In  In28  1  0.50000000  0.24407600  0.00000000  1
  In  In29  1  0.50000000  0.00456900  0.00000000  1
  In  In30  1  0.00000000  0.49755700  0.50000000  1
  In  In31  1  0.50000000  0.25081700  0.50000000  1
  O  O32  1  0.50000000  0.62518700  0.00000000  1
  O  O33  1  0.48282850  0.75483350  0.25519700  1
  O  O34  1  0.49927000  0.99561200  0.24574400  1
  O  O35  1  0.75000000  0.51113900  0.50086800  1
  O  O36  1  0.75000000  0.96869100  0.00002700  1
  O  O37  1  0.75000000  0.78473600  0.01341000  1
  O  O38  1  0.50000000  0.86991500  0.50000000  1
  O  O39  1  0.50000000  0.63288900  0.50000000  1
  O  O40  1  0.00000000  0.62518700  0.00000000  1
  O  O41  1  0.25000000  0.51113900  0.49913200  1
  O  O42  1  0.25000000  0.96869100  0.99997300  1
  O  O43  1  0.00073000  0.99561200  0.24574400  1
  O  O44  1  0.50073000  0.99561200  0.75425600  1
  O  O45  1  0.51717150  0.75483350  0.74480300  1
  O  O46  1  0.01717150  0.75483350  0.25519700  1
  O  O47  1  0.00000000  0.86991500  0.50000000  1
  O  O48  1  0.00000000  0.63288900  0.50000000  1
  O  O49  1  0.98282850  0.75483350  0.74480300  1
  O  O50  1  0.99927000  0.99561200  0.75425600  1
  O  O51  1  0.25000000  0.78473600  0.98659000  1
  O  O52  1  0.00000000  0.12518700  0.00000000  1
  O  O53  1  0.98282850  0.25483350  0.25519700  1
  O  O54  1  0.99927000  0.49561200  0.24574400  1
  O  O55  1  0.25000000  0.01113900  0.50086800  1
  O  O56  1  0.25000000  0.46869100  0.00002700  1
  O  O57  1  0.25000000  0.28473600  0.01341000  1
  O  O58  1  0.00000000  0.36991500  0.50000000  1
  O  O59  1  0.00000000  0.13288900  0.50000000  1
  O  O60  1  0.50000000  0.12518700  0.00000000  1
  O  O61  1  0.75000000  0.01113900  0.49913200  1
  O  O62  1  0.75000000  0.46869100  0.99997300  1
  O  O63  1  0.50073000  0.49561200  0.24574400  1
  O  O64  1  0.00073000  0.49561200  0.75425600  1
  O  O65  1  0.01717150  0.25483350  0.74480300  1
  O  O66  1  0.51717150  0.25483350  0.25519700  1
  O  O67  1  0.50000000  0.36991500  0.50000000  1
  O  O68  1  0.50000000  0.13288900  0.50000000  1
  O  O69  1  0.48282850  0.25483350  0.74480300  1
  O  O70  1  0.49927000  0.49561200  0.75425600  1
  O  O71  1  0.75000000  0.28473600  0.98659000  1
