# generated using pymatgen
data_Li6MnO4F
_symmetry_space_group_name_H-M   'P 1'
_cell_length_a   5.00244551
_cell_length_b   9.50572101
_cell_length_c   5.28751100
_cell_angle_alpha   90.00000000
_cell_angle_beta   116.27626541
_cell_angle_gamma   90.00000000
_symmetry_Int_Tables_number   1
_chemical_formula_structural   Li6MnO4F
_chemical_formula_sum   'Li12 Mn2 O8 F2'
_cell_volume   225.45055198
_cell_formula_units_Z   2
loop_
 _symmetry_equiv_pos_site_id
 _symmetry_equiv_pos_as_xyz
  1  'x, y, z'
loop_
 _atom_site_type_symbol
 _atom_site_label
 _atom_site_symmetry_multiplicity
 _atom_site_fract_x
 _atom_site_fract_y
 _atom_site_fract_z
 _atom_site_occupancy
  Li  Li0  1  0.94321425  0.25349150  0.59842725  1
  Li  Li1  1  0.05678575  0.75349150  0.40157275  1
  Li  Li2  1  0.68904625  0.75797350  0.62864525  1
  Li  Li3  1  0.31095375  0.25797350  0.37135475  1
  Li  Li4  1  0.22242675  0.99895250  0.51147775  1
  Li  Li5  1  0.77757325  0.49895250  0.48852225  1
  Li  Li6  1  0.28435325  0.49531200  0.54158075  1
  Li  Li7  1  0.71564675  0.99531200  0.45841925  1
  Li  Li8  1  0.72818975  0.54912200  0.99150925  1
  Li  Li9  1  0.27181025  0.04912200  0.00849075  1
  Li  Li10  1  0.84548025  0.94097850  0.00658925  1
  Li  Li11  1  0.15451975  0.44097850  0.99341075  1
  Mn  Mn12  1  0.70376225  0.25926200  0.00890775  1
  Mn  Mn13  1  0.29623775  0.75926200  0.99109225  1
  O  O14  1  0.11428025  0.61081300  0.72437075  1
  O  O15  1  0.88571975  0.11081300  0.27562925  1
  O  O16  1  0.04802225  0.89933150  0.72263625  1
  O  O17  1  0.95197775  0.39933150  0.27736375  1
  O  O18  1  0.64279725  0.38548250  0.70432925  1
  O  O19  1  0.35720275  0.88548250  0.29567075  1
  O  O20  1  0.71946075  0.74843950  0.01855675  1
  O  O21  1  0.28053925  0.24843950  0.98144325  1
  F  F22  1  0.58137125  0.10052200  0.68546175  1
  F  F23  1  0.41862875  0.60052200  0.31453825  1
