# generated using pymatgen
data_Ba2Hf7O16
_symmetry_space_group_name_H-M   'P 1'
_cell_length_a   6.46740817
_cell_length_b   6.46740817
_cell_length_c   27.11099835
_cell_angle_alpha   90.00000000
_cell_angle_beta   90.00000000
_cell_angle_gamma   120.00000000
_symmetry_Int_Tables_number   1
_chemical_formula_structural   Ba2Hf7O16
_chemical_formula_sum   'Ba6 Hf21 O48'
_cell_volume   982.05697296
_cell_formula_units_Z   3
loop_
 _symmetry_equiv_pos_site_id
 _symmetry_equiv_pos_as_xyz
  1  'x, y, z'
loop_
 _atom_site_type_symbol
 _atom_site_label
 _atom_site_symmetry_multiplicity
 _atom_site_fract_x
 _atom_site_fract_y
 _atom_site_fract_z
 _atom_site_occupancy
  Ba  Ba0  1  0.33333333  0.66666667  0.33274967  1
  Ba  Ba1  1  0.33333333  0.66666667  0.00058367  1
  Ba  Ba2  1  0.00000000  0.00000000  0.66608300  1
  Ba  Ba3  1  0.00000000  0.00000000  0.33391700  1
  Ba  Ba4  1  0.66666667  0.33333333  0.99941633  1
  Ba  Ba5  1  0.66666667  0.33333333  0.66725033  1
  Hf  Hf6  1  0.00000000  0.00000000  0.00000000  1
  Hf  Hf7  1  0.63514567  0.63254933  0.11663833  1
  Hf  Hf8  1  0.66926300  0.96847900  0.21669500  1
  Hf  Hf9  1  0.29921600  0.33073700  0.21669500  1
  Hf  Hf10  1  0.36745067  0.00259633  0.11663833  1
  Hf  Hf11  1  0.99740367  0.36485433  0.11663833  1
  Hf  Hf12  1  0.03152100  0.70078400  0.21669500  1
  Hf  Hf13  1  0.66666667  0.33333333  0.33333333  1
  Hf  Hf14  1  0.30181233  0.96588267  0.44997167  1
  Hf  Hf15  1  0.33592967  0.30181233  0.55002833  1
  Hf  Hf16  1  0.96588267  0.66407033  0.55002833  1
  Hf  Hf17  1  0.03411733  0.33592967  0.44997167  1
  Hf  Hf18  1  0.66407033  0.69818767  0.44997167  1
  Hf  Hf19  1  0.69818767  0.03411733  0.55002833  1
  Hf  Hf20  1  0.33333333  0.66666667  0.66666667  1
  Hf  Hf21  1  0.96847900  0.29921600  0.78330500  1
  Hf  Hf22  1  0.00259633  0.63514567  0.88336167  1
  Hf  Hf23  1  0.63254933  0.99740367  0.88336167  1
  Hf  Hf24  1  0.70078400  0.66926300  0.78330500  1
  Hf  Hf25  1  0.33073700  0.03152100  0.78330500  1
  Hf  Hf26  1  0.36485433  0.36745067  0.88336167  1
  O  O27  1  0.66666667  0.33333333  0.10012933  1
  O  O28  1  0.73913167  0.73271133  0.04532933  1
  O  O29  1  0.65376833  0.60676467  0.19594967  1
  O  O30  1  0.71367033  0.98710167  0.13738367  1
  O  O31  1  0.67308700  0.07246500  0.28800400  1
  O  O32  1  0.39937800  0.32691300  0.28800400  1
  O  O33  1  0.27343133  0.28632967  0.13738367  1
  O  O34  1  0.33333333  0.66666667  0.23365067  1
  O  O35  1  0.33333333  0.66666667  0.09968267  1
  O  O36  1  0.39323533  0.04700367  0.19594967  1
  O  O37  1  0.26728867  0.00642033  0.04532933  1
  O  O38  1  0.99357967  0.26086833  0.04532933  1
  O  O39  1  0.95299633  0.34623167  0.19594967  1
  O  O40  1  0.01289833  0.72656867  0.13738367  1
  O  O41  1  0.92753500  0.60062200  0.28800400  1
  O  O42  1  0.00000000  0.00000000  0.23320400  1
  O  O43  1  0.33333333  0.66666667  0.43346267  1
  O  O44  1  0.40579833  0.06604467  0.37866267  1
  O  O45  1  0.32043500  0.94009800  0.52928300  1
  O  O46  1  0.38033700  0.32043500  0.47071700  1
  O  O47  1  0.33975367  0.40579833  0.62133733  1
  O  O48  1  0.06604467  0.66024633  0.62133733  1
  O  O49  1  0.94009800  0.61966300  0.47071700  1
  O  O50  1  0.00000000  0.00000000  0.56698400  1
  O  O51  1  0.00000000  0.00000000  0.43301600  1
  O  O52  1  0.05990200  0.38033700  0.52928300  1
  O  O53  1  0.93395533  0.33975367  0.37866267  1
  O  O54  1  0.66024633  0.59420167  0.37866267  1
  O  O55  1  0.61966300  0.67956500  0.52928300  1
  O  O56  1  0.67956500  0.05990200  0.47071700  1
  O  O57  1  0.59420167  0.93395533  0.62133733  1
  O  O58  1  0.66666667  0.33333333  0.56653733  1
  O  O59  1  0.00000000  0.00000000  0.76679600  1
  O  O60  1  0.07246500  0.39937800  0.71199600  1
  O  O61  1  0.98710167  0.27343133  0.86261633  1
  O  O62  1  0.04700367  0.65376833  0.80405033  1
  O  O63  1  0.00642033  0.73913167  0.95467067  1
  O  O64  1  0.73271133  0.99357967  0.95467067  1
  O  O65  1  0.60676467  0.95299633  0.80405033  1
  O  O66  1  0.66666667  0.33333333  0.90031733  1
  O  O67  1  0.66666667  0.33333333  0.76634933  1
  O  O68  1  0.72656867  0.71367033  0.86261633  1
  O  O69  1  0.60062200  0.67308700  0.71199600  1
  O  O70  1  0.32691300  0.92753500  0.71199600  1
  O  O71  1  0.28632967  0.01289833  0.86261633  1
  O  O72  1  0.34623167  0.39323533  0.80405033  1
  O  O73  1  0.26086833  0.26728867  0.95467067  1
  O  O74  1  0.33333333  0.66666667  0.89987067  1
