# generated using pymatgen
data_K2In2P2HO10
_symmetry_space_group_name_H-M   'P 1'
_cell_length_a   9.44768000
_cell_length_b   9.53041300
_cell_length_c   11.31399700
_cell_angle_alpha   90.00000000
_cell_angle_beta   90.00000000
_cell_angle_gamma   90.00000000
_symmetry_Int_Tables_number   1
_chemical_formula_structural   K2In2P2HO10
_chemical_formula_sum   'K8 In8 P8 H4 O40'
_cell_volume   1018.71559687
_cell_formula_units_Z   4
loop_
 _symmetry_equiv_pos_site_id
 _symmetry_equiv_pos_as_xyz
  1  'x, y, z'
loop_
 _atom_site_type_symbol
 _atom_site_label
 _atom_site_symmetry_multiplicity
 _atom_site_fract_x
 _atom_site_fract_y
 _atom_site_fract_z
 _atom_site_occupancy
  K  K0  1  0.98461700  0.97393500  0.40550900  1
  K  K1  1  0.51538300  0.02606500  0.90550900  1
  K  K2  1  0.48461700  0.52606500  0.59449100  1
  K  K3  1  0.01538300  0.47393500  0.09449100  1
  K  K4  1  0.25990400  0.63096400  0.33514300  1
  K  K5  1  0.24009600  0.36903600  0.83514300  1
  K  K6  1  0.75990400  0.86903600  0.66485700  1
  K  K7  1  0.74009600  0.13096400  0.16485700  1
  In  In8  1  0.85428300  0.60723700  0.37972500  1
  In  In9  1  0.64571700  0.39276300  0.87972500  1
  In  In10  1  0.35428300  0.89276300  0.62027500  1
  In  In11  1  0.14571700  0.10723700  0.12027500  1
  In  In12  1  0.60152200  0.65500700  0.12085100  1
  In  In13  1  0.89847800  0.34499300  0.62085100  1
  In  In14  1  0.10152200  0.84499300  0.87914900  1
  In  In15  1  0.39847800  0.15500700  0.37914900  1
  P  P16  1  0.06789000  0.65979200  0.62339900  1
  P  P17  1  0.43211000  0.34020800  0.12339900  1
  P  P18  1  0.56789000  0.84020800  0.37660100  1
  P  P19  1  0.93211000  0.15979200  0.87660100  1
  P  P20  1  0.92072200  0.81253300  0.13310000  1
  P  P21  1  0.57927800  0.18746700  0.63310000  1
  P  P22  1  0.42072200  0.68746700  0.86690000  1
  P  P23  1  0.07927800  0.31253300  0.36690000  1
  H  H24  1  0.66742300  0.43365700  0.26295400  1
  H  H25  1  0.83257700  0.56634300  0.76295400  1
  H  H26  1  0.16742300  0.06634300  0.73704600  1
  H  H27  1  0.33257700  0.93365700  0.23704600  1
  O  O28  1  0.97174000  0.71064600  0.51953500  1
  O  O29  1  0.52826000  0.28935400  0.01953500  1
  O  O30  1  0.47174000  0.78935400  0.48046500  1
  O  O31  1  0.02826000  0.21064600  0.98046500  1
  O  O32  1  0.50224600  0.77174800  0.26336600  1
  O  O33  1  0.99775400  0.22825200  0.76336600  1
  O  O34  1  0.00224600  0.72825200  0.73663400  1
  O  O35  1  0.49775400  0.27174800  0.23663400  1
  O  O36  1  0.42927800  0.50203500  0.13622600  1
  O  O37  1  0.07072200  0.49796500  0.63622600  1
  O  O38  1  0.92927800  0.99796500  0.86377400  1
  O  O39  1  0.57072200  0.00203500  0.36377400  1
  O  O40  1  0.75761700  0.82097000  0.12008900  1
  O  O41  1  0.74238300  0.17903000  0.62008900  1
  O  O42  1  0.25761700  0.67903000  0.87991100  1
  O  O43  1  0.24238300  0.32097000  0.37991100  1
  O  O44  1  0.72584100  0.51412700  0.24089800  1
  O  O45  1  0.77415900  0.48587300  0.74089800  1
  O  O46  1  0.22584100  0.98587300  0.75910200  1
  O  O47  1  0.27415900  0.01412700  0.25910200  1
  O  O48  1  0.75953300  0.47206700  0.50867700  1
  O  O49  1  0.74046700  0.52793300  0.00867700  1
  O  O50  1  0.25953300  0.02793300  0.49132300  1
  O  O51  1  0.24046700  0.97206700  0.99132300  1
  O  O52  1  0.49157200  0.75393200  0.97736400  1
  O  O53  1  0.00842800  0.24606800  0.47736400  1
  O  O54  1  0.99157200  0.74606800  0.02263600  1
  O  O55  1  0.50842800  0.25393200  0.52263600  1
  O  O56  1  0.96650100  0.72072900  0.24099100  1
  O  O57  1  0.53349900  0.27927100  0.74099100  1
  O  O58  1  0.46650100  0.77927100  0.75900900  1
  O  O59  1  0.03349900  0.22072900  0.25900900  1
  O  O60  1  0.02953200  0.46499400  0.34424400  1
  O  O61  1  0.47046800  0.53500600  0.84424400  1
  O  O62  1  0.52953200  0.03500600  0.65575600  1
  O  O63  1  0.97046800  0.96499400  0.15575600  1
  O  O64  1  0.72133800  0.79243100  0.40305100  1
  O  O65  1  0.77866200  0.20756900  0.90305100  1
  O  O66  1  0.22133800  0.70756900  0.59694900  1
  O  O67  1  0.27866200  0.29243100  0.09694900  1
