# generated using pymatgen
data_Na5Mn2P2(CO7)2
_symmetry_space_group_name_H-M   'P 1'
_cell_length_a   5.23741000
_cell_length_b   9.02573136
_cell_length_c   13.48661056
_cell_angle_alpha   89.93225540
_cell_angle_beta   89.94916854
_cell_angle_gamma   89.27510336
_symmetry_Int_Tables_number   1
_chemical_formula_structural   Na5Mn2P2(CO7)2
_chemical_formula_sum   'Na10 Mn4 P4 C4 O28'
_cell_volume   637.48000134
_cell_formula_units_Z   2
loop_
 _symmetry_equiv_pos_site_id
 _symmetry_equiv_pos_as_xyz
  1  'x, y, z'
loop_
 _atom_site_type_symbol
 _atom_site_label
 _atom_site_symmetry_multiplicity
 _atom_site_fract_x
 _atom_site_fract_y
 _atom_site_fract_z
 _atom_site_occupancy
  Na  Na0  1  0.24195100  0.91922400  0.37390000  1
  Na  Na1  1  0.75630500  0.75010600  0.75509700  1
  Na  Na2  1  0.75784100  0.76209600  0.99626300  1
  Na  Na3  1  0.75361000  0.74905700  0.24986200  1
  Na  Na4  1  0.75289500  0.74080200  0.49932300  1
  Na  Na5  1  0.24215900  0.23790400  0.00373700  1
  Na  Na6  1  0.24369500  0.24989400  0.24490300  1
  Na  Na7  1  0.24710500  0.25919800  0.50067700  1
  Na  Na8  1  0.24639000  0.25094300  0.75013800  1
  Na  Na9  1  0.75804900  0.08077600  0.62610000  1
  Mn  Mn10  1  0.22260800  0.64484300  0.12367300  1
  Mn  Mn11  1  0.22077300  0.64101900  0.62608700  1
  Mn  Mn12  1  0.77739200  0.35515700  0.87632700  1
  Mn  Mn13  1  0.77922700  0.35898100  0.37391300  1
  P  P14  1  0.29522400  0.57742100  0.87598100  1
  P  P15  1  0.29710100  0.58552200  0.37388800  1
  P  P16  1  0.70477600  0.42257900  0.12401900  1
  P  P17  1  0.70289900  0.41447800  0.62611200  1
  C  C18  1  0.27575600  0.92528700  0.12485900  1
  C  C19  1  0.26608100  0.93852200  0.62459700  1
  C  C20  1  0.73391900  0.06147800  0.37540300  1
  C  C21  1  0.72424400  0.07471300  0.87514100  1
  O  O22  1  0.72939100  0.93539400  0.87196400  1
  O  O23  1  0.71483500  0.91878300  0.37670500  1
  O  O24  1  0.06070800  0.84812800  0.12348100  1
  O  O25  1  0.04256500  0.87668100  0.62425400  1
  O  O26  1  0.47010400  0.85420600  0.62456100  1
  O  O27  1  0.47992000  0.84237300  0.12488300  1
  O  O28  1  0.22336400  0.66859800  0.78379500  1
  O  O29  1  0.22733300  0.66759000  0.97007500  1
  O  O30  1  0.21725600  0.67829100  0.28037300  1
  O  O31  1  0.21191800  0.67939400  0.46498500  1
  O  O32  1  0.59625700  0.54853100  0.87443800  1
  O  O33  1  0.59376000  0.56854200  0.37516100  1
  O  O34  1  0.83564100  0.57600800  0.12317800  1
  O  O35  1  0.82455700  0.56992200  0.62686500  1
  O  O36  1  0.16435900  0.42399200  0.87682200  1
  O  O37  1  0.17544300  0.43007800  0.37313500  1
  O  O38  1  0.40374300  0.45146900  0.12556200  1
  O  O39  1  0.40624000  0.43145800  0.62483900  1
  O  O40  1  0.77266700  0.33241000  0.02992500  1
  O  O41  1  0.77663600  0.33140200  0.21620500  1
  O  O42  1  0.78808200  0.32060600  0.53501500  1
  O  O43  1  0.78274400  0.32170900  0.71962700  1
  O  O44  1  0.52008000  0.15762700  0.87511700  1
  O  O45  1  0.52989600  0.14579400  0.37543900  1
  O  O46  1  0.93929200  0.15187200  0.87651900  1
  O  O47  1  0.95743500  0.12331900  0.37574600  1
  O  O48  1  0.27060900  0.06460600  0.12803600  1
  O  O49  1  0.28516500  0.08121700  0.62329500  1
