# generated using pymatgen
data_V(CO3)2
_symmetry_space_group_name_H-M   'P 1'
_cell_length_a   8.45019907
_cell_length_b   8.91127145
_cell_length_c   6.84299231
_cell_angle_alpha   90.00000000
_cell_angle_beta   110.08241090
_cell_angle_gamma   90.00000000
_symmetry_Int_Tables_number   1
_chemical_formula_structural   V(CO3)2
_chemical_formula_sum   'V4 C8 O24'
_cell_volume   483.96127651
_cell_formula_units_Z   4
loop_
 _symmetry_equiv_pos_site_id
 _symmetry_equiv_pos_as_xyz
  1  'x, y, z'
loop_
 _atom_site_type_symbol
 _atom_site_label
 _atom_site_symmetry_multiplicity
 _atom_site_fract_x
 _atom_site_fract_y
 _atom_site_fract_z
 _atom_site_occupancy
  V  V0  1  0.50000000  0.32578100  0.75000000  1
  V  V1  1  0.50000000  0.67421900  0.25000000  1
  V  V2  1  0.00000000  0.82578100  0.75000000  1
  V  V3  1  0.00000000  0.17421900  0.25000000  1
  C  C4  1  0.79040600  0.10106600  0.80542300  1
  C  C5  1  0.79040600  0.89893400  0.30542300  1
  C  C6  1  0.20959400  0.10106600  0.69457700  1
  C  C7  1  0.20959400  0.89893400  0.19457700  1
  C  C8  1  0.29040600  0.60106600  0.80542300  1
  C  C9  1  0.29040600  0.39893400  0.30542300  1
  C  C10  1  0.70959400  0.60106600  0.69457700  1
  C  C11  1  0.70959400  0.39893400  0.19457700  1
  O  O12  1  0.59462175  0.32841475  0.04088450  1
  O  O13  1  0.40537825  0.32841475  0.45911550  1
  O  O14  1  0.59462175  0.67158525  0.54088450  1
  O  O15  1  0.40537825  0.67158525  0.95911550  1
  O  O16  1  0.82280400  0.02666300  0.24384550  1
  O  O17  1  0.82280400  0.97333700  0.74384550  1
  O  O18  1  0.17719600  0.02666300  0.25615450  1
  O  O19  1  0.17719600  0.97333700  0.75615450  1
  O  O20  1  0.64703575  0.16052575  0.71604150  1
  O  O21  1  0.64703575  0.83947425  0.21604150  1
  O  O22  1  0.35296425  0.16052575  0.78395850  1
  O  O23  1  0.35296425  0.83947425  0.28395850  1
  O  O24  1  0.09462175  0.82841475  0.04088450  1
  O  O25  1  0.90537825  0.82841475  0.45911550  1
  O  O26  1  0.09462175  0.17158525  0.54088450  1
  O  O27  1  0.90537825  0.17158525  0.95911550  1
  O  O28  1  0.32280400  0.52666300  0.24384550  1
  O  O29  1  0.32280400  0.47333700  0.74384550  1
  O  O30  1  0.67719600  0.52666300  0.25615450  1
  O  O31  1  0.67719600  0.47333700  0.75615450  1
  O  O32  1  0.14703575  0.66052575  0.71604150  1
  O  O33  1  0.14703575  0.33947425  0.21604150  1
  O  O34  1  0.85296425  0.66052575  0.78395850  1
  O  O35  1  0.85296425  0.33947425  0.28395850  1
