# generated using pymatgen
data_Al2Si2H4O9
_symmetry_space_group_name_H-M   'P 1'
_cell_length_a   5.21517200
_cell_length_b   9.05749600
_cell_length_c   14.58991435
_cell_angle_alpha   90.00000000
_cell_angle_beta   96.42165909
_cell_angle_gamma   90.00000000
_symmetry_Int_Tables_number   1
_chemical_formula_structural   Al2Si2H4O9
_chemical_formula_sum   'Al8 Si8 H16 O36'
_cell_volume   684.85093955
_cell_formula_units_Z   4
loop_
 _symmetry_equiv_pos_site_id
 _symmetry_equiv_pos_as_xyz
  1  'x, y, z'
loop_
 _atom_site_type_symbol
 _atom_site_label
 _atom_site_symmetry_multiplicity
 _atom_site_fract_x
 _atom_site_fract_y
 _atom_site_fract_z
 _atom_site_occupancy
  Al  Al0  1  0.91443500  0.74548000  0.73082400  1
  Al  Al1  1  0.41443500  0.75452000  0.23082400  1
  Al  Al2  1  0.42008050  0.58098650  0.72914500  1
  Al  Al3  1  0.92008050  0.91901350  0.22914500  1
  Al  Al4  1  0.41443500  0.24548000  0.73082400  1
  Al  Al5  1  0.91443500  0.25452000  0.23082400  1
  Al  Al6  1  0.92008050  0.08098650  0.72914500  1
  Al  Al7  1  0.42008050  0.41901350  0.22914500  1
  Si  Si8  1  0.01349600  0.59896600  0.53935800  1
  Si  Si9  1  0.51349600  0.90103400  0.03935800  1
  Si  Si10  1  0.99999050  0.92734650  0.53869300  1
  Si  Si11  1  0.49999050  0.57265350  0.03869300  1
  Si  Si12  1  0.51349600  0.09896600  0.53935800  1
  Si  Si13  1  0.01349600  0.40103400  0.03935800  1
  Si  Si14  1  0.49999050  0.42734650  0.53869300  1
  Si  Si15  1  0.99999050  0.07265350  0.03869300  1
  H  H16  1  0.49287300  0.81685600  0.65395700  1
  H  H17  1  0.99287300  0.68314400  0.15395700  1
  H  H18  1  0.29611300  0.74110000  0.85830200  1
  H  H19  1  0.79611300  0.75890000  0.35830200  1
  H  H20  1  0.80856000  0.55238500  0.85177400  1
  H  H21  1  0.30856000  0.94761500  0.35177400  1
  H  H22  1  0.78177100  0.91704400  0.85635500  1
  H  H23  1  0.28177100  0.58295600  0.35635500  1
  H  H24  1  0.99287300  0.31685600  0.65395700  1
  H  H25  1  0.49287300  0.18314400  0.15395700  1
  H  H26  1  0.79611300  0.24110000  0.85830200  1
  H  H27  1  0.29611300  0.25890000  0.35830200  1
  H  H28  1  0.30856000  0.05238500  0.85177400  1
  H  H29  1  0.80856000  0.44761500  0.35177400  1
  H  H30  1  0.28177100  0.41704400  0.85635500  1
  H  H31  1  0.78177100  0.08295600  0.35635500  1
  O  O32  1  0.96014300  0.76219800  0.49192500  1
  O  O33  1  0.46014300  0.73780200  0.99192500  1
  O  O34  1  0.25760000  0.52805600  0.49164200  1
  O  O35  1  0.75760000  0.97194400  0.99164200  1
  O  O36  1  0.26570550  0.99413050  0.50495000  1
  O  O37  1  0.76570550  0.50586950  0.00495000  1
  O  O38  1  0.07949300  0.60925900  0.65026400  1
  O  O39  1  0.57949300  0.89074100  0.15026400  1
  O  O40  1  0.00518750  0.91778650  0.64982500  1
  O  O41  1  0.50518750  0.58221350  0.14982500  1
  O  O42  1  0.58573550  0.72333650  0.65606400  1
  O  O43  1  0.08573550  0.77666350  0.15606400  1
  O  O44  1  0.24290500  0.71915800  0.79372800  1
  O  O45  1  0.74290500  0.78084200  0.29372800  1
  O  O46  1  0.74433800  0.60596400  0.79659200  1
  O  O47  1  0.24433800  0.89403600  0.29659200  1
  O  O48  1  0.82617400  0.91449200  0.79347200  1
  O  O49  1  0.32617400  0.58550800  0.29347200  1
  O  O50  1  0.46014300  0.26219800  0.49192500  1
  O  O51  1  0.96014300  0.23780200  0.99192500  1
  O  O52  1  0.75760000  0.02805600  0.49164200  1
  O  O53  1  0.25760000  0.47194400  0.99164200  1
  O  O54  1  0.76570550  0.49413050  0.50495000  1
  O  O55  1  0.26570550  0.00586950  0.00495000  1
  O  O56  1  0.57949300  0.10925900  0.65026400  1
  O  O57  1  0.07949300  0.39074100  0.15026400  1
  O  O58  1  0.50518750  0.41778650  0.64982500  1
  O  O59  1  0.00518750  0.08221350  0.14982500  1
  O  O60  1  0.08573550  0.22333650  0.65606400  1
  O  O61  1  0.58573550  0.27666350  0.15606400  1
  O  O62  1  0.74290500  0.21915800  0.79372800  1
  O  O63  1  0.24290500  0.28084200  0.29372800  1
  O  O64  1  0.24433800  0.10596400  0.79659200  1
  O  O65  1  0.74433800  0.39403600  0.29659200  1
  O  O66  1  0.32617400  0.41449200  0.79347200  1
  O  O67  1  0.82617400  0.08550800  0.29347200  1
