# generated using pymatgen
data_LiV2S2(O4F3)2
_symmetry_space_group_name_H-M   'P 1'
_cell_length_a   7.95278500
_cell_length_b   7.18146600
_cell_length_c   12.64978843
_cell_angle_alpha   90.00000000
_cell_angle_beta   125.99018015
_cell_angle_gamma   90.00000000
_symmetry_Int_Tables_number   1
_chemical_formula_structural   LiV2S2(O4F3)2
_chemical_formula_sum   'Li2 V4 S4 O16 F12'
_cell_volume   584.55761970
_cell_formula_units_Z   2
loop_
 _symmetry_equiv_pos_site_id
 _symmetry_equiv_pos_as_xyz
  1  'x, y, z'
loop_
 _atom_site_type_symbol
 _atom_site_label
 _atom_site_symmetry_multiplicity
 _atom_site_fract_x
 _atom_site_fract_y
 _atom_site_fract_z
 _atom_site_occupancy
  Li  Li0  1  0.63852800  0.10849200  0.72123400  1
  Li  Li1  1  0.63852800  0.89150800  0.22123400  1
  V  V2  1  0.99579400  0.75369300  0.99989900  1
  V  V3  1  0.00903100  0.74622600  0.51067400  1
  V  V4  1  0.00903100  0.25377400  0.01067400  1
  V  V5  1  0.99579400  0.24630700  0.49989900  1
  S  S6  1  0.32735600  0.48398700  0.49988500  1
  S  S7  1  0.32735600  0.51601300  0.99988500  1
  S  S8  1  0.64912900  0.01161300  0.48636500  1
  S  S9  1  0.64912900  0.98838700  0.98636500  1
  O  O10  1  0.26633000  0.64198500  0.55404200  1
  O  O11  1  0.12655500  0.64783500  0.93209100  1
  O  O12  1  0.49859800  0.62105400  0.10725800  1
  O  O13  1  0.34215000  0.55298200  0.40016200  1
  O  O14  1  0.49859800  0.37894600  0.60725800  1
  O  O15  1  0.34215000  0.44701800  0.90016200  1
  O  O16  1  0.26633000  0.35801500  0.05404200  1
  O  O17  1  0.12655500  0.35216500  0.43209100  1
  O  O18  1  0.72143100  0.14441400  0.94106400  1
  O  O19  1  0.84461000  0.15232200  0.55560700  1
  O  O20  1  0.63770900  0.04591000  0.09165000  1
  O  O21  1  0.47269100  0.10443200  0.37646100  1
  O  O22  1  0.47269100  0.89556800  0.87646100  1
  O  O23  1  0.63770900  0.95409000  0.59165000  1
  O  O24  1  0.72143100  0.85558600  0.44106400  1
  O  O25  1  0.84461000  0.84767800  0.05560700  1
  F  F26  1  0.88694600  0.74099700  0.33478100  1
  F  F27  1  0.22376300  0.73359800  0.16175700  1
  F  F28  1  0.90093400  0.49105800  0.50081700  1
  F  F29  1  0.90093400  0.50894200  0.00081700  1
  F  F30  1  0.88694600  0.25900300  0.83478100  1
  F  F31  1  0.22376300  0.26640200  0.66175700  1
  F  F32  1  0.07939700  0.22803400  0.16991700  1
  F  F33  1  0.78754000  0.17969100  0.33586600  1
  F  F34  1  0.10937600  0.99640600  0.51150000  1
  F  F35  1  0.10937600  0.00359400  0.01150000  1
  F  F36  1  0.78754000  0.82030900  0.83586600  1
  F  F37  1  0.07939700  0.77196600  0.66991700  1
