# generated using pymatgen
data_Hf2N2O
_symmetry_space_group_name_H-M   'P 1'
_cell_length_a   6.42228400
_cell_length_b   6.42228400
_cell_length_c   27.32884400
_cell_angle_alpha   90.00000000
_cell_angle_beta   90.00000000
_cell_angle_gamma   90.00000000
_symmetry_Int_Tables_number   1
_chemical_formula_structural   Hf2N2O
_chemical_formula_sum   'Hf32 N32 O16'
_cell_volume   1127.19816939
_cell_formula_units_Z   16
loop_
 _symmetry_equiv_pos_site_id
 _symmetry_equiv_pos_as_xyz
  1  'x, y, z'
loop_
 _atom_site_type_symbol
 _atom_site_label
 _atom_site_symmetry_multiplicity
 _atom_site_fract_x
 _atom_site_fract_y
 _atom_site_fract_z
 _atom_site_occupancy
  Hf  Hf0  1  0.00000000  0.75000000  0.12500000  1
  Hf  Hf1  1  0.00000000  0.25000000  0.12500000  1
  Hf  Hf2  1  0.25000000  0.50000000  0.37500000  1
  Hf  Hf3  1  0.25096800  0.00000000  0.20756100  1
  Hf  Hf4  1  0.50000000  0.24903200  0.29243900  1
  Hf  Hf5  1  0.50000000  0.00000000  0.41832200  1
  Hf  Hf6  1  0.50000000  0.75096800  0.29243900  1
  Hf  Hf7  1  0.50000000  0.50000000  0.16832200  1
  Hf  Hf8  1  0.74903200  0.00000000  0.20756100  1
  Hf  Hf9  1  0.75000000  0.50000000  0.37500000  1
  Hf  Hf10  1  0.25096800  0.50000000  0.04243900  1
  Hf  Hf11  1  0.50000000  0.00000000  0.08167800  1
  Hf  Hf12  1  0.00000000  0.00000000  0.33167800  1
  Hf  Hf13  1  0.00000000  0.75096800  0.45756100  1
  Hf  Hf14  1  0.00000000  0.24903200  0.45756100  1
  Hf  Hf15  1  0.74903200  0.50000000  0.04243900  1
  Hf  Hf16  1  0.50000000  0.25000000  0.62500000  1
  Hf  Hf17  1  0.50000000  0.75000000  0.62500000  1
  Hf  Hf18  1  0.75000000  0.00000000  0.87500000  1
  Hf  Hf19  1  0.75096800  0.50000000  0.70756100  1
  Hf  Hf20  1  0.00000000  0.74903200  0.79243900  1
  Hf  Hf21  1  0.00000000  0.50000000  0.91832200  1
  Hf  Hf22  1  0.00000000  0.25096800  0.79243900  1
  Hf  Hf23  1  0.00000000  0.00000000  0.66832200  1
  Hf  Hf24  1  0.24903200  0.50000000  0.70756100  1
  Hf  Hf25  1  0.25000000  0.00000000  0.87500000  1
  Hf  Hf26  1  0.75096800  0.00000000  0.54243900  1
  Hf  Hf27  1  0.00000000  0.50000000  0.58167800  1
  Hf  Hf28  1  0.50000000  0.50000000  0.83167800  1
  Hf  Hf29  1  0.50000000  0.25096800  0.95756100  1
  Hf  Hf30  1  0.50000000  0.74903200  0.95756100  1
  Hf  Hf31  1  0.24903200  0.00000000  0.54243900  1
  N  N32  1  0.23650600  0.00000000  0.12603600  1
  N  N33  1  0.26582200  0.00000000  0.28778100  1
  N  N34  1  0.50000000  0.76582200  0.21221900  1
  N  N35  1  0.50000000  0.23417800  0.21221900  1
  N  N36  1  0.50000000  0.73650600  0.37396400  1
  N  N37  1  0.50000000  0.26349400  0.37396400  1
  N  N38  1  0.73417800  0.00000000  0.28778100  1
  N  N39  1  0.23650600  0.50000000  0.12396400  1
  N  N40  1  0.76349400  0.00000000  0.12603600  1
  N  N41  1  0.76582200  0.00000000  0.46221900  1
  N  N42  1  0.00000000  0.73650600  0.37603600  1
  N  N43  1  0.50000000  0.26582200  0.03778100  1
  N  N44  1  0.50000000  0.73417800  0.03778100  1
  N  N45  1  0.00000000  0.26349400  0.37603600  1
  N  N46  1  0.23417800  0.00000000  0.46221900  1
  N  N47  1  0.76349400  0.50000000  0.12396400  1
  N  N48  1  0.73650600  0.50000000  0.62603600  1
  N  N49  1  0.76582200  0.50000000  0.78778100  1
  N  N50  1  0.00000000  0.26582200  0.71221900  1
  N  N51  1  0.00000000  0.73417800  0.71221900  1
  N  N52  1  0.00000000  0.23650600  0.87396400  1
  N  N53  1  0.00000000  0.76349400  0.87396400  1
  N  N54  1  0.23417800  0.50000000  0.78778100  1
  N  N55  1  0.73650600  0.00000000  0.62396400  1
  N  N56  1  0.26349400  0.50000000  0.62603600  1
  N  N57  1  0.26582200  0.50000000  0.96221900  1
  N  N58  1  0.50000000  0.23650600  0.87603600  1
  N  N59  1  0.00000000  0.76582200  0.53778100  1
  N  N60  1  0.00000000  0.23417800  0.53778100  1
  N  N61  1  0.50000000  0.76349400  0.87603600  1
  N  N62  1  0.73417800  0.50000000  0.96221900  1
  N  N63  1  0.26349400  0.00000000  0.62396400  1
  O  O64  1  0.29224800  0.50000000  0.29948000  1
  O  O65  1  0.00000000  0.29224800  0.04948000  1
  O  O66  1  0.00000000  0.70775200  0.04948000  1
  O  O67  1  0.70775200  0.50000000  0.29948000  1
  O  O68  1  0.79224800  0.50000000  0.45052000  1
  O  O69  1  0.00000000  0.79224800  0.20052000  1
  O  O70  1  0.00000000  0.20775200  0.20052000  1
  O  O71  1  0.20775200  0.50000000  0.45052000  1
  O  O72  1  0.79224800  0.00000000  0.79948000  1
  O  O73  1  0.50000000  0.79224800  0.54948000  1
  O  O74  1  0.50000000  0.20775200  0.54948000  1
  O  O75  1  0.20775200  0.00000000  0.79948000  1
  O  O76  1  0.29224800  0.00000000  0.95052000  1
  O  O77  1  0.50000000  0.29224800  0.70052000  1
  O  O78  1  0.50000000  0.70775200  0.70052000  1
  O  O79  1  0.70775200  0.00000000  0.95052000  1
