# generated using pymatgen
data_CaZn2H12(BrO)6
_symmetry_space_group_name_H-M   'P 1'
_cell_length_a   13.34768600
_cell_length_b   11.00510400
_cell_length_c   14.11669209
_cell_angle_alpha   90.00000000
_cell_angle_beta   111.42180576
_cell_angle_gamma   90.00000000
_symmetry_Int_Tables_number   1
_chemical_formula_structural   CaZn2H12(BrO)6
_chemical_formula_sum   'Ca4 Zn8 H48 Br24 O24'
_cell_volume   1930.38520937
_cell_formula_units_Z   4
loop_
 _symmetry_equiv_pos_site_id
 _symmetry_equiv_pos_as_xyz
  1  'x, y, z'
loop_
 _atom_site_type_symbol
 _atom_site_label
 _atom_site_symmetry_multiplicity
 _atom_site_fract_x
 _atom_site_fract_y
 _atom_site_fract_z
 _atom_site_occupancy
  Ca  Ca0  1  0.07070800  0.50000000  0.72316100  1
  Ca  Ca1  1  0.92929200  0.50000000  0.27683900  1
  Ca  Ca2  1  0.57070800  0.00000000  0.72316100  1
  Ca  Ca3  1  0.42929200  0.00000000  0.27683900  1
  Zn  Zn4  1  0.45780000  0.50000000  0.68714400  1
  Zn  Zn5  1  0.54220000  0.50000000  0.31285600  1
  Zn  Zn6  1  0.72247300  0.50000000  0.83955500  1
  Zn  Zn7  1  0.27752700  0.50000000  0.16044500  1
  Zn  Zn8  1  0.95780000  0.00000000  0.68714400  1
  Zn  Zn9  1  0.04220000  0.00000000  0.31285600  1
  Zn  Zn10  1  0.22247300  0.00000000  0.83955500  1
  Zn  Zn11  1  0.77752700  0.00000000  0.16044500  1
  H  H12  1  0.30286100  0.57159000  0.84788700  1
  H  H13  1  0.30286100  0.42841000  0.84788700  1
  H  H14  1  0.69713900  0.42841000  0.15211300  1
  H  H15  1  0.69713900  0.57159000  0.15211300  1
  H  H16  1  0.98290050  0.66166350  0.84927400  1
  H  H17  1  0.98290050  0.33833650  0.84927400  1
  H  H18  1  0.01709950  0.33833650  0.15072600  1
  H  H19  1  0.01709950  0.66166350  0.15072600  1
  H  H20  1  0.10698050  0.66535550  0.90397700  1
  H  H21  1  0.10698050  0.33464450  0.90397700  1
  H  H22  1  0.89301950  0.33464450  0.09602300  1
  H  H23  1  0.89301950  0.66535550  0.09602300  1
  H  H24  1  0.83720700  0.57121800  0.60101000  1
  H  H25  1  0.83720700  0.42878200  0.60101000  1
  H  H26  1  0.16279300  0.42878200  0.39899000  1
  H  H27  1  0.16279300  0.57121800  0.39899000  1
  H  H28  1  0.06081250  0.73468550  0.61358800  1
  H  H29  1  0.06081250  0.26531450  0.61358800  1
  H  H30  1  0.93918750  0.26531450  0.38641200  1
  H  H31  1  0.93918750  0.73468550  0.38641200  1
  H  H32  1  0.17295200  0.68096300  0.62074700  1
  H  H33  1  0.17295200  0.31903700  0.62074700  1
  H  H34  1  0.82704800  0.31903700  0.37925300  1
  H  H35  1  0.82704800  0.68096300  0.37925300  1
  H  H36  1  0.80286100  0.07159000  0.84788700  1
  H  H37  1  0.80286100  0.92841000  0.84788700  1
  H  H38  1  0.19713900  0.92841000  0.15211300  1
  H  H39  1  0.19713900  0.07159000  0.15211300  1
  H  H40  1  0.48290050  0.16166350  0.84927400  1
  H  H41  1  0.48290050  0.83833650  0.84927400  1
  H  H42  1  0.51709950  0.83833650  0.15072600  1
  H  H43  1  0.51709950  0.16166350  0.15072600  1
  H  H44  1  0.60698050  0.16535550  0.90397700  1
  H  H45  1  0.60698050  0.83464450  0.90397700  1
  H  H46  1  0.39301950  0.83464450  0.09602300  1
  H  H47  1  0.39301950  0.16535550  0.09602300  1
  H  H48  1  0.33720700  0.07121800  0.60101000  1
  H  H49  1  0.33720700  0.92878200  0.60101000  1
  H  H50  1  0.66279300  0.92878200  0.39899000  1
  H  H51  1  0.66279300  0.07121800  0.39899000  1
  H  H52  1  0.56081250  0.23468550  0.61358800  1
  H  H53  1  0.56081250  0.76531450  0.61358800  1
  H  H54  1  0.43918750  0.76531450  0.38641200  1
  H  H55  1  0.43918750  0.23468550  0.38641200  1
  H  H56  1  0.67295200  0.18096300  0.62074700  1
  H  H57  1  0.67295200  0.81903700  0.62074700  1
  H  H58  1  0.32704800  0.81903700  0.37925300  1
  H  H59  1  0.32704800  0.18096300  0.37925300  1
  Br  Br60  1  0.55350900  0.50000000  0.87575900  1
  Br  Br61  1  0.44649100  0.50000000  0.12424100  1
  Br  Br62  1  0.62903400  0.50000000  0.64973600  1
  Br  Br63  1  0.37096600  0.50000000  0.35026400  1
  Br  Br64  1  0.85926250  0.18108450  0.61870200  1
  Br  Br65  1  0.85926250  0.81891550  0.61870200  1
  Br  Br66  1  0.14073750  0.81891550  0.38129800  1
  Br  Br67  1  0.14073750  0.18108450  0.38129800  1
  Br  Br68  1  0.82545550  0.68202650  0.89797400  1
  Br  Br69  1  0.82545550  0.31797350  0.89797400  1
  Br  Br70  1  0.17454450  0.31797350  0.10202600  1
  Br  Br71  1  0.17454450  0.68202650  0.10202600  1
  Br  Br72  1  0.05350900  0.00000000  0.87575900  1
  Br  Br73  1  0.94649100  0.00000000  0.12424100  1
  Br  Br74  1  0.12903400  0.00000000  0.64973600  1
  Br  Br75  1  0.87096600  0.00000000  0.35026400  1
  Br  Br76  1  0.35926250  0.68108450  0.61870200  1
  Br  Br77  1  0.35926250  0.31891550  0.61870200  1
  Br  Br78  1  0.64073750  0.31891550  0.38129800  1
  Br  Br79  1  0.64073750  0.68108450  0.38129800  1
  Br  Br80  1  0.32545550  0.18202650  0.89797400  1
  Br  Br81  1  0.32545550  0.81797350  0.89797400  1
  Br  Br82  1  0.67454450  0.81797350  0.10202600  1
  Br  Br83  1  0.67454450  0.18202650  0.10202600  1
  O  O84  1  0.25706300  0.50000000  0.82523600  1
  O  O85  1  0.74293700  0.50000000  0.17476400  1
  O  O86  1  0.05058600  0.64517200  0.83871400  1
  O  O87  1  0.05058600  0.35482800  0.83871400  1
  O  O88  1  0.94941400  0.35482800  0.16128600  1
  O  O89  1  0.94941400  0.64517200  0.16128600  1
  O  O90  1  0.88396000  0.50000000  0.61969900  1
  O  O91  1  0.11604000  0.50000000  0.38030100  1
  O  O92  1  0.10252650  0.65975350  0.62373000  1
  O  O93  1  0.10252650  0.34024650  0.62373000  1
  O  O94  1  0.89747350  0.34024650  0.37627000  1
  O  O95  1  0.89747350  0.65975350  0.37627000  1
  O  O96  1  0.75706300  0.00000000  0.82523600  1
  O  O97  1  0.24293700  0.00000000  0.17476400  1
  O  O98  1  0.55058600  0.14517200  0.83871400  1
  O  O99  1  0.55058600  0.85482800  0.83871400  1
  O  O100  1  0.44941400  0.85482800  0.16128600  1
  O  O101  1  0.44941400  0.14517200  0.16128600  1
  O  O102  1  0.38396000  0.00000000  0.61969900  1
  O  O103  1  0.61604000  0.00000000  0.38030100  1
  O  O104  1  0.60252650  0.15975350  0.62373000  1
  O  O105  1  0.60252650  0.84024650  0.62373000  1
  O  O106  1  0.39747350  0.84024650  0.37627000  1
  O  O107  1  0.39747350  0.15975350  0.37627000  1
