# generated using pymatgen
data_Gd3InO6
_symmetry_space_group_name_H-M   'P 1'
_cell_length_a   9.75389033
_cell_length_b   9.75389033
_cell_length_c   11.24627820
_cell_angle_alpha   90.00000000
_cell_angle_beta   90.00000000
_cell_angle_gamma   120.00000000
_symmetry_Int_Tables_number   1
_chemical_formula_structural   Gd3InO6
_chemical_formula_sum   'Gd18 In6 O36'
_cell_volume   926.60617564
_cell_formula_units_Z   6
loop_
 _symmetry_equiv_pos_site_id
 _symmetry_equiv_pos_as_xyz
  1  'x, y, z'
loop_
 _atom_site_type_symbol
 _atom_site_label
 _atom_site_symmetry_multiplicity
 _atom_site_fract_x
 _atom_site_fract_y
 _atom_site_fract_z
 _atom_site_occupancy
  Gd  Gd0  1  0.77425767  0.73370833  0.29393133  1
  Gd  Gd1  1  0.95945067  0.22574233  0.29393133  1
  Gd  Gd2  1  0.73370833  0.95945067  0.70606867  1
  Gd  Gd3  1  0.26629167  0.04054933  0.29393133  1
  Gd  Gd4  1  0.04054933  0.77425767  0.70606867  1
  Gd  Gd5  1  0.22574233  0.26629167  0.70606867  1
  Gd  Gd6  1  0.44092433  0.06704167  0.62726467  1
  Gd  Gd7  1  0.62611733  0.55907567  0.62726467  1
  Gd  Gd8  1  0.40037500  0.29278400  0.03940200  1
  Gd  Gd9  1  0.93295833  0.37388267  0.62726467  1
  Gd  Gd10  1  0.70721600  0.10759100  0.03940200  1
  Gd  Gd11  1  0.89240900  0.59962500  0.03940200  1
  Gd  Gd12  1  0.10759100  0.40037500  0.96059800  1
  Gd  Gd13  1  0.29278400  0.89240900  0.96059800  1
  Gd  Gd14  1  0.06704167  0.62611733  0.37273533  1
  Gd  Gd15  1  0.59962500  0.70721600  0.96059800  1
  Gd  Gd16  1  0.37388267  0.44092433  0.37273533  1
  Gd  Gd17  1  0.55907567  0.93295833  0.37273533  1
  In  In18  1  0.00000000  0.00000000  0.00000000  1
  In  In19  1  0.00000000  0.00000000  0.50000000  1
  In  In20  1  0.66666667  0.33333333  0.33333333  1
  In  In21  1  0.66666667  0.33333333  0.83333333  1
  In  In22  1  0.33333333  0.66666667  0.66666667  1
  In  In23  1  0.33333333  0.66666667  0.16666667  1
  O  O24  1  0.51854867  0.88010433  0.57008633  1
  O  O25  1  0.63844433  0.51854867  0.42991367  1
  O  O26  1  0.81357600  0.97206000  0.37574200  1
  O  O27  1  0.88010433  0.36155567  0.42991367  1
  O  O28  1  0.02794000  0.84151600  0.37574200  1
  O  O29  1  0.84151600  0.81357600  0.62425800  1
  O  O30  1  0.15848400  0.18642400  0.37574200  1
  O  O31  1  0.97206000  0.15848400  0.62425800  1
  O  O32  1  0.11989567  0.63844433  0.57008633  1
  O  O33  1  0.18642400  0.02794000  0.62425800  1
  O  O34  1  0.36155567  0.48145133  0.57008633  1
  O  O35  1  0.48145133  0.11989567  0.42991367  1
  O  O36  1  0.18521533  0.21343767  0.90341967  1
  O  O37  1  0.30511100  0.85188200  0.76324700  1
  O  O38  1  0.48024267  0.30539333  0.70907533  1
  O  O39  1  0.54677100  0.69488900  0.76324700  1
  O  O40  1  0.69460667  0.17484933  0.70907533  1
  O  O41  1  0.50818267  0.14690933  0.95759133  1
  O  O42  1  0.82515067  0.51975733  0.70907533  1
  O  O43  1  0.63872667  0.49181733  0.95759133  1
  O  O44  1  0.78656233  0.97177767  0.90341967  1
  O  O45  1  0.85309067  0.36127333  0.95759133  1
  O  O46  1  0.02822233  0.81478467  0.90341967  1
  O  O47  1  0.14811800  0.45322900  0.76324700  1
  O  O48  1  0.85188200  0.54677100  0.23675300  1
  O  O49  1  0.97177767  0.18521533  0.09658033  1
  O  O50  1  0.14690933  0.63872667  0.04240867  1
  O  O51  1  0.21343767  0.02822233  0.09658033  1
  O  O52  1  0.36127333  0.50818267  0.04240867  1
  O  O53  1  0.17484933  0.48024267  0.29092467  1
  O  O54  1  0.49181733  0.85309067  0.04240867  1
  O  O55  1  0.30539333  0.82515067  0.29092467  1
  O  O56  1  0.45322900  0.30511100  0.23675300  1
  O  O57  1  0.51975733  0.69460667  0.29092467  1
  O  O58  1  0.69488900  0.14811800  0.23675300  1
  O  O59  1  0.81478467  0.78656233  0.09658033  1
