# generated using pymatgen
data_Na4Sn5O12
_symmetry_space_group_name_H-M   'P 1'
_cell_length_a   5.87903900
_cell_length_b   10.24904461
_cell_length_c   10.84257218
_cell_angle_alpha   72.83433413
_cell_angle_beta   77.60215492
_cell_angle_gamma   78.62055180
_symmetry_Int_Tables_number   1
_chemical_formula_structural   Na4Sn5O12
_chemical_formula_sum   'Na8 Sn10 O24'
_cell_volume   603.34349914
_cell_formula_units_Z   2
loop_
 _symmetry_equiv_pos_site_id
 _symmetry_equiv_pos_as_xyz
  1  'x, y, z'
loop_
 _atom_site_type_symbol
 _atom_site_label
 _atom_site_symmetry_multiplicity
 _atom_site_fract_x
 _atom_site_fract_y
 _atom_site_fract_z
 _atom_site_occupancy
  Na  Na0  1  0.13751600  0.41313700  0.40042000  1
  Na  Na1  1  0.34889200  0.57544500  0.11003900  1
  Na  Na2  1  0.27433600  0.90389400  0.02434900  1
  Na  Na3  1  0.30719300  0.78033900  0.55258700  1
  Na  Na4  1  0.69280700  0.21966100  0.44741300  1
  Na  Na5  1  0.72566400  0.09610600  0.97565100  1
  Na  Na6  1  0.65110800  0.42455500  0.88996100  1
  Na  Na7  1  0.86248400  0.58686300  0.59958000  1
  Sn  Sn8  1  0.26588300  0.09820500  0.26759400  1
  Sn  Sn9  1  0.18624100  0.10069600  0.68237800  1
  Sn  Sn10  1  0.18852000  0.25456100  0.93475300  1
  Sn  Sn11  1  0.11555100  0.59376200  0.85163500  1
  Sn  Sn12  1  0.40742600  0.41946500  0.64517800  1
  Sn  Sn13  1  0.59257400  0.58053500  0.35482200  1
  Sn  Sn14  1  0.88444900  0.40623800  0.14836500  1
  Sn  Sn15  1  0.81148000  0.74543900  0.06524700  1
  Sn  Sn16  1  0.81375900  0.89930400  0.31762200  1
  Sn  Sn17  1  0.73411700  0.90179500  0.73240600  1
  O  O18  1  0.05030200  0.26276400  0.29844500  1
  O  O19  1  0.22187900  0.42212000  0.01242700  1
  O  O20  1  0.34127400  0.10107300  0.08140500  1
  O  O21  1  0.10661800  0.10115600  0.86776000  1
  O  O22  1  0.06283000  0.42935300  0.77849800  1
  O  O23  1  0.09208000  0.93829600  0.37262400  1
  O  O24  1  0.31669100  0.26612200  0.57103800  1
  O  O25  1  0.27624100  0.56714600  0.48528500  1
  O  O26  1  0.56259900  0.06061800  0.34178600  1
  O  O27  1  0.13922400  0.73332800  0.94926500  1
  O  O28  1  0.56472600  0.42302500  0.26919400  1
  O  O29  1  0.49590700  0.73116100  0.18997800  1
  O  O30  1  0.50409300  0.26883900  0.81002200  1
  O  O31  1  0.43527400  0.57697500  0.73080600  1
  O  O32  1  0.86077600  0.26667200  0.05073500  1
  O  O33  1  0.43740100  0.93938200  0.65821400  1
  O  O34  1  0.72375900  0.43285400  0.51471500  1
  O  O35  1  0.68330900  0.73387800  0.42896200  1
  O  O36  1  0.90792000  0.06170400  0.62737600  1
  O  O37  1  0.93717000  0.57064700  0.22150200  1
  O  O38  1  0.89338200  0.89884400  0.13224000  1
  O  O39  1  0.65872600  0.89892700  0.91859500  1
  O  O40  1  0.77812100  0.57788000  0.98757300  1
  O  O41  1  0.94969800  0.73723600  0.70155500  1
