# generated using pymatgen
data_SrFeSn(PO4)3
_symmetry_space_group_name_H-M   'P 1'
_cell_length_a   8.59978141
_cell_length_b   8.59978141
_cell_length_c   23.21348020
_cell_angle_alpha   90.00000000
_cell_angle_beta   90.00000000
_cell_angle_gamma   120.00000000
_symmetry_Int_Tables_number   1
_chemical_formula_structural   SrFeSn(PO4)3
_chemical_formula_sum   'Sr6 Fe6 Sn6 P18 O72'
_cell_volume   1486.77658073
_cell_formula_units_Z   6
loop_
 _symmetry_equiv_pos_site_id
 _symmetry_equiv_pos_as_xyz
  1  'x, y, z'
loop_
 _atom_site_type_symbol
 _atom_site_label
 _atom_site_symmetry_multiplicity
 _atom_site_fract_x
 _atom_site_fract_y
 _atom_site_fract_z
 _atom_site_occupancy
  Sr  Sr0  1  0.00000000  0.00000000  0.00000000  1
  Sr  Sr1  1  0.33333333  0.66666667  0.16666667  1
  Sr  Sr2  1  0.66666667  0.33333333  0.33333333  1
  Sr  Sr3  1  1.00000000  0.00000000  0.50000000  1
  Sr  Sr4  1  0.33333333  0.66666667  0.66666667  1
  Sr  Sr5  1  0.66666667  0.33333333  0.83333333  1
  Fe  Fe6  1  0.66666667  0.33333333  0.18175333  1
  Fe  Fe7  1  0.00000000  0.00000000  0.15158000  1
  Fe  Fe8  1  0.33333333  0.66666667  0.51508667  1
  Fe  Fe9  1  0.66666667  0.33333333  0.48491333  1
  Fe  Fe10  1  0.00000000  0.00000000  0.84842000  1
  Fe  Fe11  1  0.33333333  0.66666667  0.81824667  1
  Sn  Sn12  1  0.33333333  0.66666667  0.31603867  1
  Sn  Sn13  1  0.33333333  0.66666667  0.01729467  1
  Sn  Sn14  1  0.00000000  0.00000000  0.64937200  1
  Sn  Sn15  1  0.00000000  0.00000000  0.35062800  1
  Sn  Sn16  1  0.66666667  0.33333333  0.98270533  1
  Sn  Sn17  1  0.66666667  0.33333333  0.68396133  1
  P  P18  1  0.37490233  0.32989967  0.08446167  1
  P  P19  1  0.71166933  0.70823567  0.24887167  1
  P  P20  1  0.95499733  0.62509767  0.08446167  1
  P  P21  1  0.99656633  0.28833067  0.24887167  1
  P  P22  1  0.29176433  0.00343367  0.24887167  1
  P  P23  1  0.67010033  0.04500267  0.08446167  1
  P  P24  1  0.04156900  0.66323300  0.41779500  1
  P  P25  1  0.37833600  0.04156900  0.58220500  1
  P  P26  1  0.62166400  0.95843100  0.41779500  1
  P  P27  1  0.66323300  0.62166400  0.58220500  1
  P  P28  1  0.95843100  0.33676700  0.58220500  1
  P  P29  1  0.33676700  0.37833600  0.41779500  1
  P  P30  1  0.70823567  0.99656633  0.75112833  1
  P  P31  1  0.04500267  0.37490233  0.91553833  1
  P  P32  1  0.28833067  0.29176433  0.75112833  1
  P  P33  1  0.32989967  0.95499733  0.91553833  1
  P  P34  1  0.62509767  0.67010033  0.91553833  1
  P  P35  1  0.00343367  0.71166933  0.75112833  1
  O  O36  1  0.33762000  0.84939900  0.25582500  1
  O  O37  1  0.15060100  0.48822100  0.25582500  1
  O  O38  1  0.51177900  0.66238000  0.25582500  1
  O  O39  1  0.95170900  0.80082000  0.09298200  1
  O  O40  1  0.44963000  0.30612800  0.02606300  1
  O  O41  1  0.97279467  0.18983133  0.30727033  1
  O  O42  1  0.61201267  0.11819833  0.13487533  1
  O  O43  1  0.51606567  0.84511233  0.07750833  1
  O  O44  1  0.84911100  0.04829100  0.09298200  1
  O  O45  1  0.50618567  0.38798733  0.13487533  1
  O  O46  1  0.21703667  0.02720533  0.30727033  1
  O  O47  1  0.15488767  0.67095333  0.07750833  1
  O  O48  1  0.16048100  0.94534600  0.19845800  1
  O  O49  1  0.32904667  0.48393433  0.07750833  1
  O  O50  1  0.46748667  0.18244433  0.24035133  1
  O  O51  1  0.05465400  0.21513500  0.19845800  1
  O  O52  1  0.81755567  0.28504233  0.24035133  1
  O  O53  1  0.85649800  0.55037000  0.02606300  1
  O  O54  1  0.88180167  0.49381433  0.13487533  1
  O  O55  1  0.78486500  0.83951900  0.19845800  1
  O  O56  1  0.69387200  0.14350200  0.02606300  1
  O  O57  1  0.71495767  0.53251333  0.24035133  1
  O  O58  1  0.81016867  0.78296333  0.30727033  1
  O  O59  1  0.19918000  0.15088900  0.09298200  1
  O  O60  1  0.00428667  0.18273233  0.58915833  1
  O  O61  1  0.81726767  0.82155433  0.58915833  1
  O  O62  1  0.17844567  0.99571333  0.58915833  1
  O  O63  1  0.61837567  0.13415333  0.42631533  1
  O  O64  1  0.11629667  0.63946133  0.35939633  1
  O  O65  1  0.63946133  0.52316467  0.64060367  1
  O  O66  1  0.27867933  0.45153167  0.46820867  1
  O  O67  1  0.18273233  0.17844567  0.41084167  1
  O  O68  1  0.51577767  0.38162433  0.42631533  1
  O  O69  1  0.17285233  0.72132067  0.46820867  1
  O  O70  1  0.88370333  0.36053867  0.64060367  1
  O  O71  1  0.82155433  0.00428667  0.41084167  1
  O  O72  1  0.82714767  0.27867933  0.53179133  1
  O  O73  1  0.99571333  0.81726767  0.41084167  1
  O  O74  1  0.13415333  0.51577767  0.57368467  1
  O  O75  1  0.72132067  0.54846833  0.53179133  1
  O  O76  1  0.48422233  0.61837567  0.57368467  1
  O  O77  1  0.52316467  0.88370333  0.35939633  1
  O  O78  1  0.54846833  0.82714767  0.46820867  1
  O  O79  1  0.45153167  0.17285233  0.53179133  1
  O  O80  1  0.36053867  0.47683533  0.35939633  1
  O  O81  1  0.38162433  0.86584667  0.57368467  1
  O  O82  1  0.47683533  0.11629667  0.64060367  1
  O  O83  1  0.86584667  0.48422233  0.42631533  1
  O  O84  1  0.67095333  0.51606567  0.92249167  1
  O  O85  1  0.48393433  0.15488767  0.92249167  1
  O  O86  1  0.84511233  0.32904667  0.92249167  1
  O  O87  1  0.28504233  0.46748667  0.75964867  1
  O  O88  1  0.78296333  0.97279467  0.69272967  1
  O  O89  1  0.30612800  0.85649800  0.97393700  1
  O  O90  1  0.94534600  0.78486500  0.80154200  1
  O  O91  1  0.84939900  0.51177900  0.74417500  1
  O  O92  1  0.18244433  0.71495767  0.75964867  1
  O  O93  1  0.83951900  0.05465400  0.80154200  1
  O  O94  1  0.55037000  0.69387200  0.97393700  1
  O  O95  1  0.48822100  0.33762000  0.74417500  1
  O  O96  1  0.49381433  0.61201267  0.86512467  1
  O  O97  1  0.66238000  0.15060100  0.74417500  1
  O  O98  1  0.80082000  0.84911100  0.90701800  1
  O  O99  1  0.38798733  0.88180167  0.86512467  1
  O  O100  1  0.15088900  0.95170900  0.90701800  1
  O  O101  1  0.18983133  0.21703667  0.69272967  1
  O  O102  1  0.21513500  0.16048100  0.80154200  1
  O  O103  1  0.11819833  0.50618567  0.86512467  1
  O  O104  1  0.02720533  0.81016867  0.69272967  1
  O  O105  1  0.04829100  0.19918000  0.90701800  1
  O  O106  1  0.14350200  0.44963000  0.97393700  1
  O  O107  1  0.53251333  0.81755567  0.75964867  1
