# generated using pymatgen
data_Na2B5H5O11
_symmetry_space_group_name_H-M   'P 1'
_cell_length_a   6.57108700
_cell_length_b   11.27269900
_cell_length_c   12.11974300
_cell_angle_alpha   90.00000000
_cell_angle_beta   90.00000000
_cell_angle_gamma   90.00000000
_symmetry_Int_Tables_number   1
_chemical_formula_structural   Na2B5H5O11
_chemical_formula_sum   'Na8 B20 H20 O44'
_cell_volume   897.75645956
_cell_formula_units_Z   4
loop_
 _symmetry_equiv_pos_site_id
 _symmetry_equiv_pos_as_xyz
  1  'x, y, z'
loop_
 _atom_site_type_symbol
 _atom_site_label
 _atom_site_symmetry_multiplicity
 _atom_site_fract_x
 _atom_site_fract_y
 _atom_site_fract_z
 _atom_site_occupancy
  Na  Na0  1  0.85869200  0.50305800  0.97357300  1
  Na  Na1  1  0.14130800  0.00305800  0.02642700  1
  Na  Na2  1  0.35869200  0.00305800  0.52642700  1
  Na  Na3  1  0.64130800  0.50305800  0.47357300  1
  Na  Na4  1  0.03251300  0.17789800  0.74852500  1
  Na  Na5  1  0.96748700  0.67789800  0.25147500  1
  Na  Na6  1  0.53251300  0.67789800  0.75147500  1
  Na  Na7  1  0.46748700  0.17789800  0.24852500  1
  B  B8  1  0.01784600  0.50765400  0.71800200  1
  B  B9  1  0.98215400  0.00765400  0.28199800  1
  B  B10  1  0.51784600  0.00765400  0.78199800  1
  B  B11  1  0.48215400  0.50765400  0.21800200  1
  B  B12  1  0.35077200  0.42150400  0.65748000  1
  B  B13  1  0.64922800  0.92150400  0.34252000  1
  B  B14  1  0.85077200  0.92150400  0.84252000  1
  B  B15  1  0.14922800  0.42150400  0.15748000  1
  B  B16  1  0.12026600  0.51880800  0.52010800  1
  B  B17  1  0.87973400  0.01880800  0.47989200  1
  B  B18  1  0.62026600  0.01880800  0.97989200  1
  B  B19  1  0.37973400  0.51880800  0.02010800  1
  B  B20  1  0.46394000  0.21374400  0.70328100  1
  B  B21  1  0.53606000  0.71374400  0.29671900  1
  B  B22  1  0.96394000  0.71374400  0.79671900  1
  B  B23  1  0.03606000  0.21374400  0.20328100  1
  B  B24  1  0.70875300  0.37300200  0.71522000  1
  B  B25  1  0.29124700  0.87300200  0.28478000  1
  B  B26  1  0.20875300  0.87300200  0.78478000  1
  B  B27  1  0.79124700  0.37300200  0.21522000  1
  H  H28  1  0.16093900  0.52057000  0.35345400  1
  H  H29  1  0.83906100  0.02057000  0.64654600  1
  H  H30  1  0.66093900  0.02057000  0.14654600  1
  H  H31  1  0.33906100  0.52057000  0.85345400  1
  H  H32  1  0.70146900  0.66330400  0.07857900  1
  H  H33  1  0.29853100  0.16330400  0.92142100  1
  H  H34  1  0.20146900  0.16330400  0.42142100  1
  H  H35  1  0.79853100  0.66330400  0.57857900  1
  H  H36  1  0.83122400  0.76866100  0.02639500  1
  H  H37  1  0.16877600  0.26866100  0.97360500  1
  H  H38  1  0.33122400  0.26866100  0.47360500  1
  H  H39  1  0.66877600  0.76866100  0.52639500  1
  H  H40  1  0.70514200  0.26639200  0.90617500  1
  H  H41  1  0.29485800  0.76639200  0.09382500  1
  H  H42  1  0.20514200  0.76639200  0.59382500  1
  H  H43  1  0.79485800  0.26639200  0.40617500  1
  H  H44  1  0.66374400  0.25447200  0.03112600  1
  H  H45  1  0.33625600  0.75447200  0.96887400  1
  H  H46  1  0.16374400  0.75447200  0.46887400  1
  H  H47  1  0.83625600  0.25447200  0.53112600  1
  O  O48  1  0.98421100  0.55056400  0.60161900  1
  O  O49  1  0.01578900  0.05056400  0.39838100  1
  O  O50  1  0.48421100  0.05056400  0.89838100  1
  O  O51  1  0.51578900  0.55056400  0.10161900  1
  O  O52  1  0.92328400  0.59492100  0.79417900  1
  O  O53  1  0.07671600  0.09492100  0.20582100  1
  O  O54  1  0.42328400  0.09492100  0.70582100  1
  O  O55  1  0.57671600  0.59492100  0.29417900  1
  O  O56  1  0.31878800  0.29036000  0.66617100  1
  O  O57  1  0.68121200  0.79036000  0.33382900  1
  O  O58  1  0.81878800  0.79036000  0.83382900  1
  O  O59  1  0.18121200  0.29036000  0.16617100  1
  O  O60  1  0.29493700  0.45562800  0.54192700  1
  O  O61  1  0.70506300  0.95562800  0.45807300  1
  O  O62  1  0.79493700  0.95562800  0.95807300  1
  O  O63  1  0.20506300  0.45562800  0.04192700  1
  O  O64  1  0.23381500  0.48901900  0.73776600  1
  O  O65  1  0.76618500  0.98901900  0.26223400  1
  O  O66  1  0.73381500  0.98901900  0.76223400  1
  O  O67  1  0.26618500  0.48901900  0.23776600  1
  O  O68  1  0.90790800  0.39469300  0.73630500  1
  O  O69  1  0.09209200  0.89469300  0.26369500  1
  O  O70  1  0.40790800  0.89469300  0.76369500  1
  O  O71  1  0.59209200  0.39469300  0.23630500  1
  O  O72  1  0.57043900  0.45091000  0.67289900  1
  O  O73  1  0.42956100  0.95091000  0.32710100  1
  O  O74  1  0.07043900  0.95091000  0.82710100  1
  O  O75  1  0.92956100  0.45091000  0.17289900  1
  O  O76  1  0.07501100  0.55760000  0.41438200  1
  O  O77  1  0.92498900  0.05760000  0.58561800  1
  O  O78  1  0.57501100  0.05760000  0.08561800  1
  O  O79  1  0.42498900  0.55760000  0.91438200  1
  O  O80  1  0.65380100  0.25473900  0.73924200  1
  O  O81  1  0.34619900  0.75473900  0.26075800  1
  O  O82  1  0.15380100  0.75473900  0.76075800  1
  O  O83  1  0.84619900  0.25473900  0.23924200  1
  O  O84  1  0.84124100  0.69524600  0.06919400  1
  O  O85  1  0.15875900  0.19524600  0.93080600  1
  O  O86  1  0.34124100  0.19524600  0.43080600  1
  O  O87  1  0.65875900  0.69524600  0.56919400  1
  O  O88  1  0.71249900  0.31015200  0.97588200  1
  O  O89  1  0.28750100  0.81015200  0.02411800  1
  O  O90  1  0.21249900  0.81015200  0.52411800  1
  O  O91  1  0.78750100  0.31015200  0.47588200  1
