# generated using pymatgen
data_Dy2V2O7
_symmetry_space_group_name_H-M   'P 1'
_cell_length_a   6.74198063
_cell_length_b   9.52733400
_cell_length_c   5.24109941
_cell_angle_alpha   90.00000000
_cell_angle_beta   100.88111625
_cell_angle_gamma   90.00000000
_symmetry_Int_Tables_number   1
_chemical_formula_structural   Dy2V2O7
_chemical_formula_sum   'Dy4 V4 O14'
_cell_volume   330.59939538
_cell_formula_units_Z   2
loop_
 _symmetry_equiv_pos_site_id
 _symmetry_equiv_pos_as_xyz
  1  'x, y, z'
loop_
 _atom_site_type_symbol
 _atom_site_label
 _atom_site_symmetry_multiplicity
 _atom_site_fract_x
 _atom_site_fract_y
 _atom_site_fract_z
 _atom_site_occupancy
  Dy  Dy0  1  0.50000000  0.18787600  0.50000000  1
  Dy  Dy1  1  0.50000000  0.81212400  0.50000000  1
  Dy  Dy2  1  0.00000000  0.68787600  0.50000000  1
  Dy  Dy3  1  0.00000000  0.31212400  0.50000000  1
  V  V4  1  0.75727100  0.00000000  0.09952400  1
  V  V5  1  0.24272900  0.00000000  0.90047600  1
  V  V6  1  0.25727100  0.50000000  0.09952400  1
  V  V7  1  0.74272900  0.50000000  0.90047600  1
  O  O8  1  0.77042700  0.16138500  0.29378300  1
  O  O9  1  0.77042700  0.83861500  0.29378300  1
  O  O10  1  0.58179000  0.00000000  0.77803500  1
  O  O11  1  0.41821000  0.00000000  0.22196500  1
  O  O12  1  0.00000000  0.00000000  0.00000000  1
  O  O13  1  0.22957300  0.16138500  0.70621700  1
  O  O14  1  0.22957300  0.83861500  0.70621700  1
  O  O15  1  0.27042700  0.66138500  0.29378300  1
  O  O16  1  0.27042700  0.33861500  0.29378300  1
  O  O17  1  0.08179000  0.50000000  0.77803500  1
  O  O18  1  0.91821000  0.50000000  0.22196500  1
  O  O19  1  0.50000000  0.50000000  0.00000000  1
  O  O20  1  0.72957300  0.66138500  0.70621700  1
  O  O21  1  0.72957300  0.33861500  0.70621700  1
