# generated using pymatgen
data_TiMn4O10
_symmetry_space_group_name_H-M   'P 1'
_cell_length_a   10.14074000
_cell_length_b   5.81886200
_cell_length_c   24.15565984
_cell_angle_alpha   90.00000000
_cell_angle_beta   97.79503181
_cell_angle_gamma   90.00000000
_symmetry_Int_Tables_number   1
_chemical_formula_structural   TiMn4O10
_chemical_formula_sum   'Ti8 Mn32 O80'
_cell_volume   1412.19575620
_cell_formula_units_Z   8
loop_
 _symmetry_equiv_pos_site_id
 _symmetry_equiv_pos_as_xyz
  1  'x, y, z'
loop_
 _atom_site_type_symbol
 _atom_site_label
 _atom_site_symmetry_multiplicity
 _atom_site_fract_x
 _atom_site_fract_y
 _atom_site_fract_z
 _atom_site_occupancy
  Ti  Ti0  1  0.79979800  0.50000000  0.89981200  1
  Ti  Ti1  1  0.70020200  0.00000000  0.10018800  1
  Ti  Ti2  1  0.79999700  0.50000000  0.39995900  1
  Ti  Ti3  1  0.70000300  0.00000000  0.60004100  1
  Ti  Ti4  1  0.29979800  0.00000000  0.89981200  1
  Ti  Ti5  1  0.20020200  0.50000000  0.10018800  1
  Ti  Ti6  1  0.29999700  0.00000000  0.39995900  1
  Ti  Ti7  1  0.20000300  0.50000000  0.60004100  1
  Mn  Mn8  1  0.00000000  0.50000000  0.00000000  1
  Mn  Mn9  1  0.75000000  0.25000000  0.00000000  1
  Mn  Mn10  1  0.75000000  0.75000000  0.00000000  1
  Mn  Mn11  1  0.90026800  0.00000000  0.20041300  1
  Mn  Mn12  1  0.59936900  0.50000000  0.29991400  1
  Mn  Mn13  1  0.65009050  0.75008550  0.20046100  1
  Mn  Mn14  1  0.54991900  0.74987200  0.39998400  1
  Mn  Mn15  1  0.65009050  0.24991450  0.20046100  1
  Mn  Mn16  1  0.54991900  0.25012800  0.39998400  1
  Mn  Mn17  1  0.00000000  0.50000000  0.50000000  1
  Mn  Mn18  1  0.95008100  0.75012800  0.60001600  1
  Mn  Mn19  1  0.95008100  0.24987200  0.60001600  1
  Mn  Mn20  1  0.59973200  0.50000000  0.79958700  1
  Mn  Mn21  1  0.90063100  0.00000000  0.70008600  1
  Mn  Mn22  1  0.84990950  0.25008550  0.79953900  1
  Mn  Mn23  1  0.84990950  0.74991450  0.79953900  1
  Mn  Mn24  1  0.50000000  0.00000000  0.00000000  1
  Mn  Mn25  1  0.25000000  0.75000000  0.00000000  1
  Mn  Mn26  1  0.25000000  0.25000000  0.00000000  1
  Mn  Mn27  1  0.40026800  0.50000000  0.20041300  1
  Mn  Mn28  1  0.09936900  0.00000000  0.29991400  1
  Mn  Mn29  1  0.15009050  0.25008550  0.20046100  1
  Mn  Mn30  1  0.04991900  0.24987200  0.39998400  1
  Mn  Mn31  1  0.15009050  0.74991450  0.20046100  1
  Mn  Mn32  1  0.04991900  0.75012800  0.39998400  1
  Mn  Mn33  1  0.50000000  0.00000000  0.50000000  1
  Mn  Mn34  1  0.45008100  0.25012800  0.60001600  1
  Mn  Mn35  1  0.45008100  0.74987200  0.60001600  1
  Mn  Mn36  1  0.09973200  0.00000000  0.79958700  1
  Mn  Mn37  1  0.40063100  0.50000000  0.70008600  1
  Mn  Mn38  1  0.34990950  0.75008550  0.79953900  1
  Mn  Mn39  1  0.34990950  0.24991450  0.79953900  1
  O  O40  1  0.60779300  0.77704500  0.04604500  1
  O  O41  1  0.60779300  0.22295500  0.04604500  1
  O  O42  1  0.89220700  0.27704500  0.95395500  1
  O  O43  1  0.89220700  0.72295500  0.95395500  1
  O  O44  1  0.56954300  0.00000000  0.15441900  1
  O  O45  1  0.84676100  0.50000000  0.04066700  1
  O  O46  1  0.66971200  0.50000000  0.95401100  1
  O  O47  1  0.55342600  0.50000000  0.15963900  1
  O  O48  1  0.83028800  0.00000000  0.04598900  1
  O  O49  1  0.65323900  0.00000000  0.95933300  1
  O  O50  1  0.50893600  0.28041500  0.24710400  1
  O  O51  1  0.50893600  0.71958500  0.24710400  1
  O  O52  1  0.79231200  0.22340200  0.15429100  1
  O  O53  1  0.79231200  0.77659800  0.15429100  1
  O  O54  1  0.74695600  0.00000000  0.24101900  1
  O  O55  1  0.97137300  0.00000000  0.35331900  1
  O  O56  1  0.95583000  0.50000000  0.35859400  1
  O  O57  1  0.72806100  0.50000000  0.24729700  1
  O  O58  1  0.91107200  0.27700300  0.44769600  1
  O  O59  1  0.91107200  0.72299700  0.44769600  1
  O  O60  1  0.68850600  0.72321100  0.35214300  1
  O  O61  1  0.68850600  0.27678900  0.35214300  1
  O  O62  1  0.58892800  0.77700300  0.55230400  1
  O  O63  1  0.58892800  0.22299700  0.55230400  1
  O  O64  1  0.87180900  0.50000000  0.55317200  1
  O  O65  1  0.54417000  0.00000000  0.64140600  1
  O  O66  1  0.64419900  0.50000000  0.44130500  1
  O  O67  1  0.52862700  0.50000000  0.64668100  1
  O  O68  1  0.62819100  0.00000000  0.44682800  1
  O  O69  1  0.85580100  0.00000000  0.55869500  1
  O  O70  1  0.81149400  0.77678900  0.64785700  1
  O  O71  1  0.81149400  0.22321100  0.64785700  1
  O  O72  1  0.99106400  0.78041500  0.75289600  1
  O  O73  1  0.99106400  0.21958500  0.75289600  1
  O  O74  1  0.77193900  0.00000000  0.75270300  1
  O  O75  1  0.94657400  0.00000000  0.84036100  1
  O  O76  1  0.75304400  0.50000000  0.75898100  1
  O  O77  1  0.93045700  0.50000000  0.84558100  1
  O  O78  1  0.70768800  0.72340200  0.84570900  1
  O  O79  1  0.70768800  0.27659800  0.84570900  1
  O  O80  1  0.10779300  0.27704500  0.04604500  1
  O  O81  1  0.10779300  0.72295500  0.04604500  1
  O  O82  1  0.39220700  0.77704500  0.95395500  1
  O  O83  1  0.39220700  0.22295500  0.95395500  1
  O  O84  1  0.06954300  0.50000000  0.15441900  1
  O  O85  1  0.34676100  0.00000000  0.04066700  1
  O  O86  1  0.16971200  0.00000000  0.95401100  1
  O  O87  1  0.05342600  0.00000000  0.15963900  1
  O  O88  1  0.33028800  0.50000000  0.04598900  1
  O  O89  1  0.15323900  0.50000000  0.95933300  1
  O  O90  1  0.00893600  0.78041500  0.24710400  1
  O  O91  1  0.00893600  0.21958500  0.24710400  1
  O  O92  1  0.29231200  0.72340200  0.15429100  1
  O  O93  1  0.29231200  0.27659800  0.15429100  1
  O  O94  1  0.24695600  0.50000000  0.24101900  1
  O  O95  1  0.47137300  0.50000000  0.35331900  1
  O  O96  1  0.45583000  0.00000000  0.35859400  1
  O  O97  1  0.22806100  0.00000000  0.24729700  1
  O  O98  1  0.41107200  0.77700300  0.44769600  1
  O  O99  1  0.41107200  0.22299700  0.44769600  1
  O  O100  1  0.18850600  0.22321100  0.35214300  1
  O  O101  1  0.18850600  0.77678900  0.35214300  1
  O  O102  1  0.08892800  0.27700300  0.55230400  1
  O  O103  1  0.08892800  0.72299700  0.55230400  1
  O  O104  1  0.37180900  0.00000000  0.55317200  1
  O  O105  1  0.04417000  0.50000000  0.64140600  1
  O  O106  1  0.14419900  0.00000000  0.44130500  1
  O  O107  1  0.02862700  0.00000000  0.64668100  1
  O  O108  1  0.12819100  0.50000000  0.44682800  1
  O  O109  1  0.35580100  0.50000000  0.55869500  1
  O  O110  1  0.31149400  0.27678900  0.64785700  1
  O  O111  1  0.31149400  0.72321100  0.64785700  1
  O  O112  1  0.49106400  0.28041500  0.75289600  1
  O  O113  1  0.49106400  0.71958500  0.75289600  1
  O  O114  1  0.27193900  0.50000000  0.75270300  1
  O  O115  1  0.44657400  0.50000000  0.84036100  1
  O  O116  1  0.25304400  0.00000000  0.75898100  1
  O  O117  1  0.43045700  0.00000000  0.84558100  1
  O  O118  1  0.20768800  0.22340200  0.84570900  1
  O  O119  1  0.20768800  0.77659800  0.84570900  1
