# generated using pymatgen
data_Dy3TaO7
_symmetry_space_group_name_H-M   'P 1'
_cell_length_a   7.38655400
_cell_length_b   10.61376000
_cell_length_c   7.52877800
_cell_angle_alpha   90.00000000
_cell_angle_beta   90.00000000
_cell_angle_gamma   90.00000000
_symmetry_Int_Tables_number   1
_chemical_formula_structural   Dy3TaO7
_chemical_formula_sum   'Dy12 Ta4 O28'
_cell_volume   590.24950500
_cell_formula_units_Z   4
loop_
 _symmetry_equiv_pos_site_id
 _symmetry_equiv_pos_as_xyz
  1  'x, y, z'
loop_
 _atom_site_type_symbol
 _atom_site_label
 _atom_site_symmetry_multiplicity
 _atom_site_fract_x
 _atom_site_fract_y
 _atom_site_fract_z
 _atom_site_occupancy
  Dy  Dy0  1  0.28422100  0.23046200  0.25000000  1
  Dy  Dy1  1  0.71577900  0.23046200  0.75000000  1
  Dy  Dy2  1  0.00000000  0.00000000  0.00000000  1
  Dy  Dy3  1  0.00000000  0.00000000  0.50000000  1
  Dy  Dy4  1  0.28422100  0.76953800  0.25000000  1
  Dy  Dy5  1  0.71577900  0.76953800  0.75000000  1
  Dy  Dy6  1  0.78422100  0.73046200  0.25000000  1
  Dy  Dy7  1  0.21577900  0.73046200  0.75000000  1
  Dy  Dy8  1  0.50000000  0.50000000  0.00000000  1
  Dy  Dy9  1  0.50000000  0.50000000  0.50000000  1
  Dy  Dy10  1  0.78422100  0.26953800  0.25000000  1
  Dy  Dy11  1  0.21577900  0.26953800  0.75000000  1
  Ta  Ta12  1  0.50000000  0.00000000  0.00000000  1
  Ta  Ta13  1  0.50000000  0.00000000  0.50000000  1
  Ta  Ta14  1  0.00000000  0.50000000  0.00000000  1
  Ta  Ta15  1  0.00000000  0.50000000  0.50000000  1
  O  O16  1  0.51928350  0.36729550  0.25000000  1
  O  O17  1  0.48071650  0.36729550  0.75000000  1
  O  O18  1  0.69312050  0.12927950  0.03403500  1
  O  O19  1  0.69312050  0.12927950  0.46596500  1
  O  O20  1  0.30687950  0.12927950  0.96596500  1
  O  O21  1  0.30687950  0.12927950  0.53403500  1
  O  O22  1  0.57690400  0.00000000  0.75000000  1
  O  O23  1  0.42309600  0.00000000  0.25000000  1
  O  O24  1  0.69312050  0.87072050  0.03403500  1
  O  O25  1  0.30687950  0.87072050  0.53403500  1
  O  O26  1  0.69312050  0.87072050  0.46596500  1
  O  O27  1  0.30687950  0.87072050  0.96596500  1
  O  O28  1  0.48071650  0.63270450  0.75000000  1
  O  O29  1  0.51928350  0.63270450  0.25000000  1
  O  O30  1  0.01928350  0.86729550  0.25000000  1
  O  O31  1  0.98071650  0.86729550  0.75000000  1
  O  O32  1  0.19312050  0.62927950  0.03403500  1
  O  O33  1  0.19312050  0.62927950  0.46596500  1
  O  O34  1  0.80687950  0.62927950  0.96596500  1
  O  O35  1  0.80687950  0.62927950  0.53403500  1
  O  O36  1  0.07690400  0.50000000  0.75000000  1
  O  O37  1  0.92309600  0.50000000  0.25000000  1
  O  O38  1  0.19312050  0.37072050  0.03403500  1
  O  O39  1  0.80687950  0.37072050  0.53403500  1
  O  O40  1  0.19312050  0.37072050  0.46596500  1
  O  O41  1  0.80687950  0.37072050  0.96596500  1
  O  O42  1  0.98071650  0.13270450  0.75000000  1
  O  O43  1  0.01928350  0.13270450  0.25000000  1
