# generated using pymatgen
data_Na3Sb5O14
_symmetry_space_group_name_H-M   'P 1'
_cell_length_a   7.26747000
_cell_length_b   7.58926200
_cell_length_c   24.03340300
_cell_angle_alpha   90.00000000
_cell_angle_beta   90.00000000
_cell_angle_gamma   90.00000000
_symmetry_Int_Tables_number   1
_chemical_formula_structural   Na3Sb5O14
_chemical_formula_sum   'Na12 Sb20 O56'
_cell_volume   1325.55594735
_cell_formula_units_Z   4
loop_
 _symmetry_equiv_pos_site_id
 _symmetry_equiv_pos_as_xyz
  1  'x, y, z'
loop_
 _atom_site_type_symbol
 _atom_site_label
 _atom_site_symmetry_multiplicity
 _atom_site_fract_x
 _atom_site_fract_y
 _atom_site_fract_z
 _atom_site_occupancy
  Na  Na0  1  0.22933300  0.13217600  0.02380200  1
  Na  Na1  1  0.57965400  0.87870100  0.13270500  1
  Na  Na2  1  0.71437300  0.45167800  0.20136000  1
  Na  Na3  1  0.21437300  0.45167800  0.29864000  1
  Na  Na4  1  0.07965400  0.87870100  0.36729500  1
  Na  Na5  1  0.72933300  0.13217600  0.47619800  1
  Na  Na6  1  0.27066700  0.13217600  0.52380200  1
  Na  Na7  1  0.92034600  0.87870100  0.63270500  1
  Na  Na8  1  0.78562700  0.45167800  0.70136000  1
  Na  Na9  1  0.28562700  0.45167800  0.79864000  1
  Na  Na10  1  0.42034600  0.87870100  0.86729500  1
  Na  Na11  1  0.77066700  0.13217600  0.97619800  1
  Sb  Sb12  1  0.41778000  0.51666600  0.05859300  1
  Sb  Sb13  1  0.90250400  0.51639100  0.06317700  1
  Sb  Sb14  1  0.09941100  0.78423300  0.14404900  1
  Sb  Sb15  1  0.10650500  0.24937000  0.14501300  1
  Sb  Sb16  1  0.81037500  0.01636900  0.24251800  1
  Sb  Sb17  1  0.31037500  0.01636900  0.25748200  1
  Sb  Sb18  1  0.60650500  0.24937000  0.35498700  1
  Sb  Sb19  1  0.59941100  0.78423300  0.35595100  1
  Sb  Sb20  1  0.40250400  0.51639100  0.43682300  1
  Sb  Sb21  1  0.91778000  0.51666600  0.44140700  1
  Sb  Sb22  1  0.08222000  0.51666600  0.55859300  1
  Sb  Sb23  1  0.59749600  0.51639100  0.56317700  1
  Sb  Sb24  1  0.40058900  0.78423300  0.64404900  1
  Sb  Sb25  1  0.39349500  0.24937000  0.64501300  1
  Sb  Sb26  1  0.68962500  0.01636900  0.74251800  1
  Sb  Sb27  1  0.18962500  0.01636900  0.75748200  1
  Sb  Sb28  1  0.89349500  0.24937000  0.85498700  1
  Sb  Sb29  1  0.90058900  0.78423300  0.85595100  1
  Sb  Sb30  1  0.09749600  0.51639100  0.93682300  1
  Sb  Sb31  1  0.58222000  0.51666600  0.94140700  1
  O  O32  1  0.50000000  0.33855100  0.00000000  1
  O  O33  1  0.50000000  0.68814000  0.00000000  1
  O  O34  1  0.16222200  0.51121300  0.01806700  1
  O  O35  1  0.95125000  0.76750700  0.07251800  1
  O  O36  1  0.95164200  0.26349400  0.07125500  1
  O  O37  1  0.65895000  0.52548900  0.09887200  1
  O  O38  1  0.33274700  0.31493200  0.10200200  1
  O  O39  1  0.33513400  0.70528000  0.10784000  1
  O  O40  1  0.18020800  0.01623200  0.11770200  1
  O  O41  1  0.02051300  0.51370600  0.14480300  1
  O  O42  1  0.86124200  0.83476500  0.18222600  1
  O  O43  1  0.87119900  0.19512900  0.18279100  1
  O  O44  1  0.24535200  0.24517000  0.21515800  1
  O  O45  1  0.24099900  0.79702700  0.21329800  1
  O  O46  1  0.54800500  0.01909000  0.21580700  1
  O  O47  1  0.04800500  0.01909000  0.28419300  1
  O  O48  1  0.74099900  0.79702700  0.28670200  1
  O  O49  1  0.74535200  0.24517000  0.28484200  1
  O  O50  1  0.37119900  0.19512900  0.31720900  1
  O  O51  1  0.36124200  0.83476500  0.31777400  1
  O  O52  1  0.52051300  0.51370600  0.35519700  1
  O  O53  1  0.68020800  0.01623200  0.38229800  1
  O  O54  1  0.83513400  0.70528000  0.39216000  1
  O  O55  1  0.83274700  0.31493200  0.39799800  1
  O  O56  1  0.15895000  0.52548900  0.40112800  1
  O  O57  1  0.45164200  0.26349400  0.42874500  1
  O  O58  1  0.45125000  0.76750700  0.42748200  1
  O  O59  1  0.66222200  0.51121300  0.48193300  1
  O  O60  1  0.00000000  0.33855100  0.50000000  1
  O  O61  1  0.00000000  0.68814000  0.50000000  1
  O  O62  1  0.33777800  0.51121300  0.51806700  1
  O  O63  1  0.54875000  0.76750700  0.57251800  1
  O  O64  1  0.54835800  0.26349400  0.57125500  1
  O  O65  1  0.84105000  0.52548900  0.59887200  1
  O  O66  1  0.16725300  0.31493200  0.60200200  1
  O  O67  1  0.16486600  0.70528000  0.60784000  1
  O  O68  1  0.31979200  0.01623200  0.61770200  1
  O  O69  1  0.47948700  0.51370600  0.64480300  1
  O  O70  1  0.63875800  0.83476500  0.68222600  1
  O  O71  1  0.62880100  0.19512900  0.68279100  1
  O  O72  1  0.25464800  0.24517000  0.71515800  1
  O  O73  1  0.25900100  0.79702700  0.71329800  1
  O  O74  1  0.95199500  0.01909000  0.71580700  1
  O  O75  1  0.45199500  0.01909000  0.78419300  1
  O  O76  1  0.75900100  0.79702700  0.78670200  1
  O  O77  1  0.75464800  0.24517000  0.78484200  1
  O  O78  1  0.12880100  0.19512900  0.81720900  1
  O  O79  1  0.13875800  0.83476500  0.81777400  1
  O  O80  1  0.97948700  0.51370600  0.85519700  1
  O  O81  1  0.81979200  0.01623200  0.88229800  1
  O  O82  1  0.66486600  0.70528000  0.89216000  1
  O  O83  1  0.66725300  0.31493200  0.89799800  1
  O  O84  1  0.34105000  0.52548900  0.90112800  1
  O  O85  1  0.04835800  0.26349400  0.92874500  1
  O  O86  1  0.04875000  0.76750700  0.92748200  1
  O  O87  1  0.83777800  0.51121300  0.98193300  1
