# generated using pymatgen
data_K2P2H2O7
_symmetry_space_group_name_H-M   'P 1'
_cell_length_a   8.39625200
_cell_length_b   8.44362809
_cell_length_c   11.18348292
_cell_angle_alpha   81.15470814
_cell_angle_beta   85.44737871
_cell_angle_gamma   87.04976100
_symmetry_Int_Tables_number   1
_chemical_formula_structural   K2P2H2O7
_chemical_formula_sum   'K8 P8 H8 O28'
_cell_volume   780.32933768
_cell_formula_units_Z   4
loop_
 _symmetry_equiv_pos_site_id
 _symmetry_equiv_pos_as_xyz
  1  'x, y, z'
loop_
 _atom_site_type_symbol
 _atom_site_label
 _atom_site_symmetry_multiplicity
 _atom_site_fract_x
 _atom_site_fract_y
 _atom_site_fract_z
 _atom_site_occupancy
  K  K0  1  0.28142600  0.62673500  0.08465400  1
  K  K1  1  0.71857400  0.37326500  0.91534600  1
  K  K2  1  0.24424500  0.21052400  0.94440700  1
  K  K3  1  0.75575500  0.78947600  0.05559300  1
  K  K4  1  0.41340600  0.80795200  0.42032000  1
  K  K5  1  0.58659400  0.19204800  0.57968000  1
  K  K6  1  0.20368700  0.29408200  0.44199600  1
  K  K7  1  0.79631300  0.70591800  0.55800400  1
  P  P8  1  0.51461500  0.78353500  0.78390000  1
  P  P9  1  0.48538500  0.21646500  0.21610000  1
  P  P10  1  0.05916200  0.64686400  0.80414000  1
  P  P11  1  0.94083800  0.35313600  0.19586000  1
  P  P12  1  0.36777700  0.50264600  0.70323000  1
  P  P13  1  0.63222300  0.49735400  0.29677000  1
  P  P14  1  0.21294200  0.95476000  0.71075500  1
  P  P15  1  0.78705800  0.04524000  0.28924500  1
  H  H16  1  0.25833000  0.99327800  0.18062000  1
  H  H17  1  0.74167000  0.00672200  0.81938000  1
  H  H18  1  0.09539200  0.94495800  0.14231300  1
  H  H19  1  0.90460800  0.05504200  0.85768700  1
  H  H20  1  0.09750000  0.70910900  0.45831400  1
  H  H21  1  0.90250000  0.29089100  0.54168600  1
  H  H22  1  0.02595100  0.79775400  0.33485700  1
  H  H23  1  0.97404900  0.20224600  0.66514300  1
  O  O24  1  0.46991900  0.66816200  0.68722500  1
  O  O25  1  0.53008100  0.33183800  0.31277500  1
  O  O26  1  0.22534200  0.53273300  0.80577400  1
  O  O27  1  0.77465800  0.46726700  0.19422600  1
  O  O28  1  0.11670700  0.79647000  0.69856900  1
  O  O29  1  0.88329300  0.20353000  0.30143100  1
  O  O30  1  0.34603700  0.88526500  0.80595200  1
  O  O31  1  0.65396300  0.11473500  0.19404800  1
  O  O32  1  0.63694400  0.89399900  0.71610200  1
  O  O33  1  0.36305600  0.10600100  0.28389800  1
  O  O34  1  0.54841600  0.68733900  0.90365800  1
  O  O35  1  0.45158400  0.31266100  0.09634200  1
  O  O36  1  0.93098000  0.56893500  0.75187000  1
  O  O37  1  0.06902000  0.43106500  0.24813000  1
  O  O38  1  0.03619600  0.69565600  0.92724200  1
  O  O39  1  0.96380400  0.30434400  0.07275800  1
  O  O40  1  0.46788400  0.36396400  0.76164300  1
  O  O41  1  0.53211600  0.63603600  0.23835700  1
  O  O42  1  0.30907600  0.49889100  0.58083700  1
  O  O43  1  0.69092400  0.50110900  0.41916300  1
  O  O44  1  0.29143400  0.01305600  0.58752800  1
  O  O45  1  0.70856600  0.98694400  0.41247200  1
  O  O46  1  0.10490700  0.07101300  0.77210100  1
  O  O47  1  0.89509300  0.92898700  0.22789900  1
  O  O48  1  0.21032000  0.94771200  0.11632500  1
  O  O49  1  0.78968000  0.05228800  0.88367500  1
  O  O50  1  0.10789900  0.72016900  0.37005700  1
  O  O51  1  0.89210100  0.27983100  0.62994300  1
