# generated using pymatgen
data_Gd5Y3O12
_symmetry_space_group_name_H-M   'P 1'
_cell_length_a   10.80090400
_cell_length_b   10.80137800
_cell_length_c   10.80872800
_cell_angle_alpha   90.00000000
_cell_angle_beta   90.00000000
_cell_angle_gamma   90.00000000
_symmetry_Int_Tables_number   1
_chemical_formula_structural   Gd5Y3O12
_chemical_formula_sum   'Gd20 Y12 O48'
_cell_volume   1260.99643497
_cell_formula_units_Z   4
loop_
 _symmetry_equiv_pos_site_id
 _symmetry_equiv_pos_as_xyz
  1  'x, y, z'
loop_
 _atom_site_type_symbol
 _atom_site_label
 _atom_site_symmetry_multiplicity
 _atom_site_fract_x
 _atom_site_fract_y
 _atom_site_fract_z
 _atom_site_occupancy
  Gd  Gd0  1  0.50000000  0.75000000  0.46649000  1
  Gd  Gd1  1  0.75000000  0.03247800  0.00000000  1
  Gd  Gd2  1  0.25000000  0.03203300  0.50000000  1
  Gd  Gd3  1  0.00000000  0.25000000  0.46816100  1
  Gd  Gd4  1  0.50000000  0.25000000  0.03351000  1
  Gd  Gd5  1  0.25000000  0.46752200  0.00000000  1
  Gd  Gd6  1  0.75000000  0.46796700  0.50000000  1
  Gd  Gd7  1  0.03240600  0.50000000  0.25000000  1
  Gd  Gd8  1  0.46759400  0.50000000  0.75000000  1
  Gd  Gd9  1  0.00000000  0.75000000  0.03183900  1
  Gd  Gd10  1  0.00000000  0.25000000  0.96649000  1
  Gd  Gd11  1  0.25000000  0.53247800  0.50000000  1
  Gd  Gd12  1  0.75000000  0.53203300  0.00000000  1
  Gd  Gd13  1  0.50000000  0.75000000  0.96816100  1
  Gd  Gd14  1  0.00000000  0.75000000  0.53351000  1
  Gd  Gd15  1  0.75000000  0.96752200  0.50000000  1
  Gd  Gd16  1  0.25000000  0.96796700  0.00000000  1
  Gd  Gd17  1  0.53240600  0.00000000  0.75000000  1
  Gd  Gd18  1  0.96759400  0.00000000  0.25000000  1
  Gd  Gd19  1  0.50000000  0.25000000  0.53183900  1
  Y  Y20  1  0.75094000  0.24985900  0.74965500  1
  Y  Y21  1  0.03329200  0.00000000  0.75000000  1
  Y  Y22  1  0.46670800  0.00000000  0.25000000  1
  Y  Y23  1  0.24906000  0.25014100  0.74965500  1
  Y  Y24  1  0.74906000  0.24985900  0.25034500  1
  Y  Y25  1  0.25094000  0.25014100  0.25034500  1
  Y  Y26  1  0.25094000  0.74985900  0.24965500  1
  Y  Y27  1  0.53329200  0.50000000  0.25000000  1
  Y  Y28  1  0.96670800  0.50000000  0.75000000  1
  Y  Y29  1  0.74906000  0.75014100  0.24965500  1
  Y  Y30  1  0.24906000  0.74985900  0.75034500  1
  Y  Y31  1  0.75094000  0.75014100  0.75034500  1
  O  O32  1  0.15200500  0.87963300  0.61150800  1
  O  O33  1  0.34799500  0.87963300  0.38849200  1
  O  O34  1  0.12107200  0.88952500  0.15225900  1
  O  O35  1  0.61954600  0.89084300  0.34655800  1
  O  O36  1  0.61954600  0.10915700  0.15344200  1
  O  O37  1  0.12107200  0.11047500  0.34774100  1
  O  O38  1  0.15200500  0.12036700  0.88849200  1
  O  O39  1  0.34799500  0.12036700  0.11150800  1
  O  O40  1  0.39099300  0.15086900  0.37833700  1
  O  O41  1  0.10900700  0.15086900  0.62166300  1
  O  O42  1  0.61094950  0.15263450  0.87938650  1
  O  O43  1  0.88905050  0.15263450  0.12061350  1
  O  O44  1  0.38905050  0.34736550  0.87938650  1
  O  O45  1  0.11094950  0.34736550  0.12061350  1
  O  O46  1  0.60900700  0.34913100  0.37833700  1
  O  O47  1  0.89099300  0.34913100  0.62166300  1
  O  O48  1  0.15247350  0.37892550  0.38975150  1
  O  O49  1  0.34752650  0.37892550  0.61024850  1
  O  O50  1  0.38045400  0.39084300  0.15344200  1
  O  O51  1  0.87892800  0.38952500  0.34774100  1
  O  O52  1  0.38045400  0.60915700  0.34655800  1
  O  O53  1  0.87892800  0.61047500  0.15225900  1
  O  O54  1  0.34752650  0.62107450  0.88975150  1
  O  O55  1  0.15247350  0.62107450  0.11024850  1
  O  O56  1  0.65200500  0.37963300  0.11150800  1
  O  O57  1  0.84799500  0.37963300  0.88849200  1
  O  O58  1  0.62107200  0.38952500  0.65225900  1
  O  O59  1  0.11954600  0.39084300  0.84655800  1
  O  O60  1  0.11954600  0.60915700  0.65344200  1
  O  O61  1  0.62107200  0.61047500  0.84774100  1
  O  O62  1  0.65200500  0.62036700  0.38849200  1
  O  O63  1  0.84799500  0.62036700  0.61150800  1
  O  O64  1  0.89099300  0.65086900  0.87833700  1
  O  O65  1  0.60900700  0.65086900  0.12166300  1
  O  O66  1  0.11094950  0.65263450  0.37938650  1
  O  O67  1  0.38905050  0.65263450  0.62061350  1
  O  O68  1  0.88905050  0.84736550  0.37938650  1
  O  O69  1  0.61094950  0.84736550  0.62061350  1
  O  O70  1  0.10900700  0.84913100  0.87833700  1
  O  O71  1  0.39099300  0.84913100  0.12166300  1
  O  O72  1  0.65247350  0.87892550  0.88975150  1
  O  O73  1  0.84752650  0.87892550  0.11024850  1
  O  O74  1  0.88045400  0.89084300  0.65344200  1
  O  O75  1  0.37892800  0.88952500  0.84774100  1
  O  O76  1  0.88045400  0.10915700  0.84655800  1
  O  O77  1  0.37892800  0.11047500  0.65225900  1
  O  O78  1  0.84752650  0.12107450  0.38975150  1
  O  O79  1  0.65247350  0.12107450  0.61024850  1
