# generated using pymatgen
data_Mg2Te3O8
_symmetry_space_group_name_H-M   'P 1'
_cell_length_a   12.82384600
_cell_length_b   5.32081400
_cell_length_c   11.79229832
_cell_angle_alpha   90.00000000
_cell_angle_beta   98.41928448
_cell_angle_gamma   90.00000000
_symmetry_Int_Tables_number   1
_chemical_formula_structural   Mg2Te3O8
_chemical_formula_sum   'Mg8 Te12 O32'
_cell_volume   795.95603862
_cell_formula_units_Z   4
loop_
 _symmetry_equiv_pos_site_id
 _symmetry_equiv_pos_as_xyz
  1  'x, y, z'
loop_
 _atom_site_type_symbol
 _atom_site_label
 _atom_site_symmetry_multiplicity
 _atom_site_fract_x
 _atom_site_fract_y
 _atom_site_fract_z
 _atom_site_occupancy
  Mg  Mg0  1  0.76806000  0.19104800  0.14800100  1
  Mg  Mg1  1  0.73194000  0.69104800  0.35199900  1
  Mg  Mg2  1  0.73194000  0.30895200  0.85199900  1
  Mg  Mg3  1  0.76806000  0.80895200  0.64800100  1
  Mg  Mg4  1  0.26806000  0.69104800  0.14800100  1
  Mg  Mg5  1  0.23194000  0.19104800  0.35199900  1
  Mg  Mg6  1  0.23194000  0.80895200  0.85199900  1
  Mg  Mg7  1  0.26806000  0.30895200  0.64800100  1
  Te  Te8  1  0.00000000  0.84606600  0.25000000  1
  Te  Te9  1  0.00000000  0.15393400  0.75000000  1
  Te  Te10  1  0.63777950  0.68568150  0.05717100  1
  Te  Te11  1  0.86222050  0.18568150  0.44282900  1
  Te  Te12  1  0.86222050  0.81431850  0.94282900  1
  Te  Te13  1  0.63777950  0.31431850  0.55717100  1
  Te  Te14  1  0.50000000  0.34606600  0.25000000  1
  Te  Te15  1  0.50000000  0.65393400  0.75000000  1
  Te  Te16  1  0.13777950  0.18568150  0.05717100  1
  Te  Te17  1  0.36222050  0.68568150  0.44282900  1
  Te  Te18  1  0.36222050  0.31431850  0.94282900  1
  Te  Te19  1  0.13777950  0.81431850  0.55717100  1
  O  O20  1  0.76340200  0.50665100  0.02708100  1
  O  O21  1  0.73659800  0.00665100  0.47291900  1
  O  O22  1  0.73659800  0.99334900  0.97291900  1
  O  O23  1  0.76340200  0.49334900  0.52708100  1
  O  O24  1  0.61480550  0.36722350  0.13690200  1
  O  O25  1  0.88519450  0.86722350  0.36309800  1
  O  O26  1  0.88519450  0.13277650  0.86309800  1
  O  O27  1  0.61480550  0.63277650  0.63690200  1
  O  O28  1  0.58041100  0.56748400  0.35347300  1
  O  O29  1  0.91958900  0.06748400  0.14652700  1
  O  O30  1  0.91958900  0.93251600  0.64652700  1
  O  O31  1  0.58041100  0.43251600  0.85347300  1
  O  O32  1  0.70018650  0.85503850  0.19221200  1
  O  O33  1  0.79981350  0.35503850  0.30778800  1
  O  O34  1  0.79981350  0.64496150  0.80778800  1
  O  O35  1  0.70018650  0.14496150  0.69221200  1
  O  O36  1  0.26340200  0.00665100  0.02708100  1
  O  O37  1  0.23659800  0.50665100  0.47291900  1
  O  O38  1  0.23659800  0.49334900  0.97291900  1
  O  O39  1  0.26340200  0.99334900  0.52708100  1
  O  O40  1  0.11480550  0.86722350  0.13690200  1
  O  O41  1  0.38519450  0.36722350  0.36309800  1
  O  O42  1  0.38519450  0.63277650  0.86309800  1
  O  O43  1  0.11480550  0.13277650  0.63690200  1
  O  O44  1  0.08041100  0.06748400  0.35347300  1
  O  O45  1  0.41958900  0.56748400  0.14652700  1
  O  O46  1  0.41958900  0.43251600  0.64652700  1
  O  O47  1  0.08041100  0.93251600  0.85347300  1
  O  O48  1  0.20018650  0.35503850  0.19221200  1
  O  O49  1  0.29981350  0.85503850  0.30778800  1
  O  O50  1  0.29981350  0.14496150  0.80778800  1
  O  O51  1  0.20018650  0.64496150  0.69221200  1
