# generated using pymatgen
data_H2Pb4C(Cl3O2)2
_symmetry_space_group_name_H-M   'P 1'
_cell_length_a   4.26059700
_cell_length_b   9.31296900
_cell_length_c   16.90555860
_cell_angle_alpha   90.00000000
_cell_angle_beta   92.03334130
_cell_angle_gamma   90.00000000
_symmetry_Int_Tables_number   1
_chemical_formula_structural   H2Pb4C(Cl3O2)2
_chemical_formula_sum   'H4 Pb8 C2 Cl12 O8'
_cell_volume   670.37004511
_cell_formula_units_Z   2
loop_
 _symmetry_equiv_pos_site_id
 _symmetry_equiv_pos_as_xyz
  1  'x, y, z'
loop_
 _atom_site_type_symbol
 _atom_site_label
 _atom_site_symmetry_multiplicity
 _atom_site_fract_x
 _atom_site_fract_y
 _atom_site_fract_z
 _atom_site_occupancy
  H  H0  1  0.24939300  0.83308900  0.09804400  1
  H  H1  1  0.75060700  0.33308900  0.90195600  1
  H  H2  1  0.75060700  0.16691100  0.90195600  1
  H  H3  1  0.24939300  0.66691100  0.09804400  1
  Pb  Pb4  1  0.73905000  0.75000000  0.95815300  1
  Pb  Pb5  1  0.26095000  0.25000000  0.04184700  1
  Pb  Pb6  1  0.74655000  0.75000000  0.48810900  1
  Pb  Pb7  1  0.25345000  0.25000000  0.51189100  1
  Pb  Pb8  1  0.18877000  0.98956800  0.73200700  1
  Pb  Pb9  1  0.81123000  0.48956800  0.26799300  1
  Pb  Pb10  1  0.81123000  0.01043200  0.26799300  1
  Pb  Pb11  1  0.18877000  0.51043200  0.73200700  1
  C  C12  1  0.58694700  0.25000000  0.75488800  1
  C  C13  1  0.41305300  0.75000000  0.24511200  1
  Cl  Cl14  1  0.71124100  0.75000000  0.78117100  1
  Cl  Cl15  1  0.28875900  0.25000000  0.21882900  1
  Cl  Cl16  1  0.23111300  0.96855400  0.91198300  1
  Cl  Cl17  1  0.76888700  0.46855400  0.08801700  1
  Cl  Cl18  1  0.76888700  0.03144600  0.08801700  1
  Cl  Cl19  1  0.23111300  0.53144600  0.91198300  1
  Cl  Cl20  1  0.25598300  0.75000000  0.60465300  1
  Cl  Cl21  1  0.74401700  0.25000000  0.39534700  1
  Cl  Cl22  1  0.23721500  0.94966600  0.41461900  1
  Cl  Cl23  1  0.76278500  0.44966600  0.58538100  1
  Cl  Cl24  1  0.76278500  0.05033400  0.58538100  1
  Cl  Cl25  1  0.23721500  0.55033400  0.41461900  1
  O  O26  1  0.32509500  0.25000000  0.71234100  1
  O  O27  1  0.67490500  0.75000000  0.28765900  1
  O  O28  1  0.24896500  0.75000000  0.06194500  1
  O  O29  1  0.75103500  0.25000000  0.93805500  1
  O  O30  1  0.70559600  0.12782200  0.77749900  1
  O  O31  1  0.29440400  0.62782200  0.22250100  1
  O  O32  1  0.29440400  0.87217800  0.22250100  1
  O  O33  1  0.70559600  0.37217800  0.77749900  1
