# generated using pymatgen
data_Ba5Y3F19
_symmetry_space_group_name_H-M   'P 1'
_cell_length_a   15.82353400
_cell_length_b   15.82353400
_cell_length_c   8.36840600
_cell_angle_alpha   90.00000000
_cell_angle_beta   90.00000000
_cell_angle_gamma   90.00000000
_symmetry_Int_Tables_number   1
_chemical_formula_structural   Ba5Y3F19
_chemical_formula_sum   'Ba20 Y12 F76'
_cell_volume   2095.31687799
_cell_formula_units_Z   4
loop_
 _symmetry_equiv_pos_site_id
 _symmetry_equiv_pos_as_xyz
  1  'x, y, z'
loop_
 _atom_site_type_symbol
 _atom_site_label
 _atom_site_symmetry_multiplicity
 _atom_site_fract_x
 _atom_site_fract_y
 _atom_site_fract_z
 _atom_site_occupancy
  Ba  Ba0  1  0.50000000  0.00000000  0.19068900  1
  Ba  Ba1  1  0.76021450  0.06258650  0.50638350  1
  Ba  Ba2  1  0.23978550  0.06258650  0.00638350  1
  Ba  Ba3  1  0.43741350  0.73978550  0.50638350  1
  Ba  Ba4  1  0.56258650  0.73978550  0.00638350  1
  Ba  Ba5  1  0.43741350  0.26021450  0.00638350  1
  Ba  Ba6  1  0.56258650  0.26021450  0.50638350  1
  Ba  Ba7  1  0.23978550  0.93741350  0.50638350  1
  Ba  Ba8  1  0.76021450  0.93741350  0.00638350  1
  Ba  Ba9  1  0.50000000  0.00000000  0.69068900  1
  Ba  Ba10  1  0.00000000  0.50000000  0.69068900  1
  Ba  Ba11  1  0.26021450  0.56258650  0.00638350  1
  Ba  Ba12  1  0.73978550  0.56258650  0.50638350  1
  Ba  Ba13  1  0.93741350  0.23978550  0.00638350  1
  Ba  Ba14  1  0.06258650  0.23978550  0.50638350  1
  Ba  Ba15  1  0.93741350  0.76021450  0.50638350  1
  Ba  Ba16  1  0.06258650  0.76021450  0.00638350  1
  Ba  Ba17  1  0.73978550  0.43741350  0.00638350  1
  Ba  Ba18  1  0.26021450  0.43741350  0.50638350  1
  Ba  Ba19  1  0.00000000  0.50000000  0.19068900  1
  Y  Y20  1  0.66784450  0.83215550  0.49679000  1
  Y  Y21  1  0.00000000  0.00000000  0.16706200  1
  Y  Y22  1  0.00000000  0.00000000  0.66706200  1
  Y  Y23  1  0.66784450  0.16784450  0.99679000  1
  Y  Y24  1  0.33215550  0.83215550  0.99679000  1
  Y  Y25  1  0.33215550  0.16784450  0.49679000  1
  Y  Y26  1  0.16784450  0.33215550  0.99679000  1
  Y  Y27  1  0.50000000  0.50000000  0.66706200  1
  Y  Y28  1  0.50000000  0.50000000  0.16706200  1
  Y  Y29  1  0.16784450  0.66784450  0.49679000  1
  Y  Y30  1  0.83215550  0.33215550  0.49679000  1
  Y  Y31  1  0.83215550  0.66784450  0.99679000  1
  F  F32  1  0.58955850  0.75294850  0.34079750  1
  F  F33  1  0.74705150  0.91044150  0.34079750  1
  F  F34  1  0.57183050  0.92816950  0.43959700  1
  F  F35  1  0.29528350  0.92556550  0.18312350  1
  F  F36  1  0.70471650  0.92556550  0.68312350  1
  F  F37  1  0.40841500  0.39738600  0.64320700  1
  F  F38  1  0.00000000  0.00000000  0.41419300  1
  F  F39  1  0.00000000  0.00000000  0.91419300  1
  F  F40  1  0.40841500  0.60261400  0.14320700  1
  F  F41  1  0.70471650  0.07443450  0.18312350  1
  F  F42  1  0.42816950  0.07183050  0.43959700  1
  F  F43  1  0.39510800  0.10489200  0.04759250  1
  F  F44  1  0.60489200  0.10489200  0.54759250  1
  F  F45  1  0.89738600  0.09158500  0.14320700  1
  F  F46  1  0.10261400  0.09158500  0.64320700  1
  F  F47  1  0.57443450  0.20471650  0.18312350  1
  F  F48  1  0.73448550  0.23448550  0.50848000  1
  F  F49  1  0.26551450  0.23448550  0.00848000  1
  F  F50  1  0.41044150  0.75294850  0.84079750  1
  F  F51  1  0.41044150  0.24705150  0.34079750  1
  F  F52  1  0.58955850  0.24705150  0.84079750  1
  F  F53  1  0.73448550  0.76551450  0.00848000  1
  F  F54  1  0.26551450  0.76551450  0.50848000  1
  F  F55  1  0.42556550  0.79528350  0.18312350  1
  F  F56  1  0.57443450  0.79528350  0.68312350  1
  F  F57  1  0.10261400  0.90841500  0.14320700  1
  F  F58  1  0.89738600  0.90841500  0.64320700  1
  F  F59  1  0.60489200  0.89510800  0.04759250  1
  F  F60  1  0.39510800  0.89510800  0.54759250  1
  F  F61  1  0.25294850  0.91044150  0.84079750  1
  F  F62  1  0.42816950  0.92816950  0.93959700  1
  F  F63  1  0.59158500  0.39738600  0.14320700  1
  F  F64  1  0.59158500  0.60261400  0.64320700  1
  F  F65  1  0.29528350  0.07443450  0.68312350  1
  F  F66  1  0.57183050  0.07183050  0.93959700  1
  F  F67  1  0.74705150  0.08955850  0.84079750  1
  F  F68  1  0.25294850  0.08955850  0.34079750  1
  F  F69  1  0.42556550  0.20471650  0.68312350  1
  F  F70  1  0.08955850  0.25294850  0.84079750  1
  F  F71  1  0.24705150  0.41044150  0.84079750  1
  F  F72  1  0.07183050  0.42816950  0.93959700  1
  F  F73  1  0.79528350  0.42556550  0.68312350  1
  F  F74  1  0.20471650  0.42556550  0.18312350  1
  F  F75  1  0.90841500  0.89738600  0.14320700  1
  F  F76  1  0.50000000  0.50000000  0.91419300  1
  F  F77  1  0.50000000  0.50000000  0.41419300  1
  F  F78  1  0.90841500  0.10261400  0.64320700  1
  F  F79  1  0.20471650  0.57443450  0.68312350  1
  F  F80  1  0.92816950  0.57183050  0.93959700  1
  F  F81  1  0.89510800  0.60489200  0.54759250  1
  F  F82  1  0.10489200  0.60489200  0.04759250  1
  F  F83  1  0.39738600  0.59158500  0.64320700  1
  F  F84  1  0.60261400  0.59158500  0.14320700  1
  F  F85  1  0.07443450  0.70471650  0.68312350  1
  F  F86  1  0.23448550  0.73448550  0.00848000  1
  F  F87  1  0.76551450  0.73448550  0.50848000  1
  F  F88  1  0.91044150  0.25294850  0.34079750  1
  F  F89  1  0.91044150  0.74705150  0.84079750  1
  F  F90  1  0.08955850  0.74705150  0.34079750  1
  F  F91  1  0.23448550  0.26551450  0.50848000  1
  F  F92  1  0.76551450  0.26551450  0.00848000  1
  F  F93  1  0.92556550  0.29528350  0.68312350  1
  F  F94  1  0.07443450  0.29528350  0.18312350  1
  F  F95  1  0.60261400  0.40841500  0.64320700  1
  F  F96  1  0.39738600  0.40841500  0.14320700  1
  F  F97  1  0.10489200  0.39510800  0.54759250  1
  F  F98  1  0.89510800  0.39510800  0.04759250  1
  F  F99  1  0.75294850  0.41044150  0.34079750  1
  F  F100  1  0.92816950  0.42816950  0.43959700  1
  F  F101  1  0.09158500  0.89738600  0.64320700  1
  F  F102  1  0.09158500  0.10261400  0.14320700  1
  F  F103  1  0.79528350  0.57443450  0.18312350  1
  F  F104  1  0.07183050  0.57183050  0.43959700  1
  F  F105  1  0.24705150  0.58955850  0.34079750  1
  F  F106  1  0.75294850  0.58955850  0.84079750  1
  F  F107  1  0.92556550  0.70471650  0.18312350  1
