# generated using pymatgen
data_Ba3LaI9
_symmetry_space_group_name_H-M   'P 1'
_cell_length_a   8.69131700
_cell_length_b   8.08942900
_cell_length_c   33.89918334
_cell_angle_alpha   90.00000000
_cell_angle_beta   92.08353545
_cell_angle_gamma   90.00000000
_symmetry_Int_Tables_number   1
_chemical_formula_structural   Ba3LaI9
_chemical_formula_sum   'Ba12 La4 I36'
_cell_volume   2381.80103223
_cell_formula_units_Z   4
loop_
 _symmetry_equiv_pos_site_id
 _symmetry_equiv_pos_as_xyz
  1  'x, y, z'
loop_
 _atom_site_type_symbol
 _atom_site_label
 _atom_site_symmetry_multiplicity
 _atom_site_fract_x
 _atom_site_fract_y
 _atom_site_fract_z
 _atom_site_occupancy
  Ba  Ba0  1  0.32110600  0.03019900  0.93300200  1
  Ba  Ba1  1  0.29368200  0.99740500  0.69205900  1
  Ba  Ba2  1  0.32110600  0.96980100  0.43300200  1
  Ba  Ba3  1  0.29368200  0.00259500  0.19205900  1
  Ba  Ba4  1  0.68328300  0.01445100  0.57015500  1
  Ba  Ba5  1  0.71566100  0.01780100  0.80838700  1
  Ba  Ba6  1  0.68328300  0.98554900  0.07015500  1
  Ba  Ba7  1  0.71566100  0.98219900  0.30838700  1
  Ba  Ba8  1  0.78453700  0.47347400  0.69215600  1
  Ba  Ba9  1  0.82151300  0.48252200  0.93074000  1
  Ba  Ba10  1  0.78453700  0.52652600  0.19215600  1
  Ba  Ba11  1  0.82151300  0.51747800  0.43074000  1
  La  La12  1  0.20216300  0.47983400  0.80652000  1
  La  La13  1  0.17852600  0.45385000  0.56718100  1
  La  La14  1  0.20216300  0.52016600  0.30652000  1
  La  La15  1  0.17852600  0.54615000  0.06718100  1
  I  I16  1  0.02167400  0.20293200  0.86849100  1
  I  I17  1  0.01621200  0.18398200  0.75255700  1
  I  I18  1  0.00720600  0.18778200  0.62740700  1
  I  I19  1  0.02167400  0.79706800  0.36849100  1
  I  I20  1  0.01621200  0.81601800  0.25255700  1
  I  I21  1  0.10943800  0.29752500  0.99368200  1
  I  I22  1  0.00720600  0.81221800  0.12740700  1
  I  I23  1  0.15359100  0.66669500  0.89242000  1
  I  I24  1  0.10943800  0.70247500  0.49368200  1
  I  I25  1  0.15853700  0.60072500  0.70767400  1
  I  I26  1  0.15359100  0.33330500  0.39242000  1
  I  I27  1  0.15853700  0.39927500  0.20767400  1
  I  I28  1  0.35396700  0.83770200  0.79598000  1
  I  I29  1  0.34940900  0.78900200  0.59924200  1
  I  I30  1  0.35396700  0.16229800  0.29598000  1
  I  I31  1  0.34940900  0.21099800  0.09924200  1
  I  I32  1  0.41186300  0.25697000  0.51110600  1
  I  I33  1  0.49163400  0.32297800  0.86690000  1
  I  I34  1  0.48552700  0.30948000  0.75217400  1
  I  I35  1  0.47268200  0.30291200  0.62785800  1
  I  I36  1  0.41186300  0.74303000  0.01110600  1
  I  I37  1  0.49163400  0.67702200  0.36690000  1
  I  I38  1  0.48552700  0.69052000  0.25217400  1
  I  I39  1  0.47268200  0.69708800  0.12785800  1
  I  I40  1  0.60208100  0.23786800  0.99024400  1
  I  I41  1  0.60208100  0.76213200  0.49024400  1
  I  I42  1  0.65626600  0.84924000  0.90076700  1
  I  I43  1  0.67784800  0.88856000  0.69872100  1
  I  I44  1  0.65626600  0.15076000  0.40076700  1
  I  I45  1  0.67784800  0.11144000  0.19872100  1
  I  I46  1  0.85234300  0.60719900  0.79750300  1
  I  I47  1  0.87579900  0.64408100  0.59856700  1
  I  I48  1  0.85234300  0.39280100  0.29750300  1
  I  I49  1  0.87579900  0.35591900  0.09856700  1
  I  I50  1  0.93418300  0.24466600  0.51031800  1
  I  I51  1  0.93418300  0.75533400  0.01031800  1
