# generated using pymatgen
data_V6O11F
_symmetry_space_group_name_H-M   'P 1'
_cell_length_a   6.42277800
_cell_length_b   6.64413000
_cell_length_c   8.97768700
_cell_angle_alpha   90.00000000
_cell_angle_beta   90.00000000
_cell_angle_gamma   90.00000000
_symmetry_Int_Tables_number   1
_chemical_formula_structural   V6O11F
_chemical_formula_sum   'V12 O22 F2'
_cell_volume   383.11176806
_cell_formula_units_Z   2
loop_
 _symmetry_equiv_pos_site_id
 _symmetry_equiv_pos_as_xyz
  1  'x, y, z'
loop_
 _atom_site_type_symbol
 _atom_site_label
 _atom_site_symmetry_multiplicity
 _atom_site_fract_x
 _atom_site_fract_y
 _atom_site_fract_z
 _atom_site_occupancy
  V  V0  1  0.50000000  0.48325200  0.18085400  1
  V  V1  1  0.50000000  0.50852700  0.50000000  1
  V  V2  1  0.50000000  0.48325200  0.81914600  1
  V  V3  1  0.50000000  0.97909600  0.33191900  1
  V  V4  1  0.50000000  0.03376900  0.00000000  1
  V  V5  1  0.50000000  0.97909600  0.66808100  1
  V  V6  1  0.00000000  0.98325200  0.18085400  1
  V  V7  1  0.00000000  0.00852700  0.50000000  1
  V  V8  1  0.00000000  0.98325200  0.81914600  1
  V  V9  1  0.00000000  0.47909600  0.33191900  1
  V  V10  1  0.00000000  0.53376900  0.00000000  1
  V  V11  1  0.00000000  0.47909600  0.66808100  1
  O  O12  1  0.50000000  0.30103100  0.32395900  1
  O  O13  1  0.50000000  0.30103100  0.67604100  1
  O  O14  1  0.50000000  0.30650300  0.00000000  1
  O  O15  1  0.30351550  0.00403350  0.16442800  1
  O  O16  1  0.30671000  0.00372400  0.50000000  1
  O  O17  1  0.30351550  0.00403350  0.83557200  1
  O  O18  1  0.69648450  0.00403350  0.16442800  1
  O  O19  1  0.69329000  0.00372400  0.50000000  1
  O  O20  1  0.69648450  0.00403350  0.83557200  1
  O  O21  1  0.50000000  0.70251000  0.32686200  1
  O  O22  1  0.50000000  0.70251000  0.67313800  1
  O  O23  1  0.00000000  0.80103100  0.32395900  1
  O  O24  1  0.00000000  0.80103100  0.67604100  1
  O  O25  1  0.00000000  0.80650300  0.00000000  1
  O  O26  1  0.80351550  0.50403350  0.16442800  1
  O  O27  1  0.80671000  0.50372400  0.50000000  1
  O  O28  1  0.80351550  0.50403350  0.83557200  1
  O  O29  1  0.19648450  0.50403350  0.16442800  1
  O  O30  1  0.19329000  0.50372400  0.50000000  1
  O  O31  1  0.19648450  0.50403350  0.83557200  1
  O  O32  1  0.00000000  0.20251000  0.32686200  1
  O  O33  1  0.00000000  0.20251000  0.67313800  1
  F  F34  1  0.50000000  0.69583900  0.00000000  1
  F  F35  1  0.00000000  0.19583900  0.00000000  1
