# generated using pymatgen
data_Na22In5O15
_symmetry_space_group_name_H-M   'P 1'
_cell_length_a   11.20583000
_cell_length_b   15.88528200
_cell_length_c   9.67643758
_cell_angle_alpha   90.00000000
_cell_angle_beta   125.15832113
_cell_angle_gamma   90.00000000
_symmetry_Int_Tables_number   1
_chemical_formula_structural   Na22In5O15
_chemical_formula_sum   'Na44 In10 O30'
_cell_volume   1408.23851209
_cell_formula_units_Z   2
loop_
 _symmetry_equiv_pos_site_id
 _symmetry_equiv_pos_as_xyz
  1  'x, y, z'
loop_
 _atom_site_type_symbol
 _atom_site_label
 _atom_site_symmetry_multiplicity
 _atom_site_fract_x
 _atom_site_fract_y
 _atom_site_fract_z
 _atom_site_occupancy
  Na  Na0  1  0.48947150  0.22961150  0.72126500  1
  Na  Na1  1  0.98947150  0.27038850  0.72126500  1
  Na  Na2  1  0.82627250  0.39091750  0.43533200  1
  Na  Na3  1  0.32627250  0.10908250  0.43533200  1
  Na  Na4  1  0.44896500  0.00000000  0.73728800  1
  Na  Na5  1  0.50507950  0.27962350  0.21099200  1
  Na  Na6  1  0.00507950  0.22037650  0.21099200  1
  Na  Na7  1  0.10389150  0.34983050  0.47746000  1
  Na  Na8  1  0.64930500  0.35061300  0.56120200  1
  Na  Na9  1  0.60389150  0.15016950  0.47746000  1
  Na  Na10  1  0.14930500  0.14938700  0.56120200  1
  Na  Na11  1  0.21152000  0.00000000  0.77913900  1
  Na  Na12  1  0.67608750  0.11155850  0.99123300  1
  Na  Na13  1  0.17608750  0.38844150  0.99123300  1
  Na  Na14  1  0.78128650  0.22642550  0.27927500  1
  Na  Na15  1  0.28128650  0.27357450  0.27927500  1
  Na  Na16  1  0.38616150  0.39198450  0.56292800  1
  Na  Na17  1  0.88616150  0.10801550  0.56292800  1
  Na  Na18  1  0.71343700  0.00000000  0.25909400  1
  Na  Na19  1  0.40443900  0.13851600  0.98275500  1
  Na  Na20  1  0.90443900  0.36148400  0.98275500  1
  Na  Na21  1  0.44545100  0.00000000  0.22230000  1
  Na  Na22  1  0.98947150  0.72961150  0.72126500  1
  Na  Na23  1  0.48947150  0.77038850  0.72126500  1
  Na  Na24  1  0.32627250  0.89091750  0.43533200  1
  Na  Na25  1  0.82627250  0.60908250  0.43533200  1
  Na  Na26  1  0.94896500  0.50000000  0.73728800  1
  Na  Na27  1  0.00507950  0.77962350  0.21099200  1
  Na  Na28  1  0.50507950  0.72037650  0.21099200  1
  Na  Na29  1  0.60389150  0.84983050  0.47746000  1
  Na  Na30  1  0.14930500  0.85061300  0.56120200  1
  Na  Na31  1  0.10389150  0.65016950  0.47746000  1
  Na  Na32  1  0.64930500  0.64938700  0.56120200  1
  Na  Na33  1  0.71152000  0.50000000  0.77913900  1
  Na  Na34  1  0.17608750  0.61155850  0.99123300  1
  Na  Na35  1  0.67608750  0.88844150  0.99123300  1
  Na  Na36  1  0.28128650  0.72642550  0.27927500  1
  Na  Na37  1  0.78128650  0.77357450  0.27927500  1
  Na  Na38  1  0.88616150  0.89198450  0.56292800  1
  Na  Na39  1  0.38616150  0.60801550  0.56292800  1
  Na  Na40  1  0.21343700  0.50000000  0.25909400  1
  Na  Na41  1  0.90443900  0.63851600  0.98275500  1
  Na  Na42  1  0.40443900  0.86148400  0.98275500  1
  Na  Na43  1  0.94545100  0.50000000  0.22230000  1
  In  In44  1  0.70254100  0.00000000  0.71108700  1
  In  In45  1  0.99228700  0.00000000  0.99781400  1
  In  In46  1  0.00622300  0.00000000  0.30153500  1
  In  In47  1  0.64410900  0.35578400  0.00897900  1
  In  In48  1  0.14410900  0.14421600  0.00897900  1
  In  In49  1  0.20254100  0.50000000  0.71108700  1
  In  In50  1  0.49228700  0.50000000  0.99781400  1
  In  In51  1  0.50622300  0.50000000  0.30153500  1
  In  In52  1  0.14410900  0.85578400  0.00897900  1
  In  In53  1  0.64410900  0.64421600  0.00897900  1
  O  O54  1  0.56729750  0.10220950  0.68422900  1
  O  O55  1  0.06729750  0.39779050  0.68422900  1
  O  O56  1  0.74688200  0.25567100  0.47825500  1
  O  O57  1  0.24688200  0.24432900  0.47825500  1
  O  O58  1  0.21445700  0.00000000  0.52606600  1
  O  O59  1  0.13307900  0.13647000  0.78220700  1
  O  O60  1  0.37315800  0.15131800  0.21369200  1
  O  O61  1  0.87315800  0.34868200  0.21369200  1
  O  O62  1  0.63307900  0.36353000  0.78220700  1
  O  O63  1  0.89537450  0.10631850  0.30514700  1
  O  O64  1  0.39537450  0.39368150  0.30514700  1
  O  O65  1  0.56888400  0.23386100  0.01047200  1
  O  O66  1  0.06888400  0.26613900  0.01047200  1
  O  O67  1  0.49415600  0.00000000  0.99871700  1
  O  O68  1  0.70043800  0.00000000  0.48669800  1
  O  O69  1  0.06729750  0.60220950  0.68422900  1
  O  O70  1  0.56729750  0.89779050  0.68422900  1
  O  O71  1  0.24688200  0.75567100  0.47825500  1
  O  O72  1  0.74688200  0.74432900  0.47825500  1
  O  O73  1  0.71445700  0.50000000  0.52606600  1
  O  O74  1  0.63307900  0.63647000  0.78220700  1
  O  O75  1  0.87315800  0.65131800  0.21369200  1
  O  O76  1  0.37315800  0.84868200  0.21369200  1
  O  O77  1  0.13307900  0.86353000  0.78220700  1
  O  O78  1  0.39537450  0.60631850  0.30514700  1
  O  O79  1  0.89537450  0.89368150  0.30514700  1
  O  O80  1  0.06888400  0.73386100  0.01047200  1
  O  O81  1  0.56888400  0.76613900  0.01047200  1
  O  O82  1  0.99415600  0.50000000  0.99871700  1
  O  O83  1  0.20043800  0.50000000  0.48669800  1
