# generated using pymatgen
data_Li4VCr3O8
_symmetry_space_group_name_H-M   'P 1'
_cell_length_a   10.35499818
_cell_length_b   5.92948039
_cell_length_c   5.14628697
_cell_angle_alpha   90.00000000
_cell_angle_beta   109.60426013
_cell_angle_gamma   90.00000000
_symmetry_Int_Tables_number   1
_chemical_formula_structural   Li4VCr3O8
_chemical_formula_sum   'Li8 V2 Cr6 O16'
_cell_volume   297.66416438
_cell_formula_units_Z   2
loop_
 _symmetry_equiv_pos_site_id
 _symmetry_equiv_pos_as_xyz
  1  'x, y, z'
loop_
 _atom_site_type_symbol
 _atom_site_label
 _atom_site_symmetry_multiplicity
 _atom_site_fract_x
 _atom_site_fract_y
 _atom_site_fract_z
 _atom_site_occupancy
  Li  Li0  1  0.74842100  0.50000000  0.49321600  1
  Li  Li1  1  0.25157900  0.50000000  0.50678400  1
  Li  Li2  1  0.75000000  0.75000000  0.00000000  1
  Li  Li3  1  0.25000000  0.75000000  0.00000000  1
  Li  Li4  1  0.24842100  0.00000000  0.49321600  1
  Li  Li5  1  0.75157900  0.00000000  0.50678400  1
  Li  Li6  1  0.25000000  0.25000000  0.00000000  1
  Li  Li7  1  0.75000000  0.25000000  0.00000000  1
  V  V8  1  0.50000000  0.00000000  0.00000000  1
  V  V9  1  0.00000000  0.50000000  0.00000000  1
  Cr  Cr10  1  0.50000000  0.50000000  0.00000000  1
  Cr  Cr11  1  0.50000000  0.75118250  0.50000000  1
  Cr  Cr12  1  0.50000000  0.24881750  0.50000000  1
  Cr  Cr13  1  0.00000000  0.00000000  0.00000000  1
  Cr  Cr14  1  0.00000000  0.25118250  0.50000000  1
  Cr  Cr15  1  0.00000000  0.74881750  0.50000000  1
  O  O16  1  0.61512850  0.00000000  0.73859100  1
  O  O17  1  0.38487150  0.00000000  0.26140900  1
  O  O18  1  0.61162100  0.50000000  0.74248600  1
  O  O19  1  0.38837900  0.50000000  0.25751400  1
  O  O20  1  0.61335350  0.74830250  0.24386900  1
  O  O21  1  0.38664650  0.25169750  0.75613100  1
  O  O22  1  0.38664650  0.74830250  0.75613100  1
  O  O23  1  0.61335350  0.25169750  0.24386900  1
  O  O24  1  0.11512850  0.50000000  0.73859100  1
  O  O25  1  0.88487150  0.50000000  0.26140900  1
  O  O26  1  0.11162100  0.00000000  0.74248600  1
  O  O27  1  0.88837900  0.00000000  0.25751400  1
  O  O28  1  0.11335350  0.24830250  0.24386900  1
  O  O29  1  0.88664650  0.75169750  0.75613100  1
  O  O30  1  0.88664650  0.24830250  0.75613100  1
  O  O31  1  0.11335350  0.75169750  0.24386900  1
