# generated using pymatgen
data_BaCaI4
_symmetry_space_group_name_H-M   'P 1'
_cell_length_a   9.66306000
_cell_length_b   7.40914600
_cell_length_c   19.05512269
_cell_angle_alpha   90.00000000
_cell_angle_beta   119.48563848
_cell_angle_gamma   90.00000000
_symmetry_Int_Tables_number   1
_chemical_formula_structural   BaCaI4
_chemical_formula_sum   'Ba4 Ca4 I16'
_cell_volume   1187.55279284
_cell_formula_units_Z   4
loop_
 _symmetry_equiv_pos_site_id
 _symmetry_equiv_pos_as_xyz
  1  'x, y, z'
loop_
 _atom_site_type_symbol
 _atom_site_label
 _atom_site_symmetry_multiplicity
 _atom_site_fract_x
 _atom_site_fract_y
 _atom_site_fract_z
 _atom_site_occupancy
  Ba  Ba0  1  0.99492000  0.35064600  0.37342600  1
  Ba  Ba1  1  0.99492000  0.14935400  0.87342600  1
  Ba  Ba2  1  0.00508000  0.85064600  0.12657400  1
  Ba  Ba3  1  0.00508000  0.64935400  0.62657400  1
  Ca  Ca4  1  0.50227300  0.08380400  0.12689400  1
  Ca  Ca5  1  0.50227300  0.41619600  0.62689400  1
  Ca  Ca6  1  0.49772700  0.58380400  0.37310600  1
  Ca  Ca7  1  0.49772700  0.91619600  0.87310600  1
  I  I8  1  0.59977600  0.23915000  0.30510500  1
  I  I9  1  0.59977600  0.26085000  0.80510500  1
  I  I10  1  0.84395500  0.72968400  0.42128700  1
  I  I11  1  0.84395500  0.77031600  0.92128700  1
  I  I12  1  0.84665300  0.22590300  0.17425500  1
  I  I13  1  0.39768200  0.25730600  0.45046300  1
  I  I14  1  0.84665300  0.27409700  0.67425500  1
  I  I15  1  0.60231800  0.75730600  0.04953700  1
  I  I16  1  0.39768200  0.24269400  0.95046300  1
  I  I17  1  0.15334700  0.72590300  0.32574500  1
  I  I18  1  0.60231800  0.74269400  0.54953700  1
  I  I19  1  0.15334700  0.77409700  0.82574500  1
  I  I20  1  0.15604500  0.22968400  0.07871300  1
  I  I21  1  0.15604500  0.27031600  0.57871300  1
  I  I22  1  0.40022400  0.73915000  0.19489500  1
  I  I23  1  0.40022400  0.76085000  0.69489500  1
