# generated using pymatgen
data_Zr2N2O
_symmetry_space_group_name_H-M   'P 1'
_cell_length_a   8.85381926
_cell_length_b   8.87996653
_cell_length_c   8.88360740
_cell_angle_alpha   109.53115219
_cell_angle_beta   109.26607492
_cell_angle_gamma   109.51897147
_symmetry_Int_Tables_number   1
_chemical_formula_structural   Zr2N2O
_chemical_formula_sum   'Zr16 N16 O8'
_cell_volume   538.30511925
_cell_formula_units_Z   8
loop_
 _symmetry_equiv_pos_site_id
 _symmetry_equiv_pos_as_xyz
  1  'x, y, z'
loop_
 _atom_site_type_symbol
 _atom_site_label
 _atom_site_symmetry_multiplicity
 _atom_site_fract_x
 _atom_site_fract_y
 _atom_site_fract_z
 _atom_site_occupancy
  Zr  Zr0  1  0.01091095  0.99814402  0.50073228  1
  Zr  Zr1  1  0.74785309  0.29483870  0.46392792  1
  Zr  Zr2  1  0.22149962  0.47135962  0.24929722  1
  Zr  Zr3  1  0.71493730  0.95859247  0.24964591  1
  Zr  Zr4  1  0.25904943  0.21114508  0.03456491  1
  Zr  Zr5  1  0.96777284  0.74237094  0.28548904  1
  Zr  Zr6  1  0.45748972  0.74730886  0.78493063  1
  Zr  Zr7  1  0.03379942  0.25045233  0.71343374  1
  Zr  Zr8  1  0.99557219  0.50783771  0.99527904  1
  Zr  Zr9  1  0.50047316  0.99937026  0.00031812  1
  Zr  Zr10  1  0.53330089  0.25791044  0.21210672  1
  Zr  Zr11  1  0.50874052  0.50820721  0.49091261  1
  Zr  Zr12  1  0.74944217  0.78950116  0.96869095  1
  Zr  Zr13  1  0.78889497  0.53371816  0.75060525  1
  Zr  Zr14  1  0.27831790  0.03148496  0.75016504  1
  Zr  Zr15  1  0.24381232  0.70587970  0.54230819  1
  N  N16  1  0.03511540  0.99312808  0.73370905  1
  N  N17  1  0.26753098  0.23790661  0.27208548  1
  N  N18  1  0.77096968  0.04713261  0.96833005  1
  N  N19  1  0.46521042  0.72814712  0.03965063  1
  N  N20  1  0.48808482  0.25684923  0.46996876  1
  N  N21  1  0.01038743  0.53777973  0.22985601  1
  N  N22  1  0.51422712  0.74124610  0.53347779  1
  N  N23  1  0.74053871  0.72830872  0.22830394  1
  N  N24  1  0.22787955  0.77041429  0.76842939  1
  N  N25  1  0.22801561  0.95851784  0.03062755  1
  N  N26  1  0.53237471  0.27066572  0.95586658  1
  N  N27  1  0.75979093  0.53300821  0.01453085  1
  N  N28  1  0.98853191  0.45509241  0.77416698  1
  N  N29  1  0.26912148  0.50645652  0.45732058  1
  N  N30  1  0.72617790  0.48492989  0.54840928  1
  N  N31  1  0.04978048  0.77971743  0.48540122  1
  O  O32  1  0.96174421  0.01483088  0.26357437  1
  O  O33  1  0.55223550  0.03442006  0.72642482  1
  O  O34  1  0.94378448  0.21914015  0.51835916  1
  O  O35  1  0.25706535  0.27489022  0.77645914  1
  O  O36  1  0.24098753  0.46380656  0.98055729  1
  O  O37  1  0.45735787  0.96654459  0.27055597  1
  O  O38  1  0.77232291  0.22442843  0.23662054  1
  O  O39  1  0.72890049  0.76451799  0.72490500  1
