# generated using pymatgen
data_LiVSn3(PO4)6
_symmetry_space_group_name_H-M   'P 1'
_cell_length_a   8.71315142
_cell_length_b   8.71315142
_cell_length_c   22.04533891
_cell_angle_alpha   90.00000000
_cell_angle_beta   90.00000000
_cell_angle_gamma   120.00000000
_symmetry_Int_Tables_number   1
_chemical_formula_structural   LiVSn3(PO4)6
_chemical_formula_sum   'Li3 V3 Sn9 P18 O72'
_cell_volume   1449.43229724
_cell_formula_units_Z   3
loop_
 _symmetry_equiv_pos_site_id
 _symmetry_equiv_pos_as_xyz
  1  'x, y, z'
loop_
 _atom_site_type_symbol
 _atom_site_label
 _atom_site_symmetry_multiplicity
 _atom_site_fract_x
 _atom_site_fract_y
 _atom_site_fract_z
 _atom_site_occupancy
  Li  Li0  1  0.00000000  0.00000000  0.00032700  1
  Li  Li1  1  0.66666667  0.33333333  0.33366033  1
  Li  Li2  1  0.33333333  0.66666667  0.66699367  1
  V  V3  1  0.00000000  0.00000000  0.14530700  1
  V  V4  1  0.66666667  0.33333333  0.47864033  1
  V  V5  1  0.33333333  0.66666667  0.81197367  1
  Sn  Sn6  1  0.66666667  0.33333333  0.18744633  1
  Sn  Sn7  1  0.33333333  0.66666667  0.30767767  1
  Sn  Sn8  1  0.33333333  0.66666667  0.02482267  1
  Sn  Sn9  1  0.33333333  0.66666667  0.52077967  1
  Sn  Sn10  1  0.00000000  0.00000000  0.64101100  1
  Sn  Sn11  1  0.00000000  0.00000000  0.35815600  1
  Sn  Sn12  1  0.00000000  0.00000000  0.85411300  1
  Sn  Sn13  1  0.66666667  0.33333333  0.97434433  1
  Sn  Sn14  1  0.66666667  0.33333333  0.69148933  1
  P  P15  1  0.28751733  0.00160967  0.24990267  1
  P  P16  1  0.99839033  0.28590767  0.24990267  1
  P  P17  1  0.71409233  0.71248267  0.24990267  1
  P  P18  1  0.95576267  0.62990133  0.08311333  1
  P  P19  1  0.67413867  0.04423733  0.08311333  1
  P  P20  1  0.37009867  0.32586133  0.08311333  1
  P  P21  1  0.95418400  0.33494300  0.58323600  1
  P  P22  1  0.66505700  0.61924100  0.58323600  1
  P  P23  1  0.38075900  0.04581600  0.58323600  1
  P  P24  1  0.62242933  0.96323467  0.41644667  1
  P  P25  1  0.34080533  0.37757067  0.41644667  1
  P  P26  1  0.03676533  0.65919467  0.41644667  1
  P  P27  1  0.62085067  0.66827633  0.91656933  1
  P  P28  1  0.33172367  0.95257433  0.91656933  1
  P  P29  1  0.04742567  0.37914933  0.91656933  1
  P  P30  1  0.28909600  0.29656800  0.74978000  1
  P  P31  1  0.00747200  0.71090400  0.74978000  1
  P  P32  1  0.70343200  0.99252800  0.74978000  1
  O  O33  1  0.44859533  0.28921567  0.02603667  1
  O  O34  1  0.84062033  0.55140467  0.02603667  1
  O  O35  1  0.47490633  0.16740067  0.24766767  1
  O  O36  1  0.71078433  0.15937967  0.02603667  1
  O  O37  1  0.29435900  0.82974200  0.25013200  1
  O  O38  1  0.17484600  0.99156800  0.19272000  1
  O  O39  1  0.83259933  0.30750567  0.24766767  1
  O  O40  1  0.17025800  0.46461700  0.25013200  1
  O  O41  1  0.53538300  0.70564100  0.25013200  1
  O  O42  1  0.87295333  0.52171267  0.14069667  1
  O  O43  1  0.97810700  0.81964900  0.09028100  1
  O  O44  1  0.64875933  0.12704667  0.14069667  1
  O  O45  1  0.00843200  0.18327800  0.19272000  1
  O  O46  1  0.69249433  0.52509367  0.24766767  1
  O  O47  1  0.81672200  0.82515400  0.19272000  1
  O  O48  1  0.14046533  0.65304167  0.07905067  1
  O  O49  1  0.51257633  0.85953467  0.07905067  1
  O  O50  1  0.84154200  0.02189300  0.09028100  1
  O  O51  1  0.47828733  0.35124067  0.14069667  1
  O  O52  1  0.34695833  0.48742367  0.07905067  1
  O  O53  1  0.97204367  0.17850533  0.30742833  1
  O  O54  1  0.18035100  0.15845800  0.09028100  1
  O  O55  1  0.82149467  0.79353833  0.30742833  1
  O  O56  1  0.20646167  0.02795633  0.30742833  1
  O  O57  1  0.11526200  0.62254900  0.35937000  1
  O  O58  1  0.50728700  0.88473800  0.35937000  1
  O  O59  1  0.14157300  0.50073400  0.58100100  1
  O  O60  1  0.37745100  0.49271300  0.35937000  1
  O  O61  1  0.96102567  0.16307533  0.58346533  1
  O  O62  1  0.84151267  0.32490133  0.52605333  1
  O  O63  1  0.49926600  0.64083900  0.58100100  1
  O  O64  1  0.83692467  0.79795033  0.58346533  1
  O  O65  1  0.20204967  0.03897433  0.58346533  1
  O  O66  1  0.53962000  0.85504600  0.47403000  1
  O  O67  1  0.64477367  0.15298233  0.42361433  1
  O  O68  1  0.31542600  0.46038000  0.47403000  1
  O  O69  1  0.67509867  0.51661133  0.52605333  1
  O  O70  1  0.35916100  0.85842700  0.58100100  1
  O  O71  1  0.48338867  0.15848733  0.52605333  1
  O  O72  1  0.80713200  0.98637500  0.41238400  1
  O  O73  1  0.17924300  0.19286800  0.41238400  1
  O  O74  1  0.50820867  0.35522633  0.42361433  1
  O  O75  1  0.14495400  0.68457400  0.47403000  1
  O  O76  1  0.01362500  0.82075700  0.41238400  1
  O  O77  1  0.63871033  0.51183867  0.64076167  1
  O  O78  1  0.84701767  0.49179133  0.42361433  1
  O  O79  1  0.48816133  0.12687167  0.64076167  1
  O  O80  1  0.87312833  0.36128967  0.64076167  1
  O  O81  1  0.78192867  0.95588233  0.69270333  1
  O  O82  1  0.17395367  0.21807133  0.69270333  1
  O  O83  1  0.80823967  0.83406733  0.91433433  1
  O  O84  1  0.04411767  0.82604633  0.69270333  1
  O  O85  1  0.62769233  0.49640867  0.91679867  1
  O  O86  1  0.50817933  0.65823467  0.85938667  1
  O  O87  1  0.16593267  0.97417233  0.91433433  1
  O  O88  1  0.50359133  0.13128367  0.91679867  1
  O  O89  1  0.86871633  0.37230767  0.91679867  1
  O  O90  1  0.20628667  0.18837933  0.80736333  1
  O  O91  1  0.31144033  0.48631567  0.75694767  1
  O  O92  1  0.98209267  0.79371333  0.80736333  1
  O  O93  1  0.34176533  0.84994467  0.85938667  1
  O  O94  1  0.02582767  0.19176033  0.91433433  1
  O  O95  1  0.15005533  0.49182067  0.85938667  1
  O  O96  1  0.47379867  0.31970833  0.74571733  1
  O  O97  1  0.84590967  0.52620133  0.74571733  1
  O  O98  1  0.17487533  0.68855967  0.75694767  1
  O  O99  1  0.81162067  0.01790733  0.80736333  1
  O  O100  1  0.68029167  0.15409033  0.74571733  1
  O  O101  1  0.30537700  0.84517200  0.97409500  1
  O  O102  1  0.51368433  0.82512467  0.75694767  1
  O  O103  1  0.15482800  0.46020500  0.97409500  1
  O  O104  1  0.53979500  0.69462300  0.97409500  1
