# generated using pymatgen
data_BaLi4O3
_symmetry_space_group_name_H-M   'P 1'
_cell_length_a   5.79865800
_cell_length_b   9.19499600
_cell_length_c   13.69117200
_cell_angle_alpha   90.00000000
_cell_angle_beta   90.00000000
_cell_angle_gamma   90.00000000
_symmetry_Int_Tables_number   1
_chemical_formula_structural   BaLi4O3
_chemical_formula_sum   'Ba8 Li32 O24'
_cell_volume   729.99463155
_cell_formula_units_Z   8
loop_
 _symmetry_equiv_pos_site_id
 _symmetry_equiv_pos_as_xyz
  1  'x, y, z'
loop_
 _atom_site_type_symbol
 _atom_site_label
 _atom_site_symmetry_multiplicity
 _atom_site_fract_x
 _atom_site_fract_y
 _atom_site_fract_z
 _atom_site_occupancy
  Ba  Ba0  1  0.50000000  0.22883400  0.65775200  1
  Ba  Ba1  1  0.50000000  0.77116600  0.15775200  1
  Ba  Ba2  1  0.50000000  0.27333200  0.34443500  1
  Ba  Ba3  1  0.50000000  0.72666800  0.84443500  1
  Ba  Ba4  1  0.00000000  0.72883400  0.65775200  1
  Ba  Ba5  1  0.00000000  0.27116600  0.15775200  1
  Ba  Ba6  1  0.00000000  0.77333200  0.34443500  1
  Ba  Ba7  1  0.00000000  0.22666800  0.84443500  1
  Li  Li8  1  0.50000000  0.41625500  0.82321100  1
  Li  Li9  1  0.50000000  0.58374500  0.32321100  1
  Li  Li10  1  0.50000000  0.04866300  0.84175600  1
  Li  Li11  1  0.50000000  0.95133700  0.34175600  1
  Li  Li12  1  0.32329900  0.88759000  0.50799900  1
  Li  Li13  1  0.32329900  0.11241000  0.00799900  1
  Li  Li14  1  0.17763950  0.87725450  0.99456800  1
  Li  Li15  1  0.17763950  0.12274550  0.49456800  1
  Li  Li16  1  0.82236050  0.12274550  0.49456800  1
  Li  Li17  1  0.82236050  0.87725450  0.99456800  1
  Li  Li18  1  0.67670100  0.11241000  0.00799900  1
  Li  Li19  1  0.67670100  0.88759000  0.50799900  1
  Li  Li20  1  0.50000000  0.91647000  0.67913700  1
  Li  Li21  1  0.50000000  0.08353000  0.17913700  1
  Li  Li22  1  0.50000000  0.54980500  0.65773200  1
  Li  Li23  1  0.50000000  0.45019500  0.15773200  1
  Li  Li24  1  0.00000000  0.91625500  0.82321100  1
  Li  Li25  1  0.00000000  0.08374500  0.32321100  1
  Li  Li26  1  0.00000000  0.54866300  0.84175600  1
  Li  Li27  1  0.00000000  0.45133700  0.34175600  1
  Li  Li28  1  0.82329900  0.38759000  0.50799900  1
  Li  Li29  1  0.82329900  0.61241000  0.00799900  1
  Li  Li30  1  0.67763950  0.37725450  0.99456800  1
  Li  Li31  1  0.67763950  0.62274550  0.49456800  1
  Li  Li32  1  0.32236050  0.62274550  0.49456800  1
  Li  Li33  1  0.32236050  0.37725450  0.99456800  1
  Li  Li34  1  0.17670100  0.61241000  0.00799900  1
  Li  Li35  1  0.17670100  0.38759000  0.50799900  1
  Li  Li36  1  0.00000000  0.41647000  0.67913700  1
  Li  Li37  1  0.00000000  0.58353000  0.17913700  1
  Li  Li38  1  0.00000000  0.04980500  0.65773200  1
  Li  Li39  1  0.00000000  0.95019500  0.15773200  1
  O  O40  1  0.75286650  0.99264050  0.75051000  1
  O  O41  1  0.75286650  0.00735950  0.25051000  1
  O  O42  1  0.50000000  0.56165400  0.01015900  1
  O  O43  1  0.50000000  0.43834600  0.51015900  1
  O  O44  1  0.50000000  0.74705200  0.60248400  1
  O  O45  1  0.50000000  0.25294800  0.10248400  1
  O  O46  1  0.24713350  0.99264050  0.75051000  1
  O  O47  1  0.24713350  0.00735950  0.25051000  1
  O  O48  1  0.50000000  0.06909700  0.49174600  1
  O  O49  1  0.50000000  0.93090300  0.99174600  1
  O  O50  1  0.50000000  0.24325500  0.89770100  1
  O  O51  1  0.50000000  0.75674500  0.39770100  1
  O  O52  1  0.25286650  0.49264050  0.75051000  1
  O  O53  1  0.25286650  0.50735950  0.25051000  1
  O  O54  1  0.00000000  0.06165400  0.01015900  1
  O  O55  1  0.00000000  0.93834600  0.51015900  1
  O  O56  1  0.00000000  0.24705200  0.60248400  1
  O  O57  1  0.00000000  0.75294800  0.10248400  1
  O  O58  1  0.74713350  0.49264050  0.75051000  1
  O  O59  1  0.74713350  0.50735950  0.25051000  1
  O  O60  1  0.00000000  0.56909700  0.49174600  1
  O  O61  1  0.00000000  0.43090300  0.99174600  1
  O  O62  1  0.00000000  0.74325500  0.89770100  1
  O  O63  1  0.00000000  0.25674500  0.39770100  1
