# generated using pymatgen
data_Na6Mn3(PO4)4
_symmetry_space_group_name_H-M   'P 1'
_cell_length_a   20.16542600
_cell_length_b   6.75940200
_cell_length_c   10.93660540
_cell_angle_alpha   90.00000000
_cell_angle_beta   90.38068745
_cell_angle_gamma   90.00000000
_symmetry_Int_Tables_number   1
_chemical_formula_structural   Na6Mn3(PO4)4
_chemical_formula_sum   'Na24 Mn12 P16 O64'
_cell_volume   1490.69444652
_cell_formula_units_Z   4
loop_
 _symmetry_equiv_pos_site_id
 _symmetry_equiv_pos_as_xyz
  1  'x, y, z'
loop_
 _atom_site_type_symbol
 _atom_site_label
 _atom_site_symmetry_multiplicity
 _atom_site_fract_x
 _atom_site_fract_y
 _atom_site_fract_z
 _atom_site_occupancy
  Na  Na0  1  0.91211850  0.89952450  0.44317200  1
  Na  Na1  1  0.95197100  0.77205500  0.68593800  1
  Na  Na2  1  0.74591000  0.74114000  0.50238200  1
  Na  Na3  1  0.57225250  0.51565550  0.65189300  1
  Na  Na4  1  0.57225250  0.48434450  0.15189300  1
  Na  Na5  1  0.56874250  0.31936350  0.92603000  1
  Na  Na6  1  0.74591000  0.25886000  0.00238200  1
  Na  Na7  1  0.95197100  0.22794500  0.18593800  1
  Na  Na8  1  0.91211850  0.10047550  0.94317200  1
  Na  Na9  1  0.50355300  0.10405700  0.26278600  1
  Na  Na10  1  0.50355300  0.89594300  0.76278600  1
  Na  Na11  1  0.56874250  0.68063650  0.42603000  1
  Na  Na12  1  0.41211850  0.39952450  0.44317200  1
  Na  Na13  1  0.45197100  0.27205500  0.68593800  1
  Na  Na14  1  0.24591000  0.24114000  0.50238200  1
  Na  Na15  1  0.07225250  0.01565550  0.65189300  1
  Na  Na16  1  0.07225250  0.98434450  0.15189300  1
  Na  Na17  1  0.06874250  0.81936350  0.92603000  1
  Na  Na18  1  0.24591000  0.75886000  0.00238200  1
  Na  Na19  1  0.45197100  0.72794500  0.18593800  1
  Na  Na20  1  0.41211850  0.60047550  0.94317200  1
  Na  Na21  1  0.00355300  0.60405700  0.26278600  1
  Na  Na22  1  0.00355300  0.39594300  0.76278600  1
  Na  Na23  1  0.06874250  0.18063650  0.42603000  1
  Mn  Mn24  1  0.84230500  0.51633900  0.75694800  1
  Mn  Mn25  1  0.84230500  0.48366100  0.25694800  1
  Mn  Mn26  1  0.75179600  0.24790300  0.50780800  1
  Mn  Mn27  1  0.65490850  0.03043650  0.75324300  1
  Mn  Mn28  1  0.65490850  0.96956350  0.25324300  1
  Mn  Mn29  1  0.75179600  0.75209700  0.00780800  1
  Mn  Mn30  1  0.34230500  0.01633900  0.75694800  1
  Mn  Mn31  1  0.34230500  0.98366100  0.25694800  1
  Mn  Mn32  1  0.25179600  0.74790300  0.50780800  1
  Mn  Mn33  1  0.15490850  0.53043650  0.75324300  1
  Mn  Mn34  1  0.15490850  0.46956350  0.25324300  1
  Mn  Mn35  1  0.25179600  0.25209700  0.00780800  1
  P  P36  1  0.92228600  0.68020300  0.01814600  1
  P  P37  1  0.69986450  0.52736850  0.75307900  1
  P  P38  1  0.69986450  0.47263150  0.25307900  1
  P  P39  1  0.92228600  0.31979700  0.51814600  1
  P  P40  1  0.57924300  0.18769500  0.49807400  1
  P  P41  1  0.79819450  0.01918750  0.76339900  1
  P  P42  1  0.79819450  0.98081250  0.26339900  1
  P  P43  1  0.57924300  0.81230500  0.99807400  1
  P  P44  1  0.42228600  0.18020300  0.01814600  1
  P  P45  1  0.19986450  0.02736850  0.75307900  1
  P  P46  1  0.19986450  0.97263150  0.25307900  1
  P  P47  1  0.42228600  0.81979700  0.51814600  1
  P  P48  1  0.07924300  0.68769500  0.49807400  1
  P  P49  1  0.29819450  0.51918750  0.76339900  1
  P  P50  1  0.29819450  0.48081250  0.26339900  1
  P  P51  1  0.07924300  0.31230500  0.99807400  1
  O  O52  1  0.86091300  0.81612700  0.01556500  1
  O  O53  1  0.84391250  0.84124250  0.73496500  1
  O  O54  1  0.84223200  0.79463200  0.29514300  1
  O  O55  1  0.65185400  0.64403900  0.28155300  1
  O  O56  1  0.93781800  0.61020900  0.88354100  1
  O  O57  1  0.74974850  0.54630250  0.86301100  1
  O  O58  1  0.90810300  0.49548600  0.10109100  1
  O  O59  1  0.74814350  0.48906250  0.64348700  1
  O  O60  1  0.74814350  0.51093750  0.14348700  1
  O  O61  1  0.90810300  0.50451400  0.60109100  1
  O  O62  1  0.74974850  0.45369750  0.36301100  1
  O  O63  1  0.93781800  0.38979100  0.38354100  1
  O  O64  1  0.65185400  0.35596100  0.78155300  1
  O  O65  1  0.63893700  0.32911400  0.50657800  1
  O  O66  1  0.51922450  0.30711250  0.44331100  1
  O  O67  1  0.98327750  0.79755850  0.07235900  1
  O  O68  1  0.65839350  0.28678250  0.22027000  1
  O  O69  1  0.84223200  0.20536800  0.79514300  1
  O  O70  1  0.84391250  0.15875750  0.23496500  1
  O  O71  1  0.86091300  0.18387300  0.51556500  1
  O  O72  1  0.56128400  0.12104800  0.63286100  1
  O  O73  1  0.74845550  0.04659050  0.65356900  1
  O  O74  1  0.74926200  0.98754000  0.87290100  1
  O  O75  1  0.59459400  0.99441300  0.91398900  1
  O  O76  1  0.59459400  0.00558700  0.41398900  1
  O  O77  1  0.74926200  0.01246000  0.37290100  1
  O  O78  1  0.74845550  0.95340950  0.15356900  1
  O  O79  1  0.56128400  0.87895200  0.13286100  1
  O  O80  1  0.65839350  0.71321750  0.72027000  1
  O  O81  1  0.98327750  0.20244150  0.57235900  1
  O  O82  1  0.51922450  0.69288750  0.94331100  1
  O  O83  1  0.63893700  0.67088600  0.00657800  1
  O  O84  1  0.36091300  0.31612700  0.01556500  1
  O  O85  1  0.34391250  0.34124250  0.73496500  1
  O  O86  1  0.34223200  0.29463200  0.29514300  1
  O  O87  1  0.15185400  0.14403900  0.28155300  1
  O  O88  1  0.43781800  0.11020900  0.88354100  1
  O  O89  1  0.24974850  0.04630250  0.86301100  1
  O  O90  1  0.40810300  0.99548600  0.10109100  1
  O  O91  1  0.24814350  0.98906250  0.64348700  1
  O  O92  1  0.24814350  0.01093750  0.14348700  1
  O  O93  1  0.40810300  0.00451400  0.60109100  1
  O  O94  1  0.24974850  0.95369750  0.36301100  1
  O  O95  1  0.43781800  0.88979100  0.38354100  1
  O  O96  1  0.15185400  0.85596100  0.78155300  1
  O  O97  1  0.13893700  0.82911400  0.50657800  1
  O  O98  1  0.01922450  0.80711250  0.44331100  1
  O  O99  1  0.48327750  0.29755850  0.07235900  1
  O  O100  1  0.15839350  0.78678250  0.22027000  1
  O  O101  1  0.34223200  0.70536800  0.79514300  1
  O  O102  1  0.34391250  0.65875750  0.23496500  1
  O  O103  1  0.36091300  0.68387300  0.51556500  1
  O  O104  1  0.06128400  0.62104800  0.63286100  1
  O  O105  1  0.24845550  0.54659050  0.65356900  1
  O  O106  1  0.24926200  0.48754000  0.87290100  1
  O  O107  1  0.09459400  0.49441300  0.91398900  1
  O  O108  1  0.09459400  0.50558700  0.41398900  1
  O  O109  1  0.24926200  0.51246000  0.37290100  1
  O  O110  1  0.24845550  0.45340950  0.15356900  1
  O  O111  1  0.06128400  0.37895200  0.13286100  1
  O  O112  1  0.15839350  0.21321750  0.72027000  1
  O  O113  1  0.48327750  0.70244150  0.57235900  1
  O  O114  1  0.01922450  0.19288750  0.94331100  1
  O  O115  1  0.13893700  0.17088600  0.00657800  1
