# generated using pymatgen
data_Gd3AsO7
_symmetry_space_group_name_H-M   'P 1'
_cell_length_a   7.44579000
_cell_length_b   10.51273600
_cell_length_c   7.45790000
_cell_angle_alpha   90.00000000
_cell_angle_beta   90.00000000
_cell_angle_gamma   90.00000000
_symmetry_Int_Tables_number   1
_chemical_formula_structural   Gd3AsO7
_chemical_formula_sum   'Gd12 As4 O28'
_cell_volume   583.77178057
_cell_formula_units_Z   4
loop_
 _symmetry_equiv_pos_site_id
 _symmetry_equiv_pos_as_xyz
  1  'x, y, z'
loop_
 _atom_site_type_symbol
 _atom_site_label
 _atom_site_symmetry_multiplicity
 _atom_site_fract_x
 _atom_site_fract_y
 _atom_site_fract_z
 _atom_site_occupancy
  Gd  Gd0  1  0.23334950  0.76843650  0.25199800  1
  Gd  Gd1  1  0.76665050  0.76843650  0.24800200  1
  Gd  Gd2  1  0.48886300  0.00000000  0.00000000  1
  Gd  Gd3  1  0.51113700  0.00000000  0.50000000  1
  Gd  Gd4  1  0.76665050  0.23156350  0.75199800  1
  Gd  Gd5  1  0.23334950  0.23156350  0.74800200  1
  Gd  Gd6  1  0.73334950  0.26843650  0.25199800  1
  Gd  Gd7  1  0.26665050  0.26843650  0.24800200  1
  Gd  Gd8  1  0.98886300  0.50000000  0.00000000  1
  Gd  Gd9  1  0.01113700  0.50000000  0.50000000  1
  Gd  Gd10  1  0.26665050  0.73156350  0.75199800  1
  Gd  Gd11  1  0.73334950  0.73156350  0.74800200  1
  As  As12  1  0.99969900  0.00000000  0.50000000  1
  As  As13  1  0.00030100  0.00000000  0.00000000  1
  As  As14  1  0.49969900  0.50000000  0.50000000  1
  As  As15  1  0.50030100  0.50000000  0.00000000  1
  O  O16  1  0.50000000  0.55772900  0.75000000  1
  O  O17  1  0.50000000  0.86455800  0.75000000  1
  O  O18  1  0.17801250  0.87877050  0.52975400  1
  O  O19  1  0.82198750  0.87877050  0.97024600  1
  O  O20  1  0.50000000  0.87067000  0.25000000  1
  O  O21  1  0.81377850  0.88073850  0.52659200  1
  O  O22  1  0.18622150  0.88073850  0.97340800  1
  O  O23  1  0.18622150  0.11926150  0.02659200  1
  O  O24  1  0.81377850  0.11926150  0.47340800  1
  O  O25  1  0.50000000  0.12933000  0.75000000  1
  O  O26  1  0.82198750  0.12122950  0.02975400  1
  O  O27  1  0.17801250  0.12122950  0.47024600  1
  O  O28  1  0.50000000  0.13544200  0.25000000  1
  O  O29  1  0.50000000  0.44227100  0.25000000  1
  O  O30  1  0.00000000  0.05772900  0.75000000  1
  O  O31  1  0.00000000  0.36455800  0.75000000  1
  O  O32  1  0.67801250  0.37877050  0.52975400  1
  O  O33  1  0.32198750  0.37877050  0.97024600  1
  O  O34  1  0.00000000  0.37067000  0.25000000  1
  O  O35  1  0.31377850  0.38073850  0.52659200  1
  O  O36  1  0.68622150  0.38073850  0.97340800  1
  O  O37  1  0.68622150  0.61926150  0.02659200  1
  O  O38  1  0.31377850  0.61926150  0.47340800  1
  O  O39  1  0.00000000  0.62933000  0.75000000  1
  O  O40  1  0.32198750  0.62122950  0.02975400  1
  O  O41  1  0.67801250  0.62122950  0.47024600  1
  O  O42  1  0.00000000  0.63544200  0.25000000  1
  O  O43  1  0.00000000  0.94227100  0.25000000  1
