# generated using pymatgen
data_KSiPCO7
_symmetry_space_group_name_H-M   'P 1'
_cell_length_a   5.09732700
_cell_length_b   6.00884300
_cell_length_c   10.11097527
_cell_angle_alpha   90.00000000
_cell_angle_beta   91.22802077
_cell_angle_gamma   90.00000000
_symmetry_Int_Tables_number   1
_chemical_formula_structural   KSiPCO7
_chemical_formula_sum   'K2 Si2 P2 C2 O14'
_cell_volume   309.61831346
_cell_formula_units_Z   2
loop_
 _symmetry_equiv_pos_site_id
 _symmetry_equiv_pos_as_xyz
  1  'x, y, z'
loop_
 _atom_site_type_symbol
 _atom_site_label
 _atom_site_symmetry_multiplicity
 _atom_site_fract_x
 _atom_site_fract_y
 _atom_site_fract_z
 _atom_site_occupancy
  K  K0  1  0.75121800  0.36757300  0.20978700  1
  K  K1  1  0.24878200  0.86757300  0.79021300  1
  Si  Si2  1  0.23292800  0.77792100  0.35443300  1
  Si  Si3  1  0.76707200  0.27792100  0.64556700  1
  P  P4  1  0.26463300  0.27455500  0.44774400  1
  P  P5  1  0.73536700  0.77455500  0.55225600  1
  C  C6  1  0.28742600  0.74345500  0.13414700  1
  C  C7  1  0.71257400  0.24345500  0.86585300  1
  O  O8  1  0.68052600  0.20123000  0.98343200  1
  O  O9  1  0.05847100  0.76574700  0.19622200  1
  O  O10  1  0.47763400  0.76473600  0.22836800  1
  O  O11  1  0.23237100  0.07495600  0.35269500  1
  O  O12  1  0.23033300  0.47539200  0.35450400  1
  O  O13  1  0.94250500  0.77501900  0.44508200  1
  O  O14  1  0.54667200  0.27726600  0.50736300  1
  O  O15  1  0.45332800  0.77726600  0.49263700  1
  O  O16  1  0.05749500  0.27501900  0.55491800  1
  O  O17  1  0.76966700  0.97539200  0.64549600  1
  O  O18  1  0.76762900  0.57495600  0.64730500  1
  O  O19  1  0.52236600  0.26473600  0.77163200  1
  O  O20  1  0.94152900  0.26574700  0.80377800  1
  O  O21  1  0.31947400  0.70123000  0.01656800  1
