# generated using pymatgen
data_Ge2N2O
_symmetry_space_group_name_H-M   'P 1'
_cell_length_a   5.86317600
_cell_length_b   5.86317600
_cell_length_c   24.95286600
_cell_angle_alpha   90.00000000
_cell_angle_beta   90.00000000
_cell_angle_gamma   90.00000000
_symmetry_Int_Tables_number   1
_chemical_formula_structural   Ge2N2O
_chemical_formula_sum   'Ge32 N32 O16'
_cell_volume   857.80050254
_cell_formula_units_Z   16
loop_
 _symmetry_equiv_pos_site_id
 _symmetry_equiv_pos_as_xyz
  1  'x, y, z'
loop_
 _atom_site_type_symbol
 _atom_site_label
 _atom_site_symmetry_multiplicity
 _atom_site_fract_x
 _atom_site_fract_y
 _atom_site_fract_z
 _atom_site_occupancy
  Ge  Ge0  1  0.50000000  0.75000000  0.12500000  1
  Ge  Ge1  1  0.50000000  0.25000000  0.12500000  1
  Ge  Ge2  1  0.75000000  0.00000000  0.37500000  1
  Ge  Ge3  1  0.75125350  0.50000000  0.20675050  1
  Ge  Ge4  1  0.00000000  0.50000000  0.41909300  1
  Ge  Ge5  1  0.00000000  0.74874650  0.29324950  1
  Ge  Ge6  1  0.00000000  0.00000000  0.16909300  1
  Ge  Ge7  1  0.00000000  0.25125350  0.29324950  1
  Ge  Ge8  1  0.24874650  0.50000000  0.20675050  1
  Ge  Ge9  1  0.25000000  0.00000000  0.37500000  1
  Ge  Ge10  1  0.75125350  0.00000000  0.04324950  1
  Ge  Ge11  1  0.00000000  0.50000000  0.08090700  1
  Ge  Ge12  1  0.50000000  0.50000000  0.33090700  1
  Ge  Ge13  1  0.50000000  0.25125350  0.45675050  1
  Ge  Ge14  1  0.50000000  0.74874650  0.45675050  1
  Ge  Ge15  1  0.24874650  0.00000000  0.04324950  1
  Ge  Ge16  1  0.00000000  0.25000000  0.62500000  1
  Ge  Ge17  1  0.00000000  0.75000000  0.62500000  1
  Ge  Ge18  1  0.25000000  0.50000000  0.87500000  1
  Ge  Ge19  1  0.25125350  0.00000000  0.70675050  1
  Ge  Ge20  1  0.50000000  0.00000000  0.91909300  1
  Ge  Ge21  1  0.50000000  0.24874650  0.79324950  1
  Ge  Ge22  1  0.50000000  0.50000000  0.66909300  1
  Ge  Ge23  1  0.50000000  0.75125350  0.79324950  1
  Ge  Ge24  1  0.74874650  0.00000000  0.70675050  1
  Ge  Ge25  1  0.75000000  0.50000000  0.87500000  1
  Ge  Ge26  1  0.25125350  0.50000000  0.54324950  1
  Ge  Ge27  1  0.50000000  0.00000000  0.58090700  1
  Ge  Ge28  1  0.00000000  0.00000000  0.83090700  1
  Ge  Ge29  1  0.00000000  0.75125350  0.95675050  1
  Ge  Ge30  1  0.00000000  0.24874650  0.95675050  1
  Ge  Ge31  1  0.74874650  0.50000000  0.54324950  1
  N  N32  1  0.73572200  0.50000000  0.12580400  1
  N  N33  1  0.76483200  0.50000000  0.28738400  1
  N  N34  1  0.00000000  0.26483200  0.21261600  1
  N  N35  1  0.00000000  0.73516800  0.21261600  1
  N  N36  1  0.00000000  0.76427800  0.37419600  1
  N  N37  1  0.00000000  0.23572200  0.37419600  1
  N  N38  1  0.23516800  0.50000000  0.28738400  1
  N  N39  1  0.73572200  0.00000000  0.12419600  1
  N  N40  1  0.26427800  0.50000000  0.12580400  1
  N  N41  1  0.26483200  0.50000000  0.46261600  1
  N  N42  1  0.50000000  0.23572200  0.37580400  1
  N  N43  1  0.00000000  0.76483200  0.03738400  1
  N  N44  1  0.00000000  0.23516800  0.03738400  1
  N  N45  1  0.50000000  0.76427800  0.37580400  1
  N  N46  1  0.73516800  0.50000000  0.46261600  1
  N  N47  1  0.26427800  0.00000000  0.12419600  1
  N  N48  1  0.23572200  0.00000000  0.62580400  1
  N  N49  1  0.26483200  0.00000000  0.78738400  1
  N  N50  1  0.50000000  0.76483200  0.71261600  1
  N  N51  1  0.50000000  0.23516800  0.71261600  1
  N  N52  1  0.50000000  0.26427800  0.87419600  1
  N  N53  1  0.50000000  0.73572200  0.87419600  1
  N  N54  1  0.73516800  0.00000000  0.78738400  1
  N  N55  1  0.23572200  0.50000000  0.62419600  1
  N  N56  1  0.76427800  0.00000000  0.62580400  1
  N  N57  1  0.76483200  0.00000000  0.96261600  1
  N  N58  1  0.00000000  0.73572200  0.87580400  1
  N  N59  1  0.50000000  0.26483200  0.53738400  1
  N  N60  1  0.50000000  0.73516800  0.53738400  1
  N  N61  1  0.00000000  0.26427800  0.87580400  1
  N  N62  1  0.23516800  0.00000000  0.96261600  1
  N  N63  1  0.76427800  0.50000000  0.62419600  1
  O  O64  1  0.78404900  0.00000000  0.29829300  1
  O  O65  1  0.50000000  0.78404900  0.04829300  1
  O  O66  1  0.50000000  0.21595100  0.04829300  1
  O  O67  1  0.21595100  0.00000000  0.29829300  1
  O  O68  1  0.28404900  0.00000000  0.45170700  1
  O  O69  1  0.50000000  0.28404900  0.20170700  1
  O  O70  1  0.50000000  0.71595100  0.20170700  1
  O  O71  1  0.71595100  0.00000000  0.45170700  1
  O  O72  1  0.28404900  0.50000000  0.79829300  1
  O  O73  1  0.00000000  0.28404900  0.54829300  1
  O  O74  1  0.00000000  0.71595100  0.54829300  1
  O  O75  1  0.71595100  0.50000000  0.79829300  1
  O  O76  1  0.78404900  0.50000000  0.95170700  1
  O  O77  1  0.00000000  0.78404900  0.70170700  1
  O  O78  1  0.00000000  0.21595100  0.70170700  1
  O  O79  1  0.21595100  0.50000000  0.95170700  1
