# generated using pymatgen
data_Ba4ZrO6
_symmetry_space_group_name_H-M   'P 1'
_cell_length_a   10.55264903
_cell_length_b   10.55264903
_cell_length_c   13.06704764
_cell_angle_alpha   90.00000000
_cell_angle_beta   90.00000000
_cell_angle_gamma   120.00000000
_symmetry_Int_Tables_number   1
_chemical_formula_structural   Ba4ZrO6
_chemical_formula_sum   'Ba24 Zr6 O36'
_cell_volume   1260.17568173
_cell_formula_units_Z   6
loop_
 _symmetry_equiv_pos_site_id
 _symmetry_equiv_pos_as_xyz
  1  'x, y, z'
loop_
 _atom_site_type_symbol
 _atom_site_label
 _atom_site_symmetry_multiplicity
 _atom_site_fract_x
 _atom_site_fract_y
 _atom_site_fract_z
 _atom_site_occupancy
  Ba  Ba0  1  0.03072767  0.33333333  0.08333333  1
  Ba  Ba1  1  0.00000000  0.63593900  0.25000000  1
  Ba  Ba2  1  0.36406100  0.36406100  0.25000000  1
  Ba  Ba3  1  0.33333333  0.66666667  0.91666667  1
  Ba  Ba4  1  0.33333333  0.66666667  0.41666667  1
  Ba  Ba5  1  0.30260567  0.96927233  0.08333333  1
  Ba  Ba6  1  0.66666667  0.69739433  0.08333333  1
  Ba  Ba7  1  0.63593900  0.00000000  0.25000000  1
  Ba  Ba8  1  0.69739433  0.66666667  0.41666667  1
  Ba  Ba9  1  0.66666667  0.96927233  0.58333333  1
  Ba  Ba10  1  0.03072767  0.69739433  0.58333333  1
  Ba  Ba11  1  0.00000000  0.00000000  0.25000000  1
  Ba  Ba12  1  0.00000000  0.00000000  0.75000000  1
  Ba  Ba13  1  0.96927233  0.30260567  0.41666667  1
  Ba  Ba14  1  0.33333333  0.03072767  0.41666667  1
  Ba  Ba15  1  0.30260567  0.33333333  0.58333333  1
  Ba  Ba16  1  0.36406100  0.00000000  0.75000000  1
  Ba  Ba17  1  0.33333333  0.30260567  0.91666667  1
  Ba  Ba18  1  0.69739433  0.03072767  0.91666667  1
  Ba  Ba19  1  0.66666667  0.33333333  0.58333333  1
  Ba  Ba20  1  0.66666667  0.33333333  0.08333333  1
  Ba  Ba21  1  0.63593900  0.63593900  0.75000000  1
  Ba  Ba22  1  0.00000000  0.36406100  0.75000000  1
  Ba  Ba23  1  0.96927233  0.66666667  0.91666667  1
  Zr  Zr24  1  0.33333333  0.66666667  0.16666667  1
  Zr  Zr25  1  0.00000000  0.00000000  0.00000000  1
  Zr  Zr26  1  1.00000000  0.00000000  0.50000000  1
  Zr  Zr27  1  0.66666667  0.33333333  0.33333333  1
  Zr  Zr28  1  0.66666667  0.33333333  0.83333333  1
  Zr  Zr29  1  0.33333333  0.66666667  0.66666667  1
  O  O30  1  0.82103333  0.31094267  0.23660667  1
  O  O31  1  0.17675733  0.15436667  0.09672667  1
  O  O32  1  0.17896667  0.48990933  0.26339333  1
  O  O33  1  0.97760933  0.82324267  0.09672667  1
  O  O34  1  0.15657600  0.64427600  0.06994000  1
  O  O35  1  0.35572400  0.51230000  0.06994000  1
  O  O36  1  0.31094267  0.82103333  0.26339333  1
  O  O37  1  0.51009067  0.68905733  0.26339333  1
  O  O38  1  0.68905733  0.51009067  0.23660667  1
  O  O39  1  0.48770000  0.84342400  0.06994000  1
  O  O40  1  0.48990933  0.17896667  0.23660667  1
  O  O41  1  0.84563333  0.02239067  0.09672667  1
  O  O42  1  0.48770000  0.64427600  0.56994000  1
  O  O43  1  0.84342400  0.48770000  0.43006000  1
  O  O44  1  0.84563333  0.82324267  0.59672667  1
  O  O45  1  0.64427600  0.15657600  0.43006000  1
  O  O46  1  0.82324267  0.97760933  0.40327333  1
  O  O47  1  0.02239067  0.84563333  0.40327333  1
  O  O48  1  0.97760933  0.15436667  0.59672667  1
  O  O49  1  0.17675733  0.02239067  0.59672667  1
  O  O50  1  0.35572400  0.84342400  0.56994000  1
  O  O51  1  0.15436667  0.17675733  0.40327333  1
  O  O52  1  0.15657600  0.51230000  0.56994000  1
  O  O53  1  0.51230000  0.35572400  0.43006000  1
  O  O54  1  0.15436667  0.97760933  0.90327333  1
  O  O55  1  0.51009067  0.82103333  0.76339333  1
  O  O56  1  0.51230000  0.15657600  0.93006000  1
  O  O57  1  0.31094267  0.48990933  0.76339333  1
  O  O58  1  0.48990933  0.31094267  0.73660667  1
  O  O59  1  0.68905733  0.17896667  0.73660667  1
  O  O60  1  0.64427600  0.48770000  0.93006000  1
  O  O61  1  0.84342400  0.35572400  0.93006000  1
  O  O62  1  0.02239067  0.17675733  0.90327333  1
  O  O63  1  0.82103333  0.51009067  0.73660667  1
  O  O64  1  0.82324267  0.84563333  0.90327333  1
  O  O65  1  0.17896667  0.68905733  0.76339333  1
