# generated using pymatgen
data_Rb2S3
_symmetry_space_group_name_H-M   'P 1'
_cell_length_a   7.56188000
_cell_length_b   10.68347400
_cell_length_c   7.95987700
_cell_angle_alpha   90.00000000
_cell_angle_beta   90.00000000
_cell_angle_gamma   90.00000000
_symmetry_Int_Tables_number   1
_chemical_formula_structural   Rb2S3
_chemical_formula_sum   'Rb8 S12'
_cell_volume   643.05576421
_cell_formula_units_Z   4
loop_
 _symmetry_equiv_pos_site_id
 _symmetry_equiv_pos_as_xyz
  1  'x, y, z'
loop_
 _atom_site_type_symbol
 _atom_site_label
 _atom_site_symmetry_multiplicity
 _atom_site_fract_x
 _atom_site_fract_y
 _atom_site_fract_z
 _atom_site_occupancy
  Rb  Rb0  1  0.50000000  0.07992800  0.80907100  1
  Rb  Rb1  1  0.50000000  0.92007200  0.30907100  1
  Rb  Rb2  1  0.50000000  0.60615000  0.53807400  1
  Rb  Rb3  1  0.50000000  0.39385000  0.03807400  1
  Rb  Rb4  1  0.00000000  0.57992800  0.80907100  1
  Rb  Rb5  1  0.00000000  0.42007200  0.30907100  1
  Rb  Rb6  1  0.00000000  0.10615000  0.53807400  1
  Rb  Rb7  1  0.00000000  0.89385000  0.03807400  1
  S  S8  1  0.22414200  0.84208300  0.65170900  1
  S  S9  1  0.77585800  0.15791700  0.15170900  1
  S  S10  1  0.77585800  0.84208300  0.65170900  1
  S  S11  1  0.22414200  0.15791700  0.15170900  1
  S  S12  1  0.50000000  0.69964600  0.00683700  1
  S  S13  1  0.50000000  0.30035400  0.50683700  1
  S  S14  1  0.72414200  0.34208300  0.65170900  1
  S  S15  1  0.27585800  0.65791700  0.15170900  1
  S  S16  1  0.27585800  0.34208300  0.65170900  1
  S  S17  1  0.72414200  0.65791700  0.15170900  1
  S  S18  1  0.00000000  0.19964600  0.00683700  1
  S  S19  1  0.00000000  0.80035400  0.50683700  1
