# generated using pymatgen
data_YNb2NO5
_symmetry_space_group_name_H-M   'P 1'
_cell_length_a   5.96342600
_cell_length_b   5.28401100
_cell_length_c   15.02774456
_cell_angle_alpha   90.00000000
_cell_angle_beta   90.30546086
_cell_angle_gamma   90.00000000
_symmetry_Int_Tables_number   1
_chemical_formula_structural   YNb2NO5
_chemical_formula_sum   'Y4 Nb8 N4 O20'
_cell_volume   473.52965280
_cell_formula_units_Z   4
loop_
 _symmetry_equiv_pos_site_id
 _symmetry_equiv_pos_as_xyz
  1  'x, y, z'
loop_
 _atom_site_type_symbol
 _atom_site_label
 _atom_site_symmetry_multiplicity
 _atom_site_fract_x
 _atom_site_fract_y
 _atom_site_fract_z
 _atom_site_occupancy
  Y  Y0  1  0.54883500  0.75621400  0.25294100  1
  Y  Y1  1  0.94775400  0.25595500  0.24872600  1
  Y  Y2  1  0.45116500  0.25621400  0.74705900  1
  Y  Y3  1  0.05224600  0.75595500  0.75127400  1
  Nb  Nb4  1  0.41765800  0.22150800  0.41477700  1
  Nb  Nb5  1  0.07118400  0.75119200  0.41594500  1
  Nb  Nb6  1  0.58234200  0.72150800  0.58522300  1
  Nb  Nb7  1  0.92881600  0.25119200  0.58405500  1
  Nb  Nb8  1  0.57371700  0.76069200  0.91800500  1
  Nb  Nb9  1  0.94206800  0.27491200  0.91425800  1
  Nb  Nb10  1  0.42628300  0.26069200  0.08199500  1
  Nb  Nb11  1  0.05793200  0.77491200  0.08574200  1
  N  N12  1  0.16464900  0.04321900  0.34938500  1
  N  N13  1  0.83535100  0.54321900  0.65061500  1
  N  N14  1  0.14004100  0.39192500  0.83249100  1
  N  N15  1  0.85995900  0.89192500  0.16750900  1
  O  O16  1  0.86417500  0.60404800  0.33434200  1
  O  O17  1  0.63634300  0.11011300  0.33320200  1
  O  O18  1  0.33923400  0.54189900  0.35217800  1
  O  O19  1  0.38300700  0.90773700  0.49429000  1
  O  O20  1  0.12467100  0.40756400  0.49622700  1
  O  O21  1  0.87532900  0.90756400  0.50377300  1
  O  O22  1  0.61699300  0.40773700  0.50571000  1
  O  O23  1  0.66076600  0.04189900  0.64782200  1
  O  O24  1  0.36365700  0.61011300  0.66679800  1
  O  O25  1  0.13582500  0.10404800  0.66565800  1
  O  O26  1  0.37563900  0.89326000  0.83243600  1
  O  O27  1  0.66008300  0.45404300  0.85093500  1
  O  O28  1  0.83812500  0.95304600  0.85293700  1
  O  O29  1  0.60870800  0.07833900  0.99646600  1
  O  O30  1  0.87445500  0.59433500  0.99285400  1
  O  O31  1  0.39129200  0.57833900  0.00353400  1
  O  O32  1  0.12554500  0.09433500  0.00714600  1
  O  O33  1  0.33991700  0.95404300  0.14906500  1
  O  O34  1  0.16187500  0.45304600  0.14706300  1
  O  O35  1  0.62436100  0.39326000  0.16756400  1
