# generated using pymatgen
data_Li2VO2F
_symmetry_space_group_name_H-M   'P 1'
_cell_length_a   10.44227000
_cell_length_b   6.00786600
_cell_length_c   8.98532133
_cell_angle_alpha   90.00000000
_cell_angle_beta   125.29162913
_cell_angle_gamma   90.00000000
_symmetry_Int_Tables_number   1
_chemical_formula_structural   Li2VO2F
_chemical_formula_sum   'Li16 V8 O16 F8'
_cell_volume   460.10512225
_cell_formula_units_Z   8
loop_
 _symmetry_equiv_pos_site_id
 _symmetry_equiv_pos_as_xyz
  1  'x, y, z'
loop_
 _atom_site_type_symbol
 _atom_site_label
 _atom_site_symmetry_multiplicity
 _atom_site_fract_x
 _atom_site_fract_y
 _atom_site_fract_z
 _atom_site_occupancy
  Li  Li0  1  0.49406150  0.25968350  0.13554300  1
  Li  Li1  1  0.22658000  0.00000000  0.14559900  1
  Li  Li2  1  0.49406150  0.74031650  0.13554300  1
  Li  Li3  1  0.23280400  0.50000000  0.14386800  1
  Li  Li4  1  0.75672300  0.50000000  0.84754700  1
  Li  Li5  1  0.50666600  0.26861100  0.85541000  1
  Li  Li6  1  0.77557600  0.00000000  0.85983900  1
  Li  Li7  1  0.50666600  0.73138900  0.85541000  1
  Li  Li8  1  0.99406150  0.75968350  0.13554300  1
  Li  Li9  1  0.72658000  0.50000000  0.14559900  1
  Li  Li10  1  0.99406150  0.24031650  0.13554300  1
  Li  Li11  1  0.73280400  0.00000000  0.14386800  1
  Li  Li12  1  0.25672300  0.00000000  0.84754700  1
  Li  Li13  1  0.00666600  0.76861100  0.85541000  1
  Li  Li14  1  0.27557600  0.50000000  0.85983900  1
  Li  Li15  1  0.00666600  0.23138900  0.85541000  1
  V  V16  1  0.50305850  0.75652850  0.50842900  1
  V  V17  1  0.25015700  0.50000000  0.49934000  1
  V  V18  1  0.50305850  0.24347150  0.50842900  1
  V  V19  1  0.25723800  0.00000000  0.50574100  1
  V  V20  1  0.00305850  0.25652850  0.50842900  1
  V  V21  1  0.75015700  0.00000000  0.49934000  1
  V  V22  1  0.00305850  0.74347150  0.50842900  1
  V  V23  1  0.75723800  0.50000000  0.50574100  1
  O  O24  1  0.51022900  0.00000000  0.35496000  1
  O  O25  1  0.00069800  0.00000000  0.00063600  1
  O  O26  1  0.26214350  0.75179950  0.35343100  1
  O  O27  1  0.73939650  0.74418450  0.64679900  1
  O  O28  1  0.49190300  0.50000000  0.64566300  1
  O  O29  1  0.73939650  0.25581550  0.64679900  1
  O  O30  1  0.26214350  0.24820050  0.35343100  1
  O  O31  1  0.49568500  0.00000000  0.65803900  1
  O  O32  1  0.01022900  0.50000000  0.35496000  1
  O  O33  1  0.50069800  0.50000000  0.00063600  1
  O  O34  1  0.76214350  0.25179950  0.35343100  1
  O  O35  1  0.23939650  0.24418450  0.64679900  1
  O  O36  1  0.99190300  0.00000000  0.64566300  1
  O  O37  1  0.23939650  0.75581550  0.64679900  1
  O  O38  1  0.76214350  0.74820050  0.35343100  1
  O  O39  1  0.99568500  0.50000000  0.65803900  1
  F  F40  1  0.25225000  0.24937300  0.00232800  1
  F  F41  1  0.25225000  0.75062700  0.00232800  1
  F  F42  1  0.49949600  0.50000000  0.33630100  1
  F  F43  1  0.99930300  0.50000000  0.99963900  1
  F  F44  1  0.75225000  0.74937300  0.00232800  1
  F  F45  1  0.75225000  0.25062700  0.00232800  1
  F  F46  1  0.99949600  0.00000000  0.33630100  1
  F  F47  1  0.49930300  0.00000000  0.99963900  1
