# generated using pymatgen
data_Sr2CaI6
_symmetry_space_group_name_H-M   'P 1'
_cell_length_a   8.05950600
_cell_length_b   8.05950600
_cell_length_c   23.95319200
_cell_angle_alpha   90.00000000
_cell_angle_beta   90.00000000
_cell_angle_gamma   90.00000000
_symmetry_Int_Tables_number   1
_chemical_formula_structural   Sr2CaI6
_chemical_formula_sum   'Sr8 Ca4 I24'
_cell_volume   1555.89484368
_cell_formula_units_Z   4
loop_
 _symmetry_equiv_pos_site_id
 _symmetry_equiv_pos_as_xyz
  1  'x, y, z'
loop_
 _atom_site_type_symbol
 _atom_site_label
 _atom_site_symmetry_multiplicity
 _atom_site_fract_x
 _atom_site_fract_y
 _atom_site_fract_z
 _atom_site_occupancy
  Sr  Sr0  1  0.00000000  0.50000000  0.16490300  1
  Sr  Sr1  1  0.00000000  0.00000000  0.33258600  1
  Sr  Sr2  1  0.00000000  0.00000000  0.66741400  1
  Sr  Sr3  1  0.00000000  0.50000000  0.83509700  1
  Sr  Sr4  1  0.50000000  0.50000000  0.33258600  1
  Sr  Sr5  1  0.50000000  0.00000000  0.16490300  1
  Sr  Sr6  1  0.50000000  0.00000000  0.83509700  1
  Sr  Sr7  1  0.50000000  0.50000000  0.66741400  1
  Ca  Ca8  1  0.00000000  0.00000000  0.00000000  1
  Ca  Ca9  1  0.00000000  0.50000000  0.50000000  1
  Ca  Ca10  1  0.50000000  0.00000000  0.50000000  1
  Ca  Ca11  1  0.50000000  0.50000000  0.00000000  1
  I  I12  1  0.19737400  0.71281700  0.58557700  1
  I  I13  1  0.19918400  0.78903400  0.08395600  1
  I  I14  1  0.21096600  0.19918400  0.91604400  1
  I  I15  1  0.21281700  0.69737400  0.41442300  1
  I  I16  1  0.22637600  0.26087200  0.24977500  1
  I  I17  1  0.23912800  0.27362400  0.75022500  1
  I  I18  1  0.26087200  0.77362400  0.75022500  1
  I  I19  1  0.27362400  0.76087200  0.24977500  1
  I  I20  1  0.28903400  0.69918400  0.91604400  1
  I  I21  1  0.28718300  0.19737400  0.41442300  1
  I  I22  1  0.30081600  0.28903400  0.08395600  1
  I  I23  1  0.30262600  0.21281700  0.58557700  1
  I  I24  1  0.69737400  0.78718300  0.58557700  1
  I  I25  1  0.69918400  0.71096600  0.08395600  1
  I  I26  1  0.71096600  0.30081600  0.91604400  1
  I  I27  1  0.71281700  0.80262600  0.41442300  1
  I  I28  1  0.72637600  0.23912800  0.24977500  1
  I  I29  1  0.73912800  0.22637600  0.75022500  1
  I  I30  1  0.76087200  0.72637600  0.75022500  1
  I  I31  1  0.77362400  0.73912800  0.24977500  1
  I  I32  1  0.78718300  0.30262600  0.41442300  1
  I  I33  1  0.78903400  0.80081600  0.91604400  1
  I  I34  1  0.80081600  0.21096600  0.08395600  1
  I  I35  1  0.80262600  0.28718300  0.58557700  1
