# generated using pymatgen
data_Li3Fe(PO4)2
_symmetry_space_group_name_H-M   'P 1'
_cell_length_a   4.73610061
_cell_length_b   5.93834200
_cell_length_c   10.23486423
_cell_angle_alpha   90.00000000
_cell_angle_beta   90.47808441
_cell_angle_gamma   90.00000000
_symmetry_Int_Tables_number   1
_chemical_formula_structural   Li3Fe(PO4)2
_chemical_formula_sum   'Li6 Fe2 P4 O16'
_cell_volume   287.84129008
_cell_formula_units_Z   2
loop_
 _symmetry_equiv_pos_site_id
 _symmetry_equiv_pos_as_xyz
  1  'x, y, z'
loop_
 _atom_site_type_symbol
 _atom_site_label
 _atom_site_symmetry_multiplicity
 _atom_site_fract_x
 _atom_site_fract_y
 _atom_site_fract_z
 _atom_site_occupancy
  Li  Li0  1  0.50000000  0.00000000  0.50000000  1
  Li  Li1  1  0.50000000  0.50000000  0.50000000  1
  Li  Li2  1  0.97862100  0.75000000  0.72006350  1
  Li  Li3  1  0.02137900  0.25000000  0.27993650  1
  Li  Li4  1  0.00000000  0.00000000  0.00000000  1
  Li  Li5  1  0.00000000  0.50000000  0.00000000  1
  Fe  Fe6  1  0.50806600  0.75000000  0.21988750  1
  Fe  Fe7  1  0.49193400  0.25000000  0.78011250  1
  P  P8  1  0.91235800  0.25000000  0.60020050  1
  P  P9  1  0.08764200  0.75000000  0.39979950  1
  P  P10  1  0.43274500  0.75000000  0.90679350  1
  P  P11  1  0.56725500  0.25000000  0.09320650  1
  O  O12  1  0.19294800  0.75000000  0.54170750  1
  O  O13  1  0.80705200  0.25000000  0.45829250  1
  O  O14  1  0.23925700  0.25000000  0.61235450  1
  O  O15  1  0.76074300  0.75000000  0.38764550  1
  O  O16  1  0.75323100  0.75000000  0.91123050  1
  O  O17  1  0.24676900  0.25000000  0.08876950  1
  O  O18  1  0.70274200  0.25000000  0.95232250  1
  O  O19  1  0.29725800  0.75000000  0.04767750  1
  O  O20  1  0.77017700  0.04667600  0.67372050  1
  O  O21  1  0.77017700  0.45332400  0.67372050  1
  O  O22  1  0.22982300  0.54667600  0.32627950  1
  O  O23  1  0.22982300  0.95332400  0.32627950  1
  O  O24  1  0.29992000  0.53884100  0.83737750  1
  O  O25  1  0.29992000  0.96115900  0.83737750  1
  O  O26  1  0.70008000  0.03884100  0.16262250  1
  O  O27  1  0.70008000  0.46115900  0.16262250  1
