# generated using pymatgen
data_ZnP2H14C2(NO)6
_symmetry_space_group_name_H-M   'P 1'
_cell_length_a   11.87998400
_cell_length_b   14.30804000
_cell_length_c   15.37223400
_cell_angle_alpha   90.00000000
_cell_angle_beta   90.00000000
_cell_angle_gamma   90.00000000
_symmetry_Int_Tables_number   1
_chemical_formula_structural   ZnP2H14C2(NO)6
_chemical_formula_sum   'Zn8 P16 H112 C16 N48 O48'
_cell_volume   2612.96136372
_cell_formula_units_Z   8
loop_
 _symmetry_equiv_pos_site_id
 _symmetry_equiv_pos_as_xyz
  1  'x, y, z'
loop_
 _atom_site_type_symbol
 _atom_site_label
 _atom_site_symmetry_multiplicity
 _atom_site_fract_x
 _atom_site_fract_y
 _atom_site_fract_z
 _atom_site_occupancy
  Zn  Zn0  1  0.50000000  0.33005300  0.00000000  1
  Zn  Zn1  1  0.75000000  0.08005300  0.75000000  1
  Zn  Zn2  1  0.50000000  0.83005300  0.50000000  1
  Zn  Zn3  1  0.75000000  0.58005300  0.25000000  1
  Zn  Zn4  1  0.00000000  0.83005300  0.00000000  1
  Zn  Zn5  1  0.25000000  0.58005300  0.75000000  1
  Zn  Zn6  1  0.00000000  0.33005300  0.50000000  1
  Zn  Zn7  1  0.25000000  0.08005300  0.25000000  1
  P  P8  1  0.12061850  0.90898850  0.16818800  1
  P  P9  1  0.62938150  0.15898850  0.91818800  1
  P  P10  1  0.87938150  0.90898850  0.83181200  1
  P  P11  1  0.37061850  0.15898850  0.08181200  1
  P  P12  1  0.12061850  0.40898850  0.66818800  1
  P  P13  1  0.62938150  0.65898850  0.41818800  1
  P  P14  1  0.87938150  0.40898850  0.33181200  1
  P  P15  1  0.37061850  0.65898850  0.58181200  1
  P  P16  1  0.62061850  0.40898850  0.16818800  1
  P  P17  1  0.12938150  0.65898850  0.91818800  1
  P  P18  1  0.37938150  0.40898850  0.83181200  1
  P  P19  1  0.87061850  0.65898850  0.08181200  1
  P  P20  1  0.62061850  0.90898850  0.66818800  1
  P  P21  1  0.12938150  0.15898850  0.41818800  1
  P  P22  1  0.37938150  0.90898850  0.33181200  1
  P  P23  1  0.87061850  0.15898850  0.58181200  1
  H  H24  1  0.46895800  0.00197650  0.92770450  1
  H  H25  1  0.77360800  0.70261000  0.91772100  1
  H  H26  1  0.52360800  0.95261000  0.83227900  1
  H  H27  1  0.71895800  0.75197650  0.82229550  1
  H  H28  1  0.56902200  0.68837200  0.75320900  1
  H  H29  1  0.43097800  0.68837200  0.24679100  1
  H  H30  1  0.00075550  0.08814200  0.20500650  1
  H  H31  1  0.28104200  0.75197650  0.17770450  1
  H  H32  1  0.23174600  0.90227050  0.13475050  1
  H  H33  1  0.48174600  0.15227050  0.11524950  1
  H  H34  1  0.22639200  0.70261000  0.08227900  1
  H  H35  1  0.43282650  0.52085250  0.07537100  1
  H  H36  1  0.75075550  0.83814200  0.04499350  1
  H  H37  1  0.81336650  0.07066750  0.02387900  1
  H  H38  1  0.68097800  0.93837200  0.00320900  1
  H  H39  1  0.31902200  0.93837200  0.99679100  1
  H  H40  1  0.18663350  0.07066750  0.97612100  1
  H  H41  1  0.24924450  0.83814200  0.95500650  1
  H  H42  1  0.56717350  0.52085250  0.92462900  1
  H  H43  1  0.51825400  0.15227050  0.88475050  1
  H  H44  1  0.76825400  0.90227050  0.86524950  1
  H  H45  1  0.81717350  0.27085250  0.82537100  1
  H  H46  1  0.99924450  0.08814200  0.79499350  1
  H  H47  1  0.43663350  0.82066750  0.77387900  1
  H  H48  1  0.56336650  0.82066750  0.22612100  1
  H  H49  1  0.18282650  0.27085250  0.17462900  1
  H  H50  1  0.47639200  0.95261000  0.16772100  1
  H  H51  1  0.53104200  0.00197650  0.07229550  1
  H  H52  1  0.46895800  0.50197650  0.42770450  1
  H  H53  1  0.77360800  0.20261000  0.41772100  1
  H  H54  1  0.52360800  0.45261000  0.33227900  1
  H  H55  1  0.71895800  0.25197650  0.32229550  1
  H  H56  1  0.56902200  0.18837200  0.25320900  1
  H  H57  1  0.43097800  0.18837200  0.74679100  1
  H  H58  1  0.00075550  0.58814200  0.70500650  1
  H  H59  1  0.28104200  0.25197650  0.67770450  1
  H  H60  1  0.23174600  0.40227050  0.63475050  1
  H  H61  1  0.48174600  0.65227050  0.61524950  1
  H  H62  1  0.22639200  0.20261000  0.58227900  1
  H  H63  1  0.43282650  0.02085250  0.57537100  1
  H  H64  1  0.75075550  0.33814200  0.54499350  1
  H  H65  1  0.81336650  0.57066750  0.52387900  1
  H  H66  1  0.68097800  0.43837200  0.50320900  1
  H  H67  1  0.31902200  0.43837200  0.49679100  1
  H  H68  1  0.18663350  0.57066750  0.47612100  1
  H  H69  1  0.24924450  0.33814200  0.45500650  1
  H  H70  1  0.56717350  0.02085250  0.42462900  1
  H  H71  1  0.51825400  0.65227050  0.38475050  1
  H  H72  1  0.76825400  0.40227050  0.36524950  1
  H  H73  1  0.81717350  0.77085250  0.32537100  1
  H  H74  1  0.99924450  0.58814200  0.29499350  1
  H  H75  1  0.43663350  0.32066750  0.27387900  1
  H  H76  1  0.56336650  0.32066750  0.72612100  1
  H  H77  1  0.18282650  0.77085250  0.67462900  1
  H  H78  1  0.47639200  0.45261000  0.66772100  1
  H  H79  1  0.53104200  0.50197650  0.57229550  1
  H  H80  1  0.96895800  0.50197650  0.92770450  1
  H  H81  1  0.27360800  0.20261000  0.91772100  1
  H  H82  1  0.02360800  0.45261000  0.83227900  1
  H  H83  1  0.21895800  0.25197650  0.82229550  1
  H  H84  1  0.06902200  0.18837200  0.75320900  1
  H  H85  1  0.93097800  0.18837200  0.24679100  1
  H  H86  1  0.50075550  0.58814200  0.20500650  1
  H  H87  1  0.78104200  0.25197650  0.17770450  1
  H  H88  1  0.73174600  0.40227050  0.13475050  1
  H  H89  1  0.98174600  0.65227050  0.11524950  1
  H  H90  1  0.72639200  0.20261000  0.08227900  1
  H  H91  1  0.93282650  0.02085250  0.07537100  1
  H  H92  1  0.25075550  0.33814200  0.04499350  1
  H  H93  1  0.31336650  0.57066750  0.02387900  1
  H  H94  1  0.18097800  0.43837200  0.00320900  1
  H  H95  1  0.81902200  0.43837200  0.99679100  1
  H  H96  1  0.68663350  0.57066750  0.97612100  1
  H  H97  1  0.74924450  0.33814200  0.95500650  1
  H  H98  1  0.06717350  0.02085250  0.92462900  1
  H  H99  1  0.01825400  0.65227050  0.88475050  1
  H  H100  1  0.26825400  0.40227050  0.86524950  1
  H  H101  1  0.31717350  0.77085250  0.82537100  1
  H  H102  1  0.49924450  0.58814200  0.79499350  1
  H  H103  1  0.93663350  0.32066750  0.77387900  1
  H  H104  1  0.06336650  0.32066750  0.22612100  1
  H  H105  1  0.68282650  0.77085250  0.17462900  1
  H  H106  1  0.97639200  0.45261000  0.16772100  1
  H  H107  1  0.03104200  0.50197650  0.07229550  1
  H  H108  1  0.96895800  0.00197650  0.42770450  1
  H  H109  1  0.27360800  0.70261000  0.41772100  1
  H  H110  1  0.02360800  0.95261000  0.33227900  1
  H  H111  1  0.21895800  0.75197650  0.32229550  1
  H  H112  1  0.06902200  0.68837200  0.25320900  1
  H  H113  1  0.93097800  0.68837200  0.74679100  1
  H  H114  1  0.50075550  0.08814200  0.70500650  1
  H  H115  1  0.78104200  0.75197650  0.67770450  1
  H  H116  1  0.73174600  0.90227050  0.63475050  1
  H  H117  1  0.98174600  0.15227050  0.61524950  1
  H  H118  1  0.72639200  0.70261000  0.58227900  1
  H  H119  1  0.93282650  0.52085250  0.57537100  1
  H  H120  1  0.25075550  0.83814200  0.54499350  1
  H  H121  1  0.31336650  0.07066750  0.52387900  1
  H  H122  1  0.18097800  0.93837200  0.50320900  1
  H  H123  1  0.81902200  0.93837200  0.49679100  1
  H  H124  1  0.68663350  0.07066750  0.47612100  1
  H  H125  1  0.74924450  0.83814200  0.45500650  1
  H  H126  1  0.06717350  0.52085250  0.42462900  1
  H  H127  1  0.01825400  0.15227050  0.38475050  1
  H  H128  1  0.26825400  0.90227050  0.36524950  1
  H  H129  1  0.31717350  0.27085250  0.32537100  1
  H  H130  1  0.49924450  0.08814200  0.29499350  1
  H  H131  1  0.93663350  0.82066750  0.27387900  1
  H  H132  1  0.06336650  0.82066750  0.72612100  1
  H  H133  1  0.68282650  0.27085250  0.67462900  1
  H  H134  1  0.97639200  0.95261000  0.66772100  1
  H  H135  1  0.03104200  0.00197650  0.57229550  1
  C  C136  1  0.36491050  0.63638100  0.13474450  1
  C  C137  1  0.38508950  0.88638100  0.88474450  1
  C  C138  1  0.63508950  0.63638100  0.86525550  1
  C  C139  1  0.61491050  0.88638100  0.11525550  1
  C  C140  1  0.36491050  0.13638100  0.63474450  1
  C  C141  1  0.38508950  0.38638100  0.38474450  1
  C  C142  1  0.63508950  0.13638100  0.36525550  1
  C  C143  1  0.61491050  0.38638100  0.61525550  1
  C  C144  1  0.86491050  0.13638100  0.13474450  1
  C  C145  1  0.88508950  0.38638100  0.88474450  1
  C  C146  1  0.13508950  0.13638100  0.86525550  1
  C  C147  1  0.11491050  0.38638100  0.11525550  1
  C  C148  1  0.86491050  0.63638100  0.63474450  1
  C  C149  1  0.88508950  0.88638100  0.38474450  1
  C  C150  1  0.13508950  0.63638100  0.36525550  1
  C  C151  1  0.11491050  0.88638100  0.61525550  1
  N  N152  1  0.46624300  0.95124400  0.88147200  1
  N  N153  1  0.71624300  0.70124400  0.86852800  1
  N  N154  1  0.93738350  0.13645600  0.20143350  1
  N  N155  1  0.28375700  0.70124400  0.13147200  1
  N  N156  1  0.37293300  0.57212000  0.07183500  1
  N  N157  1  0.68738350  0.88645600  0.04856650  1
  N  N158  1  0.31261650  0.88645600  0.95143350  1
  N  N159  1  0.62706700  0.57212000  0.92816500  1
  N  N160  1  0.37706700  0.82212000  0.82183500  1
  N  N161  1  0.06261650  0.13645600  0.79856650  1
  N  N162  1  0.62293300  0.82212000  0.17816500  1
  N  N163  1  0.53375700  0.95124400  0.11852800  1
  N  N164  1  0.46624300  0.45124400  0.38147200  1
  N  N165  1  0.71624300  0.20124400  0.36852800  1
  N  N166  1  0.93738350  0.63645600  0.70143350  1
  N  N167  1  0.28375700  0.20124400  0.63147200  1
  N  N168  1  0.37293300  0.07212000  0.57183500  1
  N  N169  1  0.68738350  0.38645600  0.54856650  1
  N  N170  1  0.31261650  0.38645600  0.45143350  1
  N  N171  1  0.62706700  0.07212000  0.42816500  1
  N  N172  1  0.37706700  0.32212000  0.32183500  1
  N  N173  1  0.06261650  0.63645600  0.29856650  1
  N  N174  1  0.62293300  0.32212000  0.67816500  1
  N  N175  1  0.53375700  0.45124400  0.61852800  1
  N  N176  1  0.96624300  0.45124400  0.88147200  1
  N  N177  1  0.21624300  0.20124400  0.86852800  1
  N  N178  1  0.43738350  0.63645600  0.20143350  1
  N  N179  1  0.78375700  0.20124400  0.13147200  1
  N  N180  1  0.87293300  0.07212000  0.07183500  1
  N  N181  1  0.18738350  0.38645600  0.04856650  1
  N  N182  1  0.81261650  0.38645600  0.95143350  1
  N  N183  1  0.12706700  0.07212000  0.92816500  1
  N  N184  1  0.87706700  0.32212000  0.82183500  1
  N  N185  1  0.56261650  0.63645600  0.79856650  1
  N  N186  1  0.12293300  0.32212000  0.17816500  1
  N  N187  1  0.03375700  0.45124400  0.11852800  1
  N  N188  1  0.96624300  0.95124400  0.38147200  1
  N  N189  1  0.21624300  0.70124400  0.36852800  1
  N  N190  1  0.43738350  0.13645600  0.70143350  1
  N  N191  1  0.78375700  0.70124400  0.63147200  1
  N  N192  1  0.87293300  0.57212000  0.57183500  1
  N  N193  1  0.18738350  0.88645600  0.54856650  1
  N  N194  1  0.81261650  0.88645600  0.45143350  1
  N  N195  1  0.12706700  0.57212000  0.42816500  1
  N  N196  1  0.87706700  0.82212000  0.32183500  1
  N  N197  1  0.56261650  0.13645600  0.29856650  1
  N  N198  1  0.12293300  0.82212000  0.67816500  1
  N  N199  1  0.03375700  0.95124400  0.61852800  1
  O  O200  1  0.11813100  0.00087200  0.22314500  1
  O  O201  1  0.09577650  0.82265450  0.22206800  1
  O  O202  1  0.04323750  0.92293000  0.08811250  1
  O  O203  1  0.34577650  0.07265450  0.02793200  1
  O  O204  1  0.36813100  0.25087200  0.02685500  1
  O  O205  1  0.63186900  0.25087200  0.97314500  1
  O  O206  1  0.65422350  0.07265450  0.97206800  1
  O  O207  1  0.95676250  0.92293000  0.91188750  1
  O  O208  1  0.70676250  0.17293000  0.83811250  1
  O  O209  1  0.90422350  0.82265450  0.77793200  1
  O  O210  1  0.88186900  0.00087200  0.77685500  1
  O  O211  1  0.29323750  0.17293000  0.16188750  1
  O  O212  1  0.11813100  0.50087200  0.72314500  1
  O  O213  1  0.09577650  0.32265450  0.72206800  1
  O  O214  1  0.04323750  0.42293000  0.58811250  1
  O  O215  1  0.34577650  0.57265450  0.52793200  1
  O  O216  1  0.36813100  0.75087200  0.52685500  1
  O  O217  1  0.63186900  0.75087200  0.47314500  1
  O  O218  1  0.65422350  0.57265450  0.47206800  1
  O  O219  1  0.95676250  0.42293000  0.41188750  1
  O  O220  1  0.70676250  0.67293000  0.33811250  1
  O  O221  1  0.90422350  0.32265450  0.27793200  1
  O  O222  1  0.88186900  0.50087200  0.27685500  1
  O  O223  1  0.29323750  0.67293000  0.66188750  1
  O  O224  1  0.61813100  0.50087200  0.22314500  1
  O  O225  1  0.59577650  0.32265450  0.22206800  1
  O  O226  1  0.54323750  0.42293000  0.08811250  1
  O  O227  1  0.84577650  0.57265450  0.02793200  1
  O  O228  1  0.86813100  0.75087200  0.02685500  1
  O  O229  1  0.13186900  0.75087200  0.97314500  1
  O  O230  1  0.15422350  0.57265450  0.97206800  1
  O  O231  1  0.45676250  0.42293000  0.91188750  1
  O  O232  1  0.20676250  0.67293000  0.83811250  1
  O  O233  1  0.40422350  0.32265450  0.77793200  1
  O  O234  1  0.38186900  0.50087200  0.77685500  1
  O  O235  1  0.79323750  0.67293000  0.16188750  1
  O  O236  1  0.61813100  0.00087200  0.72314500  1
  O  O237  1  0.59577650  0.82265450  0.72206800  1
  O  O238  1  0.54323750  0.92293000  0.58811250  1
  O  O239  1  0.84577650  0.07265450  0.52793200  1
  O  O240  1  0.86813100  0.25087200  0.52685500  1
  O  O241  1  0.13186900  0.25087200  0.47314500  1
  O  O242  1  0.15422350  0.07265450  0.47206800  1
  O  O243  1  0.45676250  0.92293000  0.41188750  1
  O  O244  1  0.20676250  0.17293000  0.33811250  1
  O  O245  1  0.40422350  0.82265450  0.27793200  1
  O  O246  1  0.38186900  0.00087200  0.27685500  1
  O  O247  1  0.79323750  0.17293000  0.66188750  1
