# generated using pymatgen
data_Li7Mn3(SiO6)2
_symmetry_space_group_name_H-M   'P 1'
_cell_length_a   5.08317600
_cell_length_b   8.45281600
_cell_length_c   9.78404034
_cell_angle_alpha   90.00000000
_cell_angle_beta   96.63770825
_cell_angle_gamma   90.00000000
_symmetry_Int_Tables_number   1
_chemical_formula_structural   Li7Mn3(SiO6)2
_chemical_formula_sum   'Li14 Mn6 Si4 O24'
_cell_volume   417.57441352
_cell_formula_units_Z   2
loop_
 _symmetry_equiv_pos_site_id
 _symmetry_equiv_pos_as_xyz
  1  'x, y, z'
loop_
 _atom_site_type_symbol
 _atom_site_label
 _atom_site_symmetry_multiplicity
 _atom_site_fract_x
 _atom_site_fract_y
 _atom_site_fract_z
 _atom_site_occupancy
  Li  Li0  1  0.25100300  0.00000000  0.76035200  1
  Li  Li1  1  0.00000000  0.00000000  0.00000000  1
  Li  Li2  1  0.24670950  0.83702150  0.24558500  1
  Li  Li3  1  0.75329050  0.83702150  0.75441500  1
  Li  Li4  1  0.74899700  0.00000000  0.23964800  1
  Li  Li5  1  0.24670950  0.16297850  0.24558500  1
  Li  Li6  1  0.75329050  0.16297850  0.75441500  1
  Li  Li7  1  0.75100300  0.50000000  0.76035200  1
  Li  Li8  1  0.50000000  0.50000000  0.00000000  1
  Li  Li9  1  0.74670950  0.33702150  0.24558500  1
  Li  Li10  1  0.25329050  0.33702150  0.75441500  1
  Li  Li11  1  0.24899700  0.50000000  0.23964800  1
  Li  Li12  1  0.74670950  0.66297850  0.24558500  1
  Li  Li13  1  0.25329050  0.66297850  0.75441500  1
  Mn  Mn14  1  0.50000000  0.00000000  0.50000000  1
  Mn  Mn15  1  0.50000000  0.66662600  0.50000000  1
  Mn  Mn16  1  0.50000000  0.33337400  0.50000000  1
  Mn  Mn17  1  0.00000000  0.50000000  0.50000000  1
  Mn  Mn18  1  0.00000000  0.16662600  0.50000000  1
  Mn  Mn19  1  0.00000000  0.83337400  0.50000000  1
  Si  Si20  1  0.50000000  0.83186600  0.00000000  1
  Si  Si21  1  0.50000000  0.16813400  0.00000000  1
  Si  Si22  1  0.00000000  0.33186600  0.00000000  1
  Si  Si23  1  0.00000000  0.66813400  0.00000000  1
  O  O24  1  0.09712200  0.00000000  0.37658500  1
  O  O25  1  0.66191300  0.31418500  0.89858400  1
  O  O26  1  0.40087450  0.83313550  0.62089700  1
  O  O27  1  0.40559700  0.00000000  0.10409600  1
  O  O28  1  0.33808700  0.68581500  0.10141600  1
  O  O29  1  0.59912550  0.83313550  0.37910300  1
  O  O30  1  0.59440300  0.00000000  0.89590400  1
  O  O31  1  0.90287800  0.00000000  0.62341500  1
  O  O32  1  0.40087450  0.16686450  0.62089700  1
  O  O33  1  0.66191300  0.68581500  0.89858400  1
  O  O34  1  0.33808700  0.31418500  0.10141600  1
  O  O35  1  0.59912550  0.16686450  0.37910300  1
  O  O36  1  0.59712200  0.50000000  0.37658500  1
  O  O37  1  0.16191300  0.81418500  0.89858400  1
  O  O38  1  0.90087450  0.33313550  0.62089700  1
  O  O39  1  0.90559700  0.50000000  0.10409600  1
  O  O40  1  0.83808700  0.18581500  0.10141600  1
  O  O41  1  0.09912550  0.33313550  0.37910300  1
  O  O42  1  0.09440300  0.50000000  0.89590400  1
  O  O43  1  0.40287800  0.50000000  0.62341500  1
  O  O44  1  0.90087450  0.66686450  0.62089700  1
  O  O45  1  0.16191300  0.18581500  0.89858400  1
  O  O46  1  0.83808700  0.81418500  0.10141600  1
  O  O47  1  0.09912550  0.66686450  0.37910300  1
