# generated using pymatgen
data_Cs2HgO2
_symmetry_space_group_name_H-M   'P 1'
_cell_length_a   4.54058800
_cell_length_b   4.54058800
_cell_length_c   14.64585200
_cell_angle_alpha   90.00000000
_cell_angle_beta   90.00000000
_cell_angle_gamma   90.00000000
_symmetry_Int_Tables_number   1
_chemical_formula_structural   Cs2HgO2
_chemical_formula_sum   'Cs4 Hg2 O4'
_cell_volume   301.95264294
_cell_formula_units_Z   2
loop_
 _symmetry_equiv_pos_site_id
 _symmetry_equiv_pos_as_xyz
  1  'x, y, z'
loop_
 _atom_site_type_symbol
 _atom_site_label
 _atom_site_symmetry_multiplicity
 _atom_site_fract_x
 _atom_site_fract_y
 _atom_site_fract_z
 _atom_site_occupancy
  Cs  Cs0  1  0.50000000  0.50000000  0.16391200  1
  Cs  Cs1  1  0.00000000  0.00000000  0.33608800  1
  Cs  Cs2  1  0.00000000  0.00000000  0.66391200  1
  Cs  Cs3  1  0.50000000  0.50000000  0.83608800  1
  Hg  Hg4  1  0.00000000  0.00000000  0.00000000  1
  Hg  Hg5  1  0.50000000  0.50000000  0.50000000  1
  O  O6  1  0.50000000  0.50000000  0.36316900  1
  O  O7  1  0.00000000  0.00000000  0.13683100  1
  O  O8  1  0.00000000  0.00000000  0.86316900  1
  O  O9  1  0.50000000  0.50000000  0.63683100  1
