# generated using pymatgen
data_Na2Sn2O3
_symmetry_space_group_name_H-M   'P 1'
_cell_length_a   7.86045400
_cell_length_b   7.86045400
_cell_length_c   7.86045400
_cell_angle_alpha   90.00000000
_cell_angle_beta   90.00000000
_cell_angle_gamma   90.00000000
_symmetry_Int_Tables_number   1
_chemical_formula_structural   Na2Sn2O3
_chemical_formula_sum   'Na8 Sn8 O12'
_cell_volume   485.67180468
_cell_formula_units_Z   4
loop_
 _symmetry_equiv_pos_site_id
 _symmetry_equiv_pos_as_xyz
  1  'x, y, z'
loop_
 _atom_site_type_symbol
 _atom_site_label
 _atom_site_symmetry_multiplicity
 _atom_site_fract_x
 _atom_site_fract_y
 _atom_site_fract_z
 _atom_site_occupancy
  Na  Na0  1  0.97507950  0.47507950  0.02492050  1
  Na  Na1  1  0.02492050  0.02492050  0.02492050  1
  Na  Na2  1  0.02492050  0.97507950  0.47507950  1
  Na  Na3  1  0.47507950  0.02492050  0.97507950  1
  Na  Na4  1  0.47507950  0.97507950  0.52492050  1
  Na  Na5  1  0.52492050  0.52492050  0.52492050  1
  Na  Na6  1  0.52492050  0.47507950  0.97507950  1
  Na  Na7  1  0.97507950  0.52492050  0.47507950  1
  Sn  Sn8  1  0.76445550  0.23554450  0.73554450  1
  Sn  Sn9  1  0.23554450  0.73554450  0.76445550  1
  Sn  Sn10  1  0.26445550  0.26445550  0.26445550  1
  Sn  Sn11  1  0.73554450  0.76445550  0.23554450  1
  Sn  Sn12  1  0.26445550  0.73554450  0.23554450  1
  Sn  Sn13  1  0.73554450  0.23554450  0.26445550  1
  Sn  Sn14  1  0.76445550  0.76445550  0.76445550  1
  Sn  Sn15  1  0.23554450  0.26445550  0.73554450  1
  O  O16  1  0.00000000  0.25000000  0.29744300  1
  O  O17  1  0.00000000  0.75000000  0.20255700  1
  O  O18  1  0.20255700  0.00000000  0.75000000  1
  O  O19  1  0.25000000  0.29744300  0.00000000  1
  O  O20  1  0.29744300  0.00000000  0.25000000  1
  O  O21  1  0.75000000  0.20255700  0.00000000  1
  O  O22  1  0.50000000  0.75000000  0.79744300  1
  O  O23  1  0.50000000  0.25000000  0.70255700  1
  O  O24  1  0.70255700  0.50000000  0.25000000  1
  O  O25  1  0.75000000  0.79744300  0.50000000  1
  O  O26  1  0.79744300  0.50000000  0.75000000  1
  O  O27  1  0.25000000  0.70255700  0.50000000  1
