# generated using pymatgen
data_Rb2PH3SeO8
_symmetry_space_group_name_H-M   'P 1'
_cell_length_a   7.74502900
_cell_length_b   7.80396900
_cell_length_c   9.97892432
_cell_angle_alpha   90.00000000
_cell_angle_beta   128.76907834
_cell_angle_gamma   90.00000000
_symmetry_Int_Tables_number   1
_chemical_formula_structural   Rb2PH3SeO8
_chemical_formula_sum   'Rb4 P2 H6 Se2 O16'
_cell_volume   470.25832216
_cell_formula_units_Z   2
loop_
 _symmetry_equiv_pos_site_id
 _symmetry_equiv_pos_as_xyz
  1  'x, y, z'
loop_
 _atom_site_type_symbol
 _atom_site_label
 _atom_site_symmetry_multiplicity
 _atom_site_fract_x
 _atom_site_fract_y
 _atom_site_fract_z
 _atom_site_occupancy
  Rb  Rb0  1  0.62255700  0.43572800  0.54511100  1
  Rb  Rb1  1  0.41491800  0.06532000  0.11767400  1
  Rb  Rb2  1  0.62255700  0.56427200  0.04511100  1
  Rb  Rb3  1  0.41491800  0.93468000  0.61767400  1
  P  P4  1  0.85885300  0.94248900  0.58185700  1
  P  P5  1  0.85885300  0.05751100  0.08185700  1
  H  H6  1  0.98776300  0.76207300  0.80837000  1
  H  H7  1  0.11623900  0.14926300  0.70921200  1
  H  H8  1  0.88521400  0.72731600  0.44583500  1
  H  H9  1  0.98776300  0.23792700  0.30837000  1
  H  H10  1  0.11623900  0.85073700  0.20921200  1
  H  H11  1  0.88521400  0.27268400  0.94583500  1
  Se  Se12  1  0.15296800  0.56322300  0.07745300  1
  Se  Se13  1  0.15296800  0.43677700  0.57745300  1
  O  O14  1  0.35865800  0.42388300  0.15970200  1
  O  O15  1  0.67927900  0.07292700  0.50834600  1
  O  O16  1  0.84360100  0.79427900  0.68075000  1
  O  O17  1  0.18036400  0.71896400  0.97398700  1
  O  O18  1  0.84354600  0.85511600  0.43081000  1
  O  O19  1  0.10228500  0.01774300  0.71417000  1
  O  O20  1  0.90464900  0.53151200  0.43855500  1
  O  O21  1  0.16592800  0.34303600  0.73539000  1
  O  O22  1  0.84360100  0.20572100  0.18075000  1
  O  O23  1  0.18036400  0.28103600  0.47398700  1
  O  O24  1  0.35865800  0.57611700  0.65970200  1
  O  O25  1  0.67927900  0.92707300  0.00834600  1
  O  O26  1  0.10228500  0.98225700  0.21417000  1
  O  O27  1  0.16592800  0.65696400  0.23539000  1
  O  O28  1  0.84354600  0.14488400  0.93081000  1
  O  O29  1  0.90464900  0.46848800  0.93855500  1
