# generated using pymatgen
data_CeHfO4
_symmetry_space_group_name_H-M   'P 1'
_cell_length_a   5.31249800
_cell_length_b   5.31249800
_cell_length_c   10.86972600
_cell_angle_alpha   90.00000000
_cell_angle_beta   90.00000000
_cell_angle_gamma   90.00000000
_symmetry_Int_Tables_number   1
_chemical_formula_structural   CeHfO4
_chemical_formula_sum   'Ce4 Hf4 O16'
_cell_volume   306.77230945
_cell_formula_units_Z   4
loop_
 _symmetry_equiv_pos_site_id
 _symmetry_equiv_pos_as_xyz
  1  'x, y, z'
loop_
 _atom_site_type_symbol
 _atom_site_label
 _atom_site_symmetry_multiplicity
 _atom_site_fract_x
 _atom_site_fract_y
 _atom_site_fract_z
 _atom_site_occupancy
  Ce  Ce0  1  0.50000000  0.00000000  0.25000000  1
  Ce  Ce1  1  0.50000000  0.50000000  0.00000000  1
  Ce  Ce2  1  0.00000000  0.50000000  0.75000000  1
  Ce  Ce3  1  0.00000000  0.00000000  0.50000000  1
  Hf  Hf4  1  0.00000000  0.00000000  0.00000000  1
  Hf  Hf5  1  0.00000000  0.50000000  0.25000000  1
  Hf  Hf6  1  0.50000000  0.50000000  0.50000000  1
  Hf  Hf7  1  0.50000000  0.00000000  0.75000000  1
  O  O8  1  0.78968350  0.74462850  0.35111050  1
  O  O9  1  0.75537150  0.78968350  0.10111050  1
  O  O10  1  0.24462850  0.21031650  0.10111050  1
  O  O11  1  0.28968350  0.74462850  0.39888950  1
  O  O12  1  0.21031650  0.25537150  0.35111050  1
  O  O13  1  0.75537150  0.28968350  0.14888950  1
  O  O14  1  0.24462850  0.71031650  0.14888950  1
  O  O15  1  0.71031650  0.25537150  0.39888950  1
  O  O16  1  0.28968350  0.24462850  0.85111050  1
  O  O17  1  0.25537150  0.28968350  0.60111050  1
  O  O18  1  0.74462850  0.71031650  0.60111050  1
  O  O19  1  0.78968350  0.24462850  0.89888950  1
  O  O20  1  0.71031650  0.75537150  0.85111050  1
  O  O21  1  0.25537150  0.78968350  0.64888950  1
  O  O22  1  0.74462850  0.21031650  0.64888950  1
  O  O23  1  0.21031650  0.75537150  0.89888950  1
