# generated using pymatgen
data_MnFe2Sb2(PO4)6
_symmetry_space_group_name_H-M   'P 1'
_cell_length_a   8.55166410
_cell_length_b   8.55166410
_cell_length_c   21.92688673
_cell_angle_alpha   90.00000000
_cell_angle_beta   90.00000000
_cell_angle_gamma   120.00000000
_symmetry_Int_Tables_number   1
_chemical_formula_structural   MnFe2Sb2(PO4)6
_chemical_formula_sum   'Mn3 Fe6 Sb6 P18 O72'
_cell_volume   1388.70139783
_cell_formula_units_Z   3
loop_
 _symmetry_equiv_pos_site_id
 _symmetry_equiv_pos_as_xyz
  1  'x, y, z'
loop_
 _atom_site_type_symbol
 _atom_site_label
 _atom_site_symmetry_multiplicity
 _atom_site_fract_x
 _atom_site_fract_y
 _atom_site_fract_z
 _atom_site_occupancy
  Mn  Mn0  1  0.00000000  0.00000000  0.00000000  1
  Mn  Mn1  1  0.66666667  0.33333333  0.33333333  1
  Mn  Mn2  1  0.33333333  0.66666667  0.66666667  1
  Fe  Fe3  1  0.00000000  0.00000000  0.14668100  1
  Fe  Fe4  1  0.66666667  0.33333333  0.18665233  1
  Fe  Fe5  1  0.66666667  0.33333333  0.48001433  1
  Fe  Fe6  1  0.33333333  0.66666667  0.51998567  1
  Fe  Fe7  1  0.33333333  0.66666667  0.81334767  1
  Fe  Fe8  1  0.00000000  0.00000000  0.85331900  1
  Sb  Sb9  1  0.33333333  0.66666667  0.31091367  1
  Sb  Sb10  1  0.33333333  0.66666667  0.02241967  1
  Sb  Sb11  1  0.00000000  0.00000000  0.64424700  1
  Sb  Sb12  1  0.00000000  0.00000000  0.35575300  1
  Sb  Sb13  1  0.66666667  0.33333333  0.97758033  1
  Sb  Sb14  1  0.66666667  0.33333333  0.68908633  1
  P  P15  1  0.29500833  0.00693967  0.25087267  1
  P  P16  1  0.99306033  0.28806867  0.25087267  1
  P  P17  1  0.71193133  0.70499167  0.25087267  1
  P  P18  1  0.95473533  0.62834167  0.08246067  1
  P  P19  1  0.67360633  0.04526467  0.08246067  1
  P  P20  1  0.37165833  0.32639367  0.08246067  1
  P  P21  1  0.96167500  0.34027300  0.58420600  1
  P  P22  1  0.65972700  0.62140200  0.58420600  1
  P  P23  1  0.37859800  0.03832500  0.58420600  1
  P  P24  1  0.62140200  0.96167500  0.41579400  1
  P  P25  1  0.34027300  0.37859800  0.41579400  1
  P  P26  1  0.03832500  0.65972700  0.41579400  1
  P  P27  1  0.62834167  0.67360633  0.91753933  1
  P  P28  1  0.32639367  0.95473533  0.91753933  1
  P  P29  1  0.04526467  0.37165833  0.91753933  1
  P  P30  1  0.28806867  0.29500833  0.74912733  1
  P  P31  1  0.00693967  0.71193133  0.74912733  1
  P  P32  1  0.70499167  0.99306033  0.74912733  1
  O  O33  1  0.93843633  0.15629467  0.30679567  1
  O  O34  1  0.47993633  0.87840967  0.07487567  1
  O  O35  1  0.39847333  0.52006367  0.07487567  1
  O  O36  1  0.80283033  0.80277067  0.19229467  1
  O  O37  1  0.12159033  0.60152667  0.07487567  1
  O  O38  1  0.84370533  0.78214167  0.30679567  1
  O  O39  1  0.19722933  0.00005967  0.19229467  1
  O  O40  1  0.21785833  0.06156367  0.30679567  1
  O  O41  1  0.16981767  0.18225433  0.08048433  1
  O  O42  1  0.01243667  0.83018233  0.08048433  1
  O  O43  1  0.81774567  0.98756333  0.08048433  1
  O  O44  1  0.66672633  0.13616367  0.14103867  1
  O  O45  1  0.99994033  0.19716967  0.19229467  1
  O  O46  1  0.84892100  0.34577000  0.25284900  1
  O  O47  1  0.65423000  0.50315100  0.25284900  1
  O  O48  1  0.49684900  0.15107900  0.25284900  1
  O  O49  1  0.44880833  0.27176967  0.02653767  1
  O  O50  1  0.46943733  0.33327367  0.14103867  1
  O  O51  1  0.82296133  0.55119167  0.02653767  1
  O  O52  1  0.54507633  0.73180667  0.25845767  1
  O  O53  1  0.86383633  0.53056267  0.14103867  1
  O  O54  1  0.26819333  0.81326967  0.25845767  1
  O  O55  1  0.18673033  0.45492367  0.25845767  1
  O  O56  1  0.72823033  0.17703867  0.02653767  1
  O  O57  1  0.60510300  0.48962800  0.64012900  1
  O  O58  1  0.14660300  0.21174300  0.40820900  1
  O  O59  1  0.06514000  0.85339700  0.40820900  1
  O  O60  1  0.46949700  0.13610400  0.52562800  1
  O  O61  1  0.78825700  0.93486000  0.40820900  1
  O  O62  1  0.51037200  0.11547500  0.64012900  1
  O  O63  1  0.86389600  0.33339300  0.52562800  1
  O  O64  1  0.88452500  0.39489700  0.64012900  1
  O  O65  1  0.83648433  0.51558767  0.41381767  1
  O  O66  1  0.67910333  0.16351567  0.41381767  1
  O  O67  1  0.48441233  0.32089667  0.41381767  1
  O  O68  1  0.33339300  0.46949700  0.47437200  1
  O  O69  1  0.66660700  0.53050300  0.52562800  1
  O  O70  1  0.51558767  0.67910333  0.58618233  1
  O  O71  1  0.32089667  0.83648433  0.58618233  1
  O  O72  1  0.16351567  0.48441233  0.58618233  1
  O  O73  1  0.11547500  0.60510300  0.35987100  1
  O  O74  1  0.13610400  0.66660700  0.47437200  1
  O  O75  1  0.48962800  0.88452500  0.35987100  1
  O  O76  1  0.21174300  0.06514000  0.59179100  1
  O  O77  1  0.53050300  0.86389600  0.47437200  1
  O  O78  1  0.93486000  0.14660300  0.59179100  1
  O  O79  1  0.85339700  0.78825700  0.59179100  1
  O  O80  1  0.39489700  0.51037200  0.35987100  1
  O  O81  1  0.27176967  0.82296133  0.97346233  1
  O  O82  1  0.81326967  0.54507633  0.74154233  1
  O  O83  1  0.73180667  0.18673033  0.74154233  1
  O  O84  1  0.13616367  0.46943733  0.85896133  1
  O  O85  1  0.45492367  0.26819333  0.74154233  1
  O  O86  1  0.17703867  0.44880833  0.97346233  1
  O  O87  1  0.53056267  0.66672633  0.85896133  1
  O  O88  1  0.55119167  0.72823033  0.97346233  1
  O  O89  1  0.50315100  0.84892100  0.74715100  1
  O  O90  1  0.34577000  0.49684900  0.74715100  1
  O  O91  1  0.15107900  0.65423000  0.74715100  1
  O  O92  1  0.00005967  0.80283033  0.80770533  1
  O  O93  1  0.33327367  0.86383633  0.85896133  1
  O  O94  1  0.18225433  0.01243667  0.91951567  1
  O  O95  1  0.98756333  0.16981767  0.91951567  1
  O  O96  1  0.83018233  0.81774567  0.91951567  1
  O  O97  1  0.78214167  0.93843633  0.69320433  1
  O  O98  1  0.80277067  0.99994033  0.80770533  1
  O  O99  1  0.15629467  0.21785833  0.69320433  1
  O  O100  1  0.87840967  0.39847333  0.92512433  1
  O  O101  1  0.19716967  0.19722933  0.80770533  1
  O  O102  1  0.60152667  0.47993633  0.92512433  1
  O  O103  1  0.52006367  0.12159033  0.92512433  1
  O  O104  1  0.06156367  0.84370533  0.69320433  1
