# generated using pymatgen
data_Mg7Mn5O12
_symmetry_space_group_name_H-M   'P 1'
_cell_length_a   3.08715555
_cell_length_b   3.08715555
_cell_length_c   30.38798300
_cell_angle_alpha   90.00000000
_cell_angle_beta   90.00000000
_cell_angle_gamma   120.00000000
_symmetry_Int_Tables_number   1
_chemical_formula_structural   Mg7Mn5O12
_chemical_formula_sum   'Mg7 Mn5 O12'
_cell_volume   250.81270438
_cell_formula_units_Z   1
loop_
 _symmetry_equiv_pos_site_id
 _symmetry_equiv_pos_as_xyz
  1  'x, y, z'
loop_
 _atom_site_type_symbol
 _atom_site_label
 _atom_site_symmetry_multiplicity
 _atom_site_fract_x
 _atom_site_fract_y
 _atom_site_fract_z
 _atom_site_occupancy
  Mg  Mg0  1  0.33333333  0.66666667  0.16648400  1
  Mg  Mg1  1  0.33333333  0.66666667  0.41855200  1
  Mg  Mg2  1  0.33333333  0.66666667  0.66809500  1
  Mg  Mg3  1  0.66666667  0.33333333  0.58664000  1
  Mg  Mg4  1  0.00000000  0.00000000  0.74977900  1
  Mg  Mg5  1  0.33333333  0.66666667  0.91234900  1
  Mg  Mg6  1  0.66666667  0.33333333  0.83128700  1
  Mn  Mn7  1  0.00000000  0.00000000  0.99636700  1
  Mn  Mn8  1  0.66666667  0.33333333  0.08389300  1
  Mn  Mn9  1  0.00000000  0.00000000  0.24878400  1
  Mn  Mn10  1  0.66666667  0.33333333  0.33553500  1
  Mn  Mn11  1  0.00000000  0.00000000  0.50223600  1
  O  O12  1  0.33333333  0.66666667  0.04029400  1
  O  O13  1  0.00000000  0.00000000  0.12785800  1
  O  O14  1  0.66666667  0.33333333  0.20505300  1
  O  O15  1  0.33333333  0.66666667  0.29207500  1
  O  O16  1  0.00000000  0.00000000  0.37952200  1
  O  O17  1  0.66666667  0.33333333  0.45768200  1
  O  O18  1  0.33333333  0.66666667  0.54691400  1
  O  O19  1  0.00000000  0.00000000  0.62731100  1
  O  O20  1  0.66666667  0.33333333  0.70893800  1
  O  O21  1  0.33333333  0.66666667  0.79060300  1
  O  O22  1  0.00000000  0.00000000  0.87189400  1
  O  O23  1  0.66666667  0.33333333  0.95185800  1
