# generated using pymatgen
data_LiCuPO4
_symmetry_space_group_name_H-M   'P 1'
_cell_length_a   5.12578600
_cell_length_b   8.89105000
_cell_length_c   7.95378457
_cell_angle_alpha   90.00000000
_cell_angle_beta   96.90629449
_cell_angle_gamma   90.00000000
_symmetry_Int_Tables_number   1
_chemical_formula_structural   LiCuPO4
_chemical_formula_sum   'Li4 Cu4 P4 O16'
_cell_volume   359.85262736
_cell_formula_units_Z   4
loop_
 _symmetry_equiv_pos_site_id
 _symmetry_equiv_pos_as_xyz
  1  'x, y, z'
loop_
 _atom_site_type_symbol
 _atom_site_label
 _atom_site_symmetry_multiplicity
 _atom_site_fract_x
 _atom_site_fract_y
 _atom_site_fract_z
 _atom_site_occupancy
  Li  Li0  1  0.41399400  0.59708400  0.98265300  1
  Li  Li1  1  0.91399400  0.90291600  0.48265300  1
  Li  Li2  1  0.91399400  0.09708400  0.98265300  1
  Li  Li3  1  0.41399400  0.40291600  0.48265300  1
  Cu  Cu4  1  0.40458000  0.83453300  0.30796300  1
  Cu  Cu5  1  0.90458000  0.66546700  0.80796300  1
  Cu  Cu6  1  0.90458000  0.33453300  0.30796300  1
  Cu  Cu7  1  0.40458000  0.16546700  0.80796300  1
  P  P8  1  0.47569200  0.86110100  0.69923200  1
  P  P9  1  0.97569200  0.63889900  0.19923200  1
  P  P10  1  0.97569200  0.36110100  0.69923200  1
  P  P11  1  0.47569200  0.13889900  0.19923200  1
  O  O12  1  0.17878150  0.88012450  0.68286900  1
  O  O13  1  0.58680000  0.80141100  0.53537400  1
  O  O14  1  0.57173550  0.74344450  0.83876000  1
  O  O15  1  0.12614600  0.51291300  0.74455100  1
  O  O16  1  0.67878150  0.61987550  0.18286900  1
  O  O17  1  0.08680000  0.69858900  0.03537400  1
  O  O18  1  0.07173550  0.75655550  0.33876000  1
  O  O19  1  0.62614600  0.98708700  0.24455100  1
  O  O20  1  0.67878150  0.38012450  0.68286900  1
  O  O21  1  0.08680000  0.30141100  0.53537400  1
  O  O22  1  0.07173550  0.24344450  0.83876000  1
  O  O23  1  0.62614600  0.01291300  0.74455100  1
  O  O24  1  0.17878150  0.11987550  0.18286900  1
  O  O25  1  0.58680000  0.19858900  0.03537400  1
  O  O26  1  0.57173550  0.25655550  0.33876000  1
  O  O27  1  0.12614600  0.48708700  0.24455100  1
