# generated using pymatgen
data_Dy2Zr2O7
_symmetry_space_group_name_H-M   'P 1'
_cell_length_a   7.87998300
_cell_length_b   5.53596700
_cell_length_c   13.82667959
_cell_angle_alpha   90.00000000
_cell_angle_beta   98.45594022
_cell_angle_gamma   90.00000000
_symmetry_Int_Tables_number   1
_chemical_formula_structural   Dy2Zr2O7
_chemical_formula_sum   'Dy8 Zr8 O28'
_cell_volume   596.60887581
_cell_formula_units_Z   4
loop_
 _symmetry_equiv_pos_site_id
 _symmetry_equiv_pos_as_xyz
  1  'x, y, z'
loop_
 _atom_site_type_symbol
 _atom_site_label
 _atom_site_symmetry_multiplicity
 _atom_site_fract_x
 _atom_site_fract_y
 _atom_site_fract_z
 _atom_site_occupancy
  Dy  Dy0  1  0.86333100  0.17268400  0.44088100  1
  Dy  Dy1  1  0.76275300  0.72077400  0.07231000  1
  Dy  Dy2  1  0.71347200  0.25702900  0.86600600  1
  Dy  Dy3  1  0.63801800  0.74041800  0.60102000  1
  Dy  Dy4  1  0.36198200  0.24041800  0.39898000  1
  Dy  Dy5  1  0.28652800  0.75702900  0.13399400  1
  Dy  Dy6  1  0.23724700  0.22077400  0.92769000  1
  Dy  Dy7  1  0.13666900  0.67268400  0.55911900  1
  Zr  Zr8  1  0.92561400  0.23463500  0.68031500  1
  Zr  Zr9  1  0.97305900  0.73707800  0.88133800  1
  Zr  Zr10  1  0.58941800  0.72285700  0.32701200  1
  Zr  Zr11  1  0.53230000  0.23517700  0.12517000  1
  Zr  Zr12  1  0.46770000  0.73517700  0.87483000  1
  Zr  Zr13  1  0.41058200  0.22285700  0.67298800  1
  Zr  Zr14  1  0.02694100  0.23707800  0.11866200  1
  Zr  Zr15  1  0.07438600  0.73463500  0.31968500  1
  O  O16  1  0.92232100  0.94781500  0.58266400  1
  O  O17  1  0.00368300  0.08093100  0.82595000  1
  O  O18  1  0.83032300  0.86603300  0.32581800  1
  O  O19  1  0.77822100  0.11399500  0.11708100  1
  O  O20  1  0.84621400  0.45652100  0.56554700  1
  O  O21  1  0.92492900  0.44973200  0.97845200  1
  O  O22  1  0.86118300  0.53343400  0.77017900  1
  O  O23  1  0.63500600  0.38820900  0.37782900  1
  O  O24  1  0.58432300  0.58584800  0.17286900  1
  O  O25  1  0.72858100  0.86546200  0.91556000  1
  O  O26  1  0.67642800  0.09619400  0.70171000  1
  O  O27  1  0.57773900  0.92400600  0.45306400  1
  O  O28  1  0.43912500  0.95368400  0.02317400  1
  O  O29  1  0.47393200  0.02499800  0.23363600  1
  O  O30  1  0.52606800  0.52499800  0.76636400  1
  O  O31  1  0.56087500  0.45368400  0.97682600  1
  O  O32  1  0.42226100  0.42400600  0.54693600  1
  O  O33  1  0.32357200  0.59619400  0.29829000  1
  O  O34  1  0.27141900  0.36546200  0.08444000  1
  O  O35  1  0.41567700  0.08584800  0.82713100  1
  O  O36  1  0.36499400  0.88820900  0.62217100  1
  O  O37  1  0.13881700  0.03343400  0.22982100  1
  O  O38  1  0.07507100  0.94973200  0.02154800  1
  O  O39  1  0.15378600  0.95652100  0.43445300  1
  O  O40  1  0.22177900  0.61399500  0.88291900  1
  O  O41  1  0.16967700  0.36603300  0.67418200  1
  O  O42  1  0.99631700  0.58093100  0.17405000  1
  O  O43  1  0.07767900  0.44781500  0.41733600  1
