# generated using pymatgen
data_MoH6NO3F2
_symmetry_space_group_name_H-M   'P 1'
_cell_length_a   9.45999200
_cell_length_b   14.34277400
_cell_length_c   7.99098615
_cell_angle_alpha   90.00000000
_cell_angle_beta   113.34636724
_cell_angle_gamma   90.00000000
_symmetry_Int_Tables_number   1
_chemical_formula_structural   MoH6NO3F2
_chemical_formula_sum   'Mo8 H48 N8 O24 F16'
_cell_volume   995.46633987
_cell_formula_units_Z   8
loop_
 _symmetry_equiv_pos_site_id
 _symmetry_equiv_pos_as_xyz
  1  'x, y, z'
loop_
 _atom_site_type_symbol
 _atom_site_label
 _atom_site_symmetry_multiplicity
 _atom_site_fract_x
 _atom_site_fract_y
 _atom_site_fract_z
 _atom_site_occupancy
  Mo  Mo0  1  0.63268900  0.35673700  0.73680500  1
  Mo  Mo1  1  0.36731100  0.35673700  0.76319500  1
  Mo  Mo2  1  0.36731100  0.64326300  0.26319500  1
  Mo  Mo3  1  0.63268900  0.64326300  0.23680500  1
  Mo  Mo4  1  0.13268900  0.85673700  0.73680500  1
  Mo  Mo5  1  0.86731100  0.85673700  0.76319500  1
  Mo  Mo6  1  0.86731100  0.14326300  0.26319500  1
  Mo  Mo7  1  0.13268900  0.14326300  0.23680500  1
  H  H8  1  0.54798950  0.08098450  0.86615400  1
  H  H9  1  0.45201050  0.08098450  0.63384600  1
  H  H10  1  0.45201050  0.91901550  0.13384600  1
  H  H11  1  0.54798950  0.91901550  0.36615400  1
  H  H12  1  0.58570500  0.99872800  0.73856900  1
  H  H13  1  0.41429500  0.99872800  0.76143100  1
  H  H14  1  0.41429500  0.00127200  0.26143100  1
  H  H15  1  0.58570500  0.00127200  0.23856900  1
  H  H16  1  0.41236500  0.70782500  0.66111800  1
  H  H17  1  0.58763500  0.70782500  0.83888200  1
  H  H18  1  0.58763500  0.29217500  0.33888200  1
  H  H19  1  0.41236500  0.29217500  0.16111800  1
  H  H20  1  0.81483300  0.05555900  0.65740400  1
  H  H21  1  0.18516700  0.05555900  0.84259600  1
  H  H22  1  0.18516700  0.94444100  0.34259600  1
  H  H23  1  0.81483300  0.94444100  0.15740400  1
  H  H24  1  0.86528400  0.05678600  0.87762200  1
  H  H25  1  0.13471600  0.05678600  0.62237800  1
  H  H26  1  0.13471600  0.94321400  0.12237800  1
  H  H27  1  0.86528400  0.94321400  0.37762200  1
  H  H28  1  0.45734300  0.79150400  0.82487500  1
  H  H29  1  0.54265700  0.79150400  0.67512500  1
  H  H30  1  0.54265700  0.20849600  0.17512500  1
  H  H31  1  0.45734300  0.20849600  0.32487500  1
  H  H32  1  0.04798950  0.58098450  0.86615400  1
  H  H33  1  0.95201050  0.58098450  0.63384600  1
  H  H34  1  0.95201050  0.41901550  0.13384600  1
  H  H35  1  0.04798950  0.41901550  0.36615400  1
  H  H36  1  0.08570500  0.49872800  0.73856900  1
  H  H37  1  0.91429500  0.49872800  0.76143100  1
  H  H38  1  0.91429500  0.50127200  0.26143100  1
  H  H39  1  0.08570500  0.50127200  0.23856900  1
  H  H40  1  0.91236500  0.20782500  0.66111800  1
  H  H41  1  0.08763500  0.20782500  0.83888200  1
  H  H42  1  0.08763500  0.79217500  0.33888200  1
  H  H43  1  0.91236500  0.79217500  0.16111800  1
  H  H44  1  0.31483300  0.55555900  0.65740400  1
  H  H45  1  0.68516700  0.55555900  0.84259600  1
  H  H46  1  0.68516700  0.44444100  0.34259600  1
  H  H47  1  0.31483300  0.44444100  0.15740400  1
  H  H48  1  0.36528400  0.55678600  0.87762200  1
  H  H49  1  0.63471600  0.55678600  0.62237800  1
  H  H50  1  0.63471600  0.44321400  0.12237800  1
  H  H51  1  0.36528400  0.44321400  0.37762200  1
  H  H52  1  0.95734300  0.29150400  0.82487500  1
  H  H53  1  0.04265700  0.29150400  0.67512500  1
  H  H54  1  0.04265700  0.70849600  0.17512500  1
  H  H55  1  0.95734300  0.70849600  0.32487500  1
  N  N56  1  0.50000000  0.03952700  0.75000000  1
  N  N57  1  0.50000000  0.96047300  0.25000000  1
  N  N58  1  0.50000000  0.74911600  0.75000000  1
  N  N59  1  0.50000000  0.25088400  0.25000000  1
  N  N60  1  0.00000000  0.53952700  0.75000000  1
  N  N61  1  0.00000000  0.46047300  0.25000000  1
  N  N62  1  0.00000000  0.24911600  0.75000000  1
  N  N63  1  0.00000000  0.75088400  0.25000000  1
  O  O64  1  0.65644700  0.23838900  0.73271600  1
  O  O65  1  0.34355300  0.23838900  0.76728400  1
  O  O66  1  0.34355300  0.76161100  0.26728400  1
  O  O67  1  0.65644700  0.76161100  0.23271600  1
  O  O68  1  0.57697800  0.38185100  0.94557200  1
  O  O69  1  0.42302200  0.38185100  0.55442800  1
  O  O70  1  0.42302200  0.61814900  0.05442800  1
  O  O71  1  0.57697800  0.61814900  0.44557200  1
  O  O72  1  0.17491700  0.01656600  0.73609600  1
  O  O73  1  0.82508300  0.01656600  0.76390400  1
  O  O74  1  0.82508300  0.98343400  0.26390400  1
  O  O75  1  0.17491700  0.98343400  0.23609600  1
  O  O76  1  0.15644700  0.73838900  0.73271600  1
  O  O77  1  0.84355300  0.73838900  0.76728400  1
  O  O78  1  0.84355300  0.26161100  0.26728400  1
  O  O79  1  0.15644700  0.26161100  0.23271600  1
  O  O80  1  0.07697800  0.88185100  0.94557200  1
  O  O81  1  0.92302200  0.88185100  0.55442800  1
  O  O82  1  0.92302200  0.11814900  0.05442800  1
  O  O83  1  0.07697800  0.11814900  0.44557200  1
  O  O84  1  0.67491700  0.51656600  0.73609600  1
  O  O85  1  0.32508300  0.51656600  0.76390400  1
  O  O86  1  0.32508300  0.48343400  0.26390400  1
  O  O87  1  0.67491700  0.48343400  0.23609600  1
  F  F88  1  0.20514550  0.87625350  0.52490000  1
  F  F89  1  0.79485450  0.87625350  0.97510000  1
  F  F90  1  0.79485450  0.12374650  0.47510000  1
  F  F91  1  0.20514550  0.12374650  0.02490000  1
  F  F92  1  0.36319250  0.87745750  0.90791600  1
  F  F93  1  0.63680750  0.87745750  0.59208400  1
  F  F94  1  0.63680750  0.12254250  0.09208400  1
  F  F95  1  0.36319250  0.12254250  0.40791600  1
  F  F96  1  0.70514550  0.37625350  0.52490000  1
  F  F97  1  0.29485450  0.37625350  0.97510000  1
  F  F98  1  0.29485450  0.62374650  0.47510000  1
  F  F99  1  0.70514550  0.62374650  0.02490000  1
  F  F100  1  0.86319250  0.37745750  0.90791600  1
  F  F101  1  0.13680750  0.37745750  0.59208400  1
  F  F102  1  0.13680750  0.62254250  0.09208400  1
  F  F103  1  0.86319250  0.62254250  0.40791600  1
