# generated using pymatgen
data_CaPbI4
_symmetry_space_group_name_H-M   'P 1'
_cell_length_a   8.04029900
_cell_length_b   14.60372100
_cell_length_c   9.45473154
_cell_angle_alpha   90.00000000
_cell_angle_beta   90.84677802
_cell_angle_gamma   90.00000000
_symmetry_Int_Tables_number   1
_chemical_formula_structural   CaPbI4
_chemical_formula_sum   'Ca4 Pb4 I16'
_cell_volume   1110.03710791
_cell_formula_units_Z   4
loop_
 _symmetry_equiv_pos_site_id
 _symmetry_equiv_pos_as_xyz
  1  'x, y, z'
loop_
 _atom_site_type_symbol
 _atom_site_label
 _atom_site_symmetry_multiplicity
 _atom_site_fract_x
 _atom_site_fract_y
 _atom_site_fract_z
 _atom_site_occupancy
  Ca  Ca0  1  0.40305500  0.87289000  0.86426500  1
  Ca  Ca1  1  0.40305500  0.62711000  0.36426500  1
  Ca  Ca2  1  0.59694500  0.37289000  0.63573500  1
  Ca  Ca3  1  0.59694500  0.12711000  0.13573500  1
  Pb  Pb4  1  0.10889900  0.13657000  0.85085900  1
  Pb  Pb5  1  0.10889900  0.36343000  0.35085900  1
  Pb  Pb6  1  0.89110100  0.63657000  0.64914100  1
  Pb  Pb7  1  0.89110100  0.86343000  0.14914100  1
  I  I8  1  0.09347300  0.74661200  0.89276500  1
  I  I9  1  0.26108600  0.49603100  0.60599900  1
  I  I10  1  0.43042500  0.25844200  0.89296600  1
  I  I11  1  0.09347300  0.75338800  0.39276500  1
  I  I12  1  0.26206500  0.00233100  0.63769600  1
  I  I13  1  0.26108600  0.00396900  0.10599900  1
  I  I14  1  0.43042500  0.24155800  0.39296600  1
  I  I15  1  0.26206500  0.49766900  0.13769600  1
  I  I16  1  0.73793500  0.50233100  0.86230400  1
  I  I17  1  0.56957500  0.75844200  0.60703400  1
  I  I18  1  0.73891400  0.99603100  0.89400100  1
  I  I19  1  0.73793500  0.99766900  0.36230400  1
  I  I20  1  0.90652700  0.24661200  0.60723500  1
  I  I21  1  0.56957500  0.74155800  0.10703400  1
  I  I22  1  0.73891400  0.50396900  0.39400100  1
  I  I23  1  0.90652700  0.25338800  0.10723500  1
