# generated using pymatgen
data_Na2MgH4(SO4)2
_symmetry_space_group_name_H-M   'P 1'
_cell_length_a   5.24302100
_cell_length_b   5.98448298
_cell_length_c   7.58842705
_cell_angle_alpha   100.21999507
_cell_angle_beta   109.38159360
_cell_angle_gamma   106.88703913
_symmetry_Int_Tables_number   1
_chemical_formula_structural   Na2MgH4(SO4)2
_chemical_formula_sum   'Na2 Mg1 H4 S2 O8'
_cell_volume   204.79387010
_cell_formula_units_Z   1
loop_
 _symmetry_equiv_pos_site_id
 _symmetry_equiv_pos_as_xyz
  1  'x, y, z'
loop_
 _atom_site_type_symbol
 _atom_site_label
 _atom_site_symmetry_multiplicity
 _atom_site_fract_x
 _atom_site_fract_y
 _atom_site_fract_z
 _atom_site_occupancy
  Na  Na0  1  0.32916000  0.00090600  0.66864400  1
  Na  Na1  1  0.67084000  0.99909400  0.33135600  1
  Mg  Mg2  1  0.50000000  0.50000000  0.50000000  1
  H  H3  1  0.27438400  0.24217700  0.10751500  1
  H  H4  1  0.72561600  0.75782300  0.89248500  1
  H  H5  1  0.15846000  0.05312200  0.21139300  1
  H  H6  1  0.84154000  0.94687800  0.78860700  1
  S  S7  1  0.92999500  0.60952200  0.26251000  1
  S  S8  1  0.07000500  0.39047800  0.73749000  1
  O  O9  1  0.26853500  0.70291400  0.36317000  1
  O  O10  1  0.73146500  0.29708600  0.63683000  1
  O  O11  1  0.87117600  0.78900200  0.14415800  1
  O  O12  1  0.12882400  0.21099800  0.85584200  1
  O  O13  1  0.84520500  0.68905300  0.43628300  1
  O  O14  1  0.15479500  0.31094700  0.56371700  1
  O  O15  1  0.32936000  0.20398300  0.23472900  1
  O  O16  1  0.67064000  0.79601700  0.76527100  1
