# generated using pymatgen
data_Ba2Ta2O7
_symmetry_space_group_name_H-M   'P 1'
_cell_length_a   4.08371800
_cell_length_b   27.97984400
_cell_length_c   5.92934100
_cell_angle_alpha   90.00000000
_cell_angle_beta   90.00000000
_cell_angle_gamma   90.00000000
_symmetry_Int_Tables_number   1
_chemical_formula_structural   Ba2Ta2O7
_chemical_formula_sum   'Ba8 Ta8 O28'
_cell_volume   677.49713148
_cell_formula_units_Z   4
loop_
 _symmetry_equiv_pos_site_id
 _symmetry_equiv_pos_as_xyz
  1  'x, y, z'
loop_
 _atom_site_type_symbol
 _atom_site_label
 _atom_site_symmetry_multiplicity
 _atom_site_fract_x
 _atom_site_fract_y
 _atom_site_fract_z
 _atom_site_occupancy
  Ba  Ba0  1  0.50000000  0.79195000  0.75000000  1
  Ba  Ba1  1  0.50000000  0.94718300  0.25000000  1
  Ba  Ba2  1  0.00000000  0.70805000  0.25000000  1
  Ba  Ba3  1  0.00000000  0.55281700  0.75000000  1
  Ba  Ba4  1  0.00000000  0.29195000  0.75000000  1
  Ba  Ba5  1  0.00000000  0.44718300  0.25000000  1
  Ba  Ba6  1  0.50000000  0.20805000  0.25000000  1
  Ba  Ba7  1  0.50000000  0.05281700  0.75000000  1
  Ta  Ta8  1  0.50000000  0.65908000  0.75000000  1
  Ta  Ta9  1  0.50000000  0.55546100  0.25000000  1
  Ta  Ta10  1  0.00000000  0.84092000  0.25000000  1
  Ta  Ta11  1  0.00000000  0.94453900  0.75000000  1
  Ta  Ta12  1  0.00000000  0.15908000  0.75000000  1
  Ta  Ta13  1  0.00000000  0.05546100  0.25000000  1
  Ta  Ta14  1  0.50000000  0.34092000  0.25000000  1
  Ta  Ta15  1  0.50000000  0.44453900  0.75000000  1
  O  O16  1  0.00000000  0.00000000  0.50000000  1
  O  O17  1  0.50000000  0.59990700  0.49856200  1
  O  O18  1  0.00000000  0.00000000  0.00000000  1
  O  O19  1  0.50000000  0.59990700  0.00143800  1
  O  O20  1  0.50000000  0.70499000  0.52214200  1
  O  O21  1  0.50000000  0.70499000  0.97785800  1
  O  O22  1  0.50000000  0.95061000  0.75000000  1
  O  O23  1  0.50000000  0.84913500  0.25000000  1
  O  O24  1  0.00000000  0.54939000  0.25000000  1
  O  O25  1  0.00000000  0.79501000  0.02214200  1
  O  O26  1  0.00000000  0.79501000  0.47785800  1
  O  O27  1  0.00000000  0.90009300  0.50143800  1
  O  O28  1  0.00000000  0.65086500  0.75000000  1
  O  O29  1  0.00000000  0.90009300  0.99856200  1
  O  O30  1  0.50000000  0.50000000  0.50000000  1
  O  O31  1  0.00000000  0.09990700  0.49856200  1
  O  O32  1  0.50000000  0.50000000  0.00000000  1
  O  O33  1  0.00000000  0.09990700  0.00143800  1
  O  O34  1  0.00000000  0.20499000  0.52214200  1
  O  O35  1  0.00000000  0.20499000  0.97785800  1
  O  O36  1  0.00000000  0.45061000  0.75000000  1
  O  O37  1  0.00000000  0.34913500  0.25000000  1
  O  O38  1  0.50000000  0.04939000  0.25000000  1
  O  O39  1  0.50000000  0.29501000  0.02214200  1
  O  O40  1  0.50000000  0.29501000  0.47785800  1
  O  O41  1  0.50000000  0.40009300  0.50143800  1
  O  O42  1  0.50000000  0.15086500  0.75000000  1
  O  O43  1  0.50000000  0.40009300  0.99856200  1
