# generated using pymatgen
data_TiH10N3F5
_symmetry_space_group_name_H-M   'P 1'
_cell_length_a   11.87115000
_cell_length_b   7.26015000
_cell_length_c   12.41346814
_cell_angle_alpha   90.00000000
_cell_angle_beta   116.45458523
_cell_angle_gamma   90.00000000
_symmetry_Int_Tables_number   1
_chemical_formula_structural   TiH10N3F5
_chemical_formula_sum   'Ti4 H40 N12 F20'
_cell_volume   957.84263429
_cell_formula_units_Z   4
loop_
 _symmetry_equiv_pos_site_id
 _symmetry_equiv_pos_as_xyz
  1  'x, y, z'
loop_
 _atom_site_type_symbol
 _atom_site_label
 _atom_site_symmetry_multiplicity
 _atom_site_fract_x
 _atom_site_fract_y
 _atom_site_fract_z
 _atom_site_occupancy
  Ti  Ti0  1  0.51999600  0.62339600  0.02519600  1
  Ti  Ti1  1  0.01999600  0.87660400  0.52519600  1
  Ti  Ti2  1  0.01999600  0.12339600  0.02519600  1
  Ti  Ti3  1  0.51999600  0.37660400  0.52519600  1
  H  H4  1  0.77330600  0.06504500  0.05701600  1
  H  H5  1  0.82573300  0.09182800  0.20524900  1
  H  H6  1  0.72862450  0.91095250  0.13367000  1
  H  H7  1  0.67321400  0.13207300  0.11310600  1
  H  H8  1  0.77330600  0.93495500  0.55701600  1
  H  H9  1  0.82573300  0.90817200  0.70524900  1
  H  H10  1  0.67321400  0.86792700  0.61310600  1
  H  H11  1  0.45784200  0.71496900  0.49063800  1
  H  H12  1  0.72862450  0.08904750  0.63367000  1
  H  H13  1  0.29056050  0.90311650  0.37197300  1
  H  H14  1  0.69979650  0.56400150  0.27128100  1
  H  H15  1  0.80152350  0.62660250  0.40733400  1
  H  H16  1  0.67065800  0.51233100  0.39074600  1
  H  H17  1  0.80152350  0.37339750  0.90733400  1
  H  H18  1  0.59275800  0.52190400  0.45820500  1
  H  H19  1  0.95784200  0.78503100  0.99063800  1
  H  H20  1  0.79056050  0.59688350  0.87197300  1
  H  H21  1  0.69979650  0.43599850  0.77128100  1
  H  H22  1  0.67065800  0.48766900  0.89074600  1
  H  H23  1  0.59275800  0.47809600  0.95820500  1
  H  H24  1  0.27330600  0.56504500  0.05701600  1
  H  H25  1  0.32573300  0.59182800  0.20524900  1
  H  H26  1  0.22862450  0.41095250  0.13367000  1
  H  H27  1  0.17321400  0.63207300  0.11310600  1
  H  H28  1  0.27330600  0.43495500  0.55701600  1
  H  H29  1  0.32573300  0.40817200  0.70524900  1
  H  H30  1  0.17321400  0.36792700  0.61310600  1
  H  H31  1  0.95784200  0.21496900  0.49063800  1
  H  H32  1  0.22862450  0.58904750  0.63367000  1
  H  H33  1  0.79056050  0.40311650  0.37197300  1
  H  H34  1  0.19979650  0.06400150  0.27128100  1
  H  H35  1  0.30152350  0.12660250  0.40733400  1
  H  H36  1  0.17065800  0.01233100  0.39074600  1
  H  H37  1  0.30152350  0.87339750  0.90733400  1
  H  H38  1  0.09275800  0.02190400  0.45820500  1
  H  H39  1  0.45784200  0.28503100  0.99063800  1
  H  H40  1  0.29056050  0.09688350  0.87197300  1
  H  H41  1  0.19979650  0.93599850  0.77128100  1
  H  H42  1  0.17065800  0.98766900  0.89074600  1
  H  H43  1  0.09275800  0.97809600  0.95820500  1
  N  N44  1  0.74967800  0.05000200  0.12792000  1
  N  N45  1  0.50856300  0.70463700  0.17502100  1
  N  N46  1  0.74967800  0.94999800  0.62792000  1
  N  N47  1  0.73960950  0.52442650  0.35987400  1
  N  N48  1  0.00856300  0.79536300  0.67502100  1
  N  N49  1  0.73960950  0.47557350  0.85987400  1
  N  N50  1  0.24967800  0.55000200  0.12792000  1
  N  N51  1  0.00856300  0.20463700  0.17502100  1
  N  N52  1  0.24967800  0.44999800  0.62792000  1
  N  N53  1  0.23960950  0.02442650  0.35987400  1
  N  N54  1  0.50856300  0.29536300  0.67502100  1
  N  N55  1  0.23960950  0.97557350  0.85987400  1
  F  F56  1  0.84026750  0.89649450  0.45878600  1
  F  F57  1  0.40012500  0.74850900  0.40130700  1
  F  F58  1  0.53068050  0.35646450  0.09696000  1
  F  F59  1  0.34026750  0.60350550  0.95878600  1
  F  F60  1  0.53068050  0.64353550  0.59696000  1
  F  F61  1  0.00172850  0.67974650  0.42832800  1
  F  F62  1  0.69533550  0.68915750  0.12940500  1
  F  F63  1  0.00172850  0.32025350  0.92832800  1
  F  F64  1  0.90012500  0.75149100  0.90130700  1
  F  F65  1  0.69533550  0.31084250  0.62940500  1
  F  F66  1  0.34026750  0.39649450  0.45878600  1
  F  F67  1  0.90012500  0.24850900  0.40130700  1
  F  F68  1  0.03068050  0.85646450  0.09696000  1
  F  F69  1  0.84026750  0.10350550  0.95878600  1
  F  F70  1  0.03068050  0.14353550  0.59696000  1
  F  F71  1  0.50172850  0.17974650  0.42832800  1
  F  F72  1  0.19533550  0.18915750  0.12940500  1
  F  F73  1  0.50172850  0.82025350  0.92832800  1
  F  F74  1  0.40012500  0.25149100  0.90130700  1
  F  F75  1  0.19533550  0.81084250  0.62940500  1
