# generated using pymatgen
data_Er2TiO5
_symmetry_space_group_name_H-M   'P 1'
_cell_length_a   11.63344800
_cell_length_b   5.26651800
_cell_length_c   7.52374557
_cell_angle_alpha   90.00000000
_cell_angle_beta   113.73692487
_cell_angle_gamma   90.00000000
_symmetry_Int_Tables_number   1
_chemical_formula_structural   Er2TiO5
_chemical_formula_sum   'Er8 Ti4 O20'
_cell_volume   421.96713796
_cell_formula_units_Z   4
loop_
 _symmetry_equiv_pos_site_id
 _symmetry_equiv_pos_as_xyz
  1  'x, y, z'
loop_
 _atom_site_type_symbol
 _atom_site_label
 _atom_site_symmetry_multiplicity
 _atom_site_fract_x
 _atom_site_fract_y
 _atom_site_fract_z
 _atom_site_occupancy
  Er  Er0  1  0.13724300  0.49111900  0.75124300  1
  Er  Er1  1  0.36049300  0.99244400  0.74808800  1
  Er  Er2  1  0.13724300  0.50888100  0.25124300  1
  Er  Er3  1  0.36049300  0.00755600  0.24808800  1
  Er  Er4  1  0.63724300  0.99111900  0.75124300  1
  Er  Er5  1  0.86049300  0.49244400  0.74808800  1
  Er  Er6  1  0.63724300  0.00888100  0.25124300  1
  Er  Er7  1  0.86049300  0.50755600  0.24808800  1
  Ti  Ti8  1  0.49923350  0.49470350  0.49098800  1
  Ti  Ti9  1  0.49923350  0.50529650  0.99098800  1
  Ti  Ti10  1  0.99923350  0.99470350  0.49098800  1
  Ti  Ti11  1  0.99923350  0.00529650  0.99098800  1
  O  O12  1  0.16901700  0.85536500  0.63956700  1
  O  O13  1  0.07084050  0.68115750  0.95580600  1
  O  O14  1  0.07084050  0.31884250  0.45580600  1
  O  O15  1  0.32946950  0.35538150  0.85941800  1
  O  O16  1  0.16901700  0.14463500  0.13956700  1
  O  O17  1  0.49911450  0.66982850  0.75294900  1
  O  O18  1  0.42706700  0.18105300  0.54332300  1
  O  O19  1  0.42706700  0.81894700  0.04332300  1
  O  O20  1  0.32946950  0.64461850  0.35941800  1
  O  O21  1  0.49911450  0.33017150  0.25294900  1
  O  O22  1  0.66901700  0.35536500  0.63956700  1
  O  O23  1  0.57084050  0.18115750  0.95580600  1
  O  O24  1  0.57084050  0.81884250  0.45580600  1
  O  O25  1  0.82946950  0.85538150  0.85941800  1
  O  O26  1  0.66901700  0.64463500  0.13956700  1
  O  O27  1  0.99911450  0.16982850  0.75294900  1
  O  O28  1  0.92706700  0.68105300  0.54332300  1
  O  O29  1  0.92706700  0.31894700  0.04332300  1
  O  O30  1  0.82946950  0.14461850  0.35941800  1
  O  O31  1  0.99911450  0.83017150  0.25294900  1
