# generated using pymatgen
data_BaYI5
_symmetry_space_group_name_H-M   'P 1'
_cell_length_a   8.20213900
_cell_length_b   14.58452000
_cell_length_c   11.02755023
_cell_angle_alpha   90.00000000
_cell_angle_beta   94.90946792
_cell_angle_gamma   90.00000000
_symmetry_Int_Tables_number   1
_chemical_formula_structural   BaYI5
_chemical_formula_sum   'Ba4 Y4 I20'
_cell_volume   1314.32275322
_cell_formula_units_Z   4
loop_
 _symmetry_equiv_pos_site_id
 _symmetry_equiv_pos_as_xyz
  1  'x, y, z'
loop_
 _atom_site_type_symbol
 _atom_site_label
 _atom_site_symmetry_multiplicity
 _atom_site_fract_x
 _atom_site_fract_y
 _atom_site_fract_z
 _atom_site_occupancy
  Ba  Ba0  1  0.94529000  0.95667200  0.82185700  1
  Ba  Ba1  1  0.59814900  0.62296700  0.62733800  1
  Ba  Ba2  1  0.40185100  0.12296700  0.37266200  1
  Ba  Ba3  1  0.05471000  0.45667200  0.17814300  1
  Y  Y4  1  0.99876700  0.37661400  0.59521800  1
  Y  Y5  1  0.49533000  0.76759800  0.12664700  1
  Y  Y6  1  0.50467000  0.26759800  0.87335300  1
  Y  Y7  1  0.00123300  0.87661400  0.40478200  1
  I  I8  1  0.02390100  0.24156700  0.38730300  1
  I  I9  1  0.92155600  0.50058300  0.79998400  1
  I  I10  1  0.85277700  0.72182700  0.23823500  1
  I  I11  1  0.76373700  0.47964200  0.41271000  1
  I  I12  1  0.67601800  0.77126100  0.88709700  1
  I  I13  1  0.74096200  0.98081700  0.53211500  1
  I  I14  1  0.79947300  0.28968300  0.04558000  1
  I  I15  1  0.66049300  0.26453400  0.62159500  1
  I  I16  1  0.58247800  0.96191800  0.18962200  1
  I  I17  1  0.56661800  0.06581700  0.86289100  1
  I  I18  1  0.43338200  0.56581700  0.13710900  1
  I  I19  1  0.41752200  0.46191800  0.81037800  1
  I  I20  1  0.33950700  0.76453400  0.37840500  1
  I  I21  1  0.20052700  0.78968300  0.95442000  1
  I  I22  1  0.25903800  0.48081700  0.46788500  1
  I  I23  1  0.32398200  0.27126100  0.11290300  1
  I  I24  1  0.23626300  0.97964200  0.58729000  1
  I  I25  1  0.14722300  0.22182700  0.76176500  1
  I  I26  1  0.07844400  0.00058300  0.20001600  1
  I  I27  1  0.97609900  0.74156700  0.61269700  1
