# generated using pymatgen
data_Li6CrO4
_symmetry_space_group_name_H-M   'P 1'
_cell_length_a   6.77955755
_cell_length_b   6.77955755
_cell_length_c   4.61753407
_cell_angle_alpha   90.00000000
_cell_angle_beta   90.00000000
_cell_angle_gamma   90.00000000
_symmetry_Int_Tables_number   1
_chemical_formula_structural   Li6CrO4
_chemical_formula_sum   'Li12 Cr2 O8'
_cell_volume   212.23295072
_cell_formula_units_Z   2
loop_
 _symmetry_equiv_pos_site_id
 _symmetry_equiv_pos_as_xyz
  1  'x, y, z'
loop_
 _atom_site_type_symbol
 _atom_site_label
 _atom_site_symmetry_multiplicity
 _atom_site_fract_x
 _atom_site_fract_y
 _atom_site_fract_z
 _atom_site_occupancy
  Li  Li0  1  0.00000000  0.50000000  0.43672450  1
  Li  Li1  1  0.00000000  0.50000000  0.93672450  1
  Li  Li2  1  0.50000000  0.00000000  0.06327550  1
  Li  Li3  1  0.50000000  0.00000000  0.56327550  1
  Li  Li4  1  0.28340350  0.28340350  0.50000000  1
  Li  Li5  1  0.71659650  0.28340350  0.50000000  1
  Li  Li6  1  0.28340350  0.71659650  0.50000000  1
  Li  Li7  1  0.71659650  0.71659650  0.50000000  1
  Li  Li8  1  0.78340350  0.78340350  0.00000000  1
  Li  Li9  1  0.21659650  0.78340350  0.00000000  1
  Li  Li10  1  0.78340350  0.21659650  0.00000000  1
  Li  Li11  1  0.21659650  0.21659650  0.00000000  1
  Cr  Cr12  1  0.00000000  0.00000000  0.50000000  1
  Cr  Cr13  1  0.50000000  0.50000000  0.00000000  1
  O  O14  1  0.00000000  0.27003750  0.69839450  1
  O  O15  1  0.77003750  0.50000000  0.19839450  1
  O  O16  1  0.22996250  0.50000000  0.19839450  1
  O  O17  1  0.00000000  0.72996250  0.69839450  1
  O  O18  1  0.50000000  0.77003750  0.80160550  1
  O  O19  1  0.72996250  0.00000000  0.30160550  1
  O  O20  1  0.27003750  0.00000000  0.30160550  1
  O  O21  1  0.50000000  0.22996250  0.80160550  1
