# generated using pymatgen
data_Rb2ZrO3
_symmetry_space_group_name_H-M   'P 1'
_cell_length_a   6.46613600
_cell_length_b   12.46170000
_cell_length_c   13.93868600
_cell_angle_alpha   90.00000000
_cell_angle_beta   90.00000000
_cell_angle_gamma   90.00000000
_symmetry_Int_Tables_number   1
_chemical_formula_structural   Rb2ZrO3
_chemical_formula_sum   'Rb16 Zr8 O24'
_cell_volume   1123.16603419
_cell_formula_units_Z   8
loop_
 _symmetry_equiv_pos_site_id
 _symmetry_equiv_pos_as_xyz
  1  'x, y, z'
loop_
 _atom_site_type_symbol
 _atom_site_label
 _atom_site_symmetry_multiplicity
 _atom_site_fract_x
 _atom_site_fract_y
 _atom_site_fract_z
 _atom_site_occupancy
  Rb  Rb0  1  0.00000000  0.55438500  0.63350100  1
  Rb  Rb1  1  0.00000000  0.62864600  0.07284000  1
  Rb  Rb2  1  0.50000000  0.55438500  0.86649900  1
  Rb  Rb3  1  0.00000000  0.87135400  0.57284000  1
  Rb  Rb4  1  0.00000000  0.94561500  0.13350100  1
  Rb  Rb5  1  0.50000000  0.94561500  0.36649900  1
  Rb  Rb6  1  0.50000000  0.62864600  0.42716000  1
  Rb  Rb7  1  0.50000000  0.87135400  0.92716000  1
  Rb  Rb8  1  0.50000000  0.05438500  0.63350100  1
  Rb  Rb9  1  0.50000000  0.12864600  0.07284000  1
  Rb  Rb10  1  0.00000000  0.05438500  0.86649900  1
  Rb  Rb11  1  0.50000000  0.37135400  0.57284000  1
  Rb  Rb12  1  0.50000000  0.44561500  0.13350100  1
  Rb  Rb13  1  0.00000000  0.44561500  0.36649900  1
  Rb  Rb14  1  0.00000000  0.12864600  0.42716000  1
  Rb  Rb15  1  0.00000000  0.37135400  0.92716000  1
  Zr  Zr16  1  0.00000000  0.74542000  0.83298500  1
  Zr  Zr17  1  0.00000000  0.75458000  0.33298500  1
  Zr  Zr18  1  0.50000000  0.74542000  0.66701500  1
  Zr  Zr19  1  0.50000000  0.75458000  0.16701500  1
  Zr  Zr20  1  0.50000000  0.24542000  0.83298500  1
  Zr  Zr21  1  0.50000000  0.25458000  0.33298500  1
  Zr  Zr22  1  0.00000000  0.24542000  0.66701500  1
  Zr  Zr23  1  0.00000000  0.25458000  0.16701500  1
  O  O24  1  0.75000000  0.77966100  0.75000000  1
  O  O25  1  0.25000000  0.72033900  0.25000000  1
  O  O26  1  0.00000000  0.59280400  0.86605900  1
  O  O27  1  0.00000000  0.83710600  0.94648300  1
  O  O28  1  0.50000000  0.66289400  0.05351700  1
  O  O29  1  0.00000000  0.90719600  0.36605900  1
  O  O30  1  0.00000000  0.66289400  0.44648300  1
  O  O31  1  0.50000000  0.83710600  0.55351700  1
  O  O32  1  0.50000000  0.59280400  0.63394100  1
  O  O33  1  0.50000000  0.90719600  0.13394100  1
  O  O34  1  0.25000000  0.77966100  0.75000000  1
  O  O35  1  0.75000000  0.72033900  0.25000000  1
  O  O36  1  0.25000000  0.27966100  0.75000000  1
  O  O37  1  0.75000000  0.22033900  0.25000000  1
  O  O38  1  0.50000000  0.09280400  0.86605900  1
  O  O39  1  0.50000000  0.33710600  0.94648300  1
  O  O40  1  0.00000000  0.16289400  0.05351700  1
  O  O41  1  0.50000000  0.40719600  0.36605900  1
  O  O42  1  0.50000000  0.16289400  0.44648300  1
  O  O43  1  0.00000000  0.33710600  0.55351700  1
  O  O44  1  0.00000000  0.09280400  0.63394100  1
  O  O45  1  0.00000000  0.40719600  0.13394100  1
  O  O46  1  0.75000000  0.27966100  0.75000000  1
  O  O47  1  0.25000000  0.22033900  0.25000000  1
