# generated using pymatgen
data_Ba2Ti6N2O11
_symmetry_space_group_name_H-M   'P 1'
_cell_length_a   15.52963800
_cell_length_b   3.91148800
_cell_length_c   9.27685703
_cell_angle_alpha   90.00000000
_cell_angle_beta   97.83822815
_cell_angle_gamma   90.00000000
_symmetry_Int_Tables_number   1
_chemical_formula_structural   Ba2Ti6N2O11
_chemical_formula_sum   'Ba4 Ti12 N4 O22'
_cell_volume   558.24846964
_cell_formula_units_Z   2
loop_
 _symmetry_equiv_pos_site_id
 _symmetry_equiv_pos_as_xyz
  1  'x, y, z'
loop_
 _atom_site_type_symbol
 _atom_site_label
 _atom_site_symmetry_multiplicity
 _atom_site_fract_x
 _atom_site_fract_y
 _atom_site_fract_z
 _atom_site_occupancy
  Ba  Ba0  1  0.54801600  0.00000000  0.77490000  1
  Ba  Ba1  1  0.94839900  0.50000000  0.23596100  1
  Ba  Ba2  1  0.04801600  0.50000000  0.77490000  1
  Ba  Ba3  1  0.44839900  0.00000000  0.23596100  1
  Ti  Ti4  1  0.61408800  0.50000000  0.09419100  1
  Ti  Ti5  1  0.67051200  0.50000000  0.43922800  1
  Ti  Ti6  1  0.73904100  0.50000000  0.77152100  1
  Ti  Ti7  1  0.75037100  0.00000000  0.22009500  1
  Ti  Ti8  1  0.83149200  0.00000000  0.55965300  1
  Ti  Ti9  1  0.88361200  0.00000000  0.91216900  1
  Ti  Ti10  1  0.11408800  0.00000000  0.09419100  1
  Ti  Ti11  1  0.17051200  0.00000000  0.43922800  1
  Ti  Ti12  1  0.23904100  0.00000000  0.77152100  1
  Ti  Ti13  1  0.25037100  0.50000000  0.22009500  1
  Ti  Ti14  1  0.33149200  0.50000000  0.55965300  1
  Ti  Ti15  1  0.38361200  0.50000000  0.91216900  1
  N  N16  1  0.63958300  0.00000000  0.11079500  1
  N  N17  1  0.99752800  0.00000000  0.00034700  1
  N  N18  1  0.13958300  0.50000000  0.11079500  1
  N  N19  1  0.49752800  0.50000000  0.00034700  1
  O  O20  1  0.57420800  0.50000000  0.30319000  1
  O  O21  1  0.63163800  0.50000000  0.61696400  1
  O  O22  1  0.66741600  0.50000000  0.90795200  1
  O  O23  1  0.70212300  0.00000000  0.42852900  1
  O  O24  1  0.75605400  0.00000000  0.75393100  1
  O  O25  1  0.74321100  0.50000000  0.24980700  1
  O  O26  1  0.79786200  0.50000000  0.57061900  1
  O  O27  1  0.85763000  0.50000000  0.88332900  1
  O  O28  1  0.83172300  0.00000000  0.08895400  1
  O  O29  1  0.87478100  0.00000000  0.39134100  1
  O  O30  1  0.92494000  0.00000000  0.70416100  1
  O  O31  1  0.07420800  0.00000000  0.30319000  1
  O  O32  1  0.13163800  0.00000000  0.61696400  1
  O  O33  1  0.16741600  0.00000000  0.90795200  1
  O  O34  1  0.20212300  0.50000000  0.42852900  1
  O  O35  1  0.25605400  0.50000000  0.75393100  1
  O  O36  1  0.24321100  0.00000000  0.24980700  1
  O  O37  1  0.29786200  0.00000000  0.57061900  1
  O  O38  1  0.35763000  0.00000000  0.88332900  1
  O  O39  1  0.33172300  0.50000000  0.08895400  1
  O  O40  1  0.37478100  0.50000000  0.39134100  1
  O  O41  1  0.42494000  0.50000000  0.70416100  1
