# generated using pymatgen
data_Lu2GeO5
_symmetry_space_group_name_H-M   'P 1'
_cell_length_a   14.68031000
_cell_length_b   6.76833400
_cell_length_c   10.30122295
_cell_angle_alpha   90.00000000
_cell_angle_beta   121.70159752
_cell_angle_gamma   90.00000000
_symmetry_Int_Tables_number   1
_chemical_formula_structural   Lu2GeO5
_chemical_formula_sum   'Lu16 Ge8 O40'
_cell_volume   870.82616293
_cell_formula_units_Z   8
loop_
 _symmetry_equiv_pos_site_id
 _symmetry_equiv_pos_as_xyz
  1  'x, y, z'
loop_
 _atom_site_type_symbol
 _atom_site_label
 _atom_site_symmetry_multiplicity
 _atom_site_fract_x
 _atom_site_fract_y
 _atom_site_fract_z
 _atom_site_occupancy
  Lu  Lu0  1  0.86282100  0.37642900  0.66120000  1
  Lu  Lu1  1  0.03506500  0.74019800  0.96790600  1
  Lu  Lu2  1  0.96493500  0.74019800  0.53209400  1
  Lu  Lu3  1  0.86282100  0.62357100  0.16120000  1
  Lu  Lu4  1  0.13717900  0.37642900  0.83880000  1
  Lu  Lu5  1  0.03506500  0.25980200  0.46790600  1
  Lu  Lu6  1  0.96493500  0.25980200  0.03209400  1
  Lu  Lu7  1  0.13717900  0.62357100  0.33880000  1
  Lu  Lu8  1  0.36282100  0.87642900  0.66120000  1
  Lu  Lu9  1  0.53506500  0.24019800  0.96790600  1
  Lu  Lu10  1  0.46493500  0.24019800  0.53209400  1
  Lu  Lu11  1  0.36282100  0.12357100  0.16120000  1
  Lu  Lu12  1  0.63717900  0.87642900  0.83880000  1
  Lu  Lu13  1  0.53506500  0.75980200  0.46790600  1
  Lu  Lu14  1  0.46493500  0.75980200  0.03209400  1
  Lu  Lu15  1  0.63717900  0.12357100  0.33880000  1
  Ge  Ge16  1  0.68540950  0.59325050  0.30847200  1
  Ge  Ge17  1  0.81459050  0.09325050  0.19152800  1
  Ge  Ge18  1  0.18540950  0.90674950  0.80847200  1
  Ge  Ge19  1  0.31459050  0.40674950  0.69152800  1
  Ge  Ge20  1  0.18540950  0.09325050  0.30847200  1
  Ge  Ge21  1  0.31459050  0.59325050  0.19152800  1
  Ge  Ge22  1  0.68540950  0.40674950  0.80847200  1
  Ge  Ge23  1  0.81459050  0.90674950  0.69152800  1
  O  O24  1  0.58187050  0.50917350  0.12846300  1
  O  O25  1  0.79601350  0.08136250  0.55318900  1
  O  O26  1  0.88318550  0.70081550  0.67259100  1
  O  O27  1  0.69325950  0.15391350  0.17588200  1
  O  O28  1  0.80674050  0.65391350  0.32411800  1
  O  O29  1  0.01695000  0.40224700  0.89693000  1
  O  O30  1  0.98305000  0.40224700  0.60307000  1
  O  O31  1  0.91812950  0.00917350  0.37153700  1
  O  O32  1  0.79601350  0.91863750  0.05318900  1
  O  O33  1  0.11681450  0.70081550  0.82740900  1
  O  O34  1  0.88318550  0.29918450  0.17259100  1
  O  O35  1  0.20398650  0.08136250  0.94681100  1
  O  O36  1  0.08187050  0.99082650  0.62846300  1
  O  O37  1  0.01695000  0.59775300  0.39693000  1
  O  O38  1  0.98305000  0.59775300  0.10307000  1
  O  O39  1  0.19325950  0.34608650  0.67588200  1
  O  O40  1  0.30674050  0.84608650  0.82411800  1
  O  O41  1  0.11681450  0.29918450  0.32740900  1
  O  O42  1  0.20398650  0.91863750  0.44681100  1
  O  O43  1  0.41812950  0.49082650  0.87153700  1
  O  O44  1  0.08187050  0.00917350  0.12846300  1
  O  O45  1  0.29601350  0.58136250  0.55318900  1
  O  O46  1  0.38318550  0.20081550  0.67259100  1
  O  O47  1  0.19325950  0.65391350  0.17588200  1
  O  O48  1  0.30674050  0.15391350  0.32411800  1
  O  O49  1  0.51695000  0.90224700  0.89693000  1
  O  O50  1  0.48305000  0.90224700  0.60307000  1
  O  O51  1  0.41812950  0.50917350  0.37153700  1
  O  O52  1  0.29601350  0.41863750  0.05318900  1
  O  O53  1  0.61681450  0.20081550  0.82740900  1
  O  O54  1  0.38318550  0.79918450  0.17259100  1
  O  O55  1  0.70398650  0.58136250  0.94681100  1
  O  O56  1  0.58187050  0.49082650  0.62846300  1
  O  O57  1  0.51695000  0.09775300  0.39693000  1
  O  O58  1  0.48305000  0.09775300  0.10307000  1
  O  O59  1  0.69325950  0.84608650  0.67588200  1
  O  O60  1  0.80674050  0.34608650  0.82411800  1
  O  O61  1  0.61681450  0.79918450  0.32740900  1
  O  O62  1  0.70398650  0.41863750  0.44681100  1
  O  O63  1  0.91812950  0.99082650  0.87153700  1
