# generated using pymatgen
data_Ba2Y5Cl19
_symmetry_space_group_name_H-M   'P 1'
_cell_length_a   9.19651600
_cell_length_b   7.43742800
_cell_length_c   29.75729074
_cell_angle_alpha   90.00000000
_cell_angle_beta   95.99613398
_cell_angle_gamma   90.00000000
_symmetry_Int_Tables_number   1
_chemical_formula_structural   Ba2Y5Cl19
_chemical_formula_sum   'Ba4 Y10 Cl38'
_cell_volume   2024.21631726
_cell_formula_units_Z   2
loop_
 _symmetry_equiv_pos_site_id
 _symmetry_equiv_pos_as_xyz
  1  'x, y, z'
loop_
 _atom_site_type_symbol
 _atom_site_label
 _atom_site_symmetry_multiplicity
 _atom_site_fract_x
 _atom_site_fract_y
 _atom_site_fract_z
 _atom_site_occupancy
  Ba  Ba0  1  0.77214700  0.28562600  0.25717300  1
  Ba  Ba1  1  0.75546400  0.20985100  0.82549200  1
  Ba  Ba2  1  0.24453600  0.70985100  0.17450800  1
  Ba  Ba3  1  0.22785300  0.78562600  0.74282700  1
  Y  Y4  1  0.83460800  0.73750200  0.02990900  1
  Y  Y5  1  0.82303100  0.75657200  0.46090700  1
  Y  Y6  1  0.85311300  0.26505200  0.67349800  1
  Y  Y7  1  0.56790600  0.22941700  0.10408800  1
  Y  Y8  1  0.46036400  0.24987200  0.39648600  1
  Y  Y9  1  0.53963600  0.74987200  0.60351400  1
  Y  Y10  1  0.43209400  0.72941700  0.89591200  1
  Y  Y11  1  0.14688700  0.76505200  0.32650200  1
  Y  Y12  1  0.17696900  0.25657200  0.53909300  1
  Y  Y13  1  0.16539200  0.23750200  0.97009100  1
  Cl  Cl14  1  0.96331400  0.43533600  0.00672300  1
  Cl  Cl15  1  0.03047100  0.06582800  0.29295400  1
  Cl  Cl16  1  0.93925700  0.73994900  0.38306200  1
  Cl  Cl17  1  0.97755600  0.60438700  0.25852500  1
  Cl  Cl18  1  0.97137500  0.47377600  0.49782500  1
  Cl  Cl19  1  0.69761500  0.04619300  0.04344200  1
  Cl  Cl20  1  0.02116500  0.25573100  0.89007800  1
  Cl  Cl21  1  0.63026600  0.54459600  0.06590300  1
  Cl  Cl22  1  0.80971900  0.23059500  0.15985300  1
  Cl  Cl23  1  0.69322400  0.05406300  0.42634200  1
  Cl  Cl24  1  0.64765100  0.27001700  0.72827100  1
  Cl  Cl25  1  0.76684300  0.94904600  0.63695700  1
  Cl  Cl26  1  0.52777600  0.23052600  0.31356600  1
  Cl  Cl27  1  0.64054500  0.77826800  0.52296600  1
  Cl  Cl28  1  0.62470200  0.53866100  0.41657000  1
  Cl  Cl29  1  0.68767500  0.44197500  0.61038800  1
  Cl  Cl30  1  0.56016900  0.88636600  0.82836600  1
  Cl  Cl31  1  0.31362600  0.24050400  0.05208900  1
  Cl  Cl32  1  0.47933600  0.92817200  0.13892700  1
  Cl  Cl33  1  0.52066400  0.42817200  0.86107300  1
  Cl  Cl34  1  0.68637400  0.74050400  0.94791100  1
  Cl  Cl35  1  0.43983100  0.38636600  0.17163400  1
  Cl  Cl36  1  0.31232500  0.94197500  0.38961200  1
  Cl  Cl37  1  0.37529800  0.03866100  0.58343000  1
  Cl  Cl38  1  0.35945500  0.27826800  0.47703400  1
  Cl  Cl39  1  0.47222400  0.73052600  0.68643400  1
  Cl  Cl40  1  0.23315700  0.44904600  0.36304300  1
  Cl  Cl41  1  0.35234900  0.77001700  0.27172900  1
  Cl  Cl42  1  0.30677600  0.55406300  0.57365800  1
  Cl  Cl43  1  0.19028100  0.73059500  0.84014700  1
  Cl  Cl44  1  0.36973400  0.04459600  0.93409700  1
  Cl  Cl45  1  0.97883500  0.75573100  0.10992200  1
  Cl  Cl46  1  0.30238500  0.54619300  0.95655800  1
  Cl  Cl47  1  0.02862500  0.97377600  0.50217500  1
  Cl  Cl48  1  0.02244400  0.10438700  0.74147500  1
  Cl  Cl49  1  0.06074300  0.23994900  0.61693800  1
  Cl  Cl50  1  0.96952900  0.56582800  0.70704600  1
  Cl  Cl51  1  0.03668600  0.93533600  0.99327700  1
