# generated using pymatgen
data_Li2Fe2S3
_symmetry_space_group_name_H-M   'P 1'
_cell_length_a   13.64757000
_cell_length_b   12.51688800
_cell_length_c   6.28236681
_cell_angle_alpha   90.00000000
_cell_angle_beta   109.23385311
_cell_angle_gamma   90.00000000
_symmetry_Int_Tables_number   1
_chemical_formula_structural   Li2Fe2S3
_chemical_formula_sum   'Li16 Fe16 S24'
_cell_volume   1013.28276382
_cell_formula_units_Z   8
loop_
 _symmetry_equiv_pos_site_id
 _symmetry_equiv_pos_as_xyz
  1  'x, y, z'
loop_
 _atom_site_type_symbol
 _atom_site_label
 _atom_site_symmetry_multiplicity
 _atom_site_fract_x
 _atom_site_fract_y
 _atom_site_fract_z
 _atom_site_occupancy
  Li  Li0  1  0.20046350  0.57194250  0.78820600  1
  Li  Li1  1  0.17261300  0.24921800  0.75400200  1
  Li  Li2  1  0.20046350  0.42805750  0.28820600  1
  Li  Li3  1  0.17261300  0.75078200  0.25400200  1
  Li  Li4  1  0.82738700  0.24921800  0.74599800  1
  Li  Li5  1  0.79953650  0.57194250  0.71179400  1
  Li  Li6  1  0.82738700  0.75078200  0.24599800  1
  Li  Li7  1  0.79953650  0.42805750  0.21179400  1
  Li  Li8  1  0.70046350  0.07194250  0.78820600  1
  Li  Li9  1  0.67261300  0.74921800  0.75400200  1
  Li  Li10  1  0.70046350  0.92805750  0.28820600  1
  Li  Li11  1  0.67261300  0.25078200  0.25400200  1
  Li  Li12  1  0.32738700  0.74921800  0.74599800  1
  Li  Li13  1  0.29953650  0.07194250  0.71179400  1
  Li  Li14  1  0.32738700  0.25078200  0.24599800  1
  Li  Li15  1  0.29953650  0.92805750  0.21179400  1
  Fe  Fe16  1  0.93291600  0.90873600  0.84526300  1
  Fe  Fe17  1  0.93291600  0.09126400  0.34526300  1
  Fe  Fe18  1  0.00000000  0.31711000  0.25000000  1
  Fe  Fe19  1  0.00000000  0.51599300  0.25000000  1
  Fe  Fe20  1  0.00000000  0.48400700  0.75000000  1
  Fe  Fe21  1  0.00000000  0.68289000  0.75000000  1
  Fe  Fe22  1  0.06708400  0.90873600  0.65473700  1
  Fe  Fe23  1  0.06708400  0.09126400  0.15473700  1
  Fe  Fe24  1  0.43291600  0.40873600  0.84526300  1
  Fe  Fe25  1  0.43291600  0.59126400  0.34526300  1
  Fe  Fe26  1  0.50000000  0.81711000  0.25000000  1
  Fe  Fe27  1  0.50000000  0.01599300  0.25000000  1
  Fe  Fe28  1  0.50000000  0.98400700  0.75000000  1
  Fe  Fe29  1  0.50000000  0.18289000  0.75000000  1
  Fe  Fe30  1  0.56708400  0.40873600  0.65473700  1
  Fe  Fe31  1  0.56708400  0.59126400  0.15473700  1
  S  S32  1  0.11193500  0.41767000  0.56481200  1
  S  S33  1  0.12932850  0.74292650  0.60406600  1
  S  S34  1  0.11193500  0.58233000  0.06481200  1
  S  S35  1  0.12932850  0.25707350  0.10406600  1
  S  S36  1  0.38566950  0.57754050  0.94882200  1
  S  S37  1  0.61433050  0.42245950  0.05117800  1
  S  S38  1  0.87067150  0.74292650  0.89593400  1
  S  S39  1  0.88806500  0.41767000  0.93518800  1
  S  S40  1  0.38566950  0.42245950  0.44882200  1
  S  S41  1  0.87067150  0.25707350  0.39593400  1
  S  S42  1  0.88806500  0.58233000  0.43518800  1
  S  S43  1  0.61433050  0.57754050  0.55117800  1
  S  S44  1  0.61193500  0.91767000  0.56481200  1
  S  S45  1  0.62932850  0.24292650  0.60406600  1
  S  S46  1  0.61193500  0.08233000  0.06481200  1
  S  S47  1  0.62932850  0.75707350  0.10406600  1
  S  S48  1  0.88566950  0.07754050  0.94882200  1
  S  S49  1  0.11433050  0.92245950  0.05117800  1
  S  S50  1  0.37067150  0.24292650  0.89593400  1
  S  S51  1  0.38806500  0.91767000  0.93518800  1
  S  S52  1  0.88566950  0.92245950  0.44882200  1
  S  S53  1  0.37067150  0.75707350  0.39593400  1
  S  S54  1  0.38806500  0.08233000  0.43518800  1
  S  S55  1  0.11433050  0.07754050  0.55117800  1
