# generated using pymatgen
data_Al2CoCl8
_symmetry_space_group_name_H-M   'P 1'
_cell_length_a   13.97307000
_cell_length_b   8.02876800
_cell_length_c   11.65856377
_cell_angle_alpha   90.00000000
_cell_angle_beta   93.33107773
_cell_angle_gamma   90.00000000
_symmetry_Int_Tables_number   1
_chemical_formula_structural   Al2CoCl8
_chemical_formula_sum   'Al8 Co4 Cl32'
_cell_volume   1305.72407438
_cell_formula_units_Z   4
loop_
 _symmetry_equiv_pos_site_id
 _symmetry_equiv_pos_as_xyz
  1  'x, y, z'
loop_
 _atom_site_type_symbol
 _atom_site_label
 _atom_site_symmetry_multiplicity
 _atom_site_fract_x
 _atom_site_fract_y
 _atom_site_fract_z
 _atom_site_occupancy
  Al  Al0  1  0.58098400  0.74233600  0.55530100  1
  Al  Al1  1  0.91901600  0.24233600  0.94469900  1
  Al  Al2  1  0.58098400  0.25766400  0.05530100  1
  Al  Al3  1  0.91901600  0.75766400  0.44469900  1
  Al  Al4  1  0.08098400  0.24233600  0.55530100  1
  Al  Al5  1  0.41901600  0.74233600  0.94469900  1
  Al  Al6  1  0.08098400  0.75766400  0.05530100  1
  Al  Al7  1  0.41901600  0.25766400  0.44469900  1
  Co  Co8  1  0.00000000  0.99812400  0.25000000  1
  Co  Co9  1  0.00000000  0.00187600  0.75000000  1
  Co  Co10  1  0.50000000  0.49812400  0.25000000  1
  Co  Co11  1  0.50000000  0.50187600  0.75000000  1
  Cl  Cl12  1  0.85703650  0.01876750  0.86222600  1
  Cl  Cl13  1  0.85703650  0.98123250  0.36222600  1
  Cl  Cl14  1  0.65319550  0.96343050  0.60173400  1
  Cl  Cl15  1  0.56285850  0.72252050  0.88169000  1
  Cl  Cl16  1  0.57664050  0.72323650  0.36774000  1
  Cl  Cl17  1  0.65319550  0.03656950  0.10173400  1
  Cl  Cl18  1  0.93714150  0.22252050  0.61831000  1
  Cl  Cl19  1  0.92335950  0.22323650  0.13226000  1
  Cl  Cl20  1  0.57664050  0.27676350  0.86774000  1
  Cl  Cl21  1  0.56285850  0.27747950  0.38169000  1
  Cl  Cl22  1  0.84680450  0.46343050  0.89826600  1
  Cl  Cl23  1  0.92335950  0.77676350  0.63226000  1
  Cl  Cl24  1  0.93714150  0.77747950  0.11831000  1
  Cl  Cl25  1  0.84680450  0.53656950  0.39826600  1
  Cl  Cl26  1  0.64296350  0.51876750  0.63777400  1
  Cl  Cl27  1  0.64296350  0.48123250  0.13777400  1
  Cl  Cl28  1  0.35703650  0.51876750  0.86222600  1
  Cl  Cl29  1  0.35703650  0.48123250  0.36222600  1
  Cl  Cl30  1  0.15319550  0.46343050  0.60173400  1
  Cl  Cl31  1  0.06285850  0.22252050  0.88169000  1
  Cl  Cl32  1  0.07664050  0.22323650  0.36774000  1
  Cl  Cl33  1  0.15319550  0.53656950  0.10173400  1
  Cl  Cl34  1  0.43714150  0.72252050  0.61831000  1
  Cl  Cl35  1  0.42335950  0.72323650  0.13226000  1
  Cl  Cl36  1  0.07664050  0.77676350  0.86774000  1
  Cl  Cl37  1  0.06285850  0.77747950  0.38169000  1
  Cl  Cl38  1  0.34680450  0.96343050  0.89826600  1
  Cl  Cl39  1  0.42335950  0.27676350  0.63226000  1
  Cl  Cl40  1  0.43714150  0.27747950  0.11831000  1
  Cl  Cl41  1  0.34680450  0.03656950  0.39826600  1
  Cl  Cl42  1  0.14296350  0.01876750  0.63777400  1
  Cl  Cl43  1  0.14296350  0.98123250  0.13777400  1
