# generated using pymatgen
data_CuH6SO7
_symmetry_space_group_name_H-M   'P 1'
_cell_length_a   5.55232200
_cell_length_b   13.79420000
_cell_length_c   7.22833228
_cell_angle_alpha   90.00000000
_cell_angle_beta   99.60679381
_cell_angle_gamma   90.00000000
_symmetry_Int_Tables_number   1
_chemical_formula_structural   CuH6SO7
_chemical_formula_sum   'Cu4 H24 S4 O28'
_cell_volume   545.85303339
_cell_formula_units_Z   4
loop_
 _symmetry_equiv_pos_site_id
 _symmetry_equiv_pos_as_xyz
  1  'x, y, z'
loop_
 _atom_site_type_symbol
 _atom_site_label
 _atom_site_symmetry_multiplicity
 _atom_site_fract_x
 _atom_site_fract_y
 _atom_site_fract_z
 _atom_site_occupancy
  Cu  Cu0  1  0.99069900  0.13898100  0.99883300  1
  Cu  Cu1  1  0.49069900  0.36101900  0.49883300  1
  Cu  Cu2  1  0.49069900  0.63898100  0.99883300  1
  Cu  Cu3  1  0.99069900  0.86101900  0.49883300  1
  H  H4  1  0.92712150  0.09338450  0.64048000  1
  H  H5  1  0.42712150  0.40661550  0.14048000  1
  H  H6  1  0.69088600  0.15543400  0.67637200  1
  H  H7  1  0.19088600  0.34456600  0.17637200  1
  H  H8  1  0.15431600  0.41448100  0.70430900  1
  H  H9  1  0.65431600  0.08551900  0.20430900  1
  H  H10  1  0.10778900  0.46011200  0.49913700  1
  H  H11  1  0.60778900  0.03988800  0.99913700  1
  H  H12  1  0.42285600  0.18773300  0.98519100  1
  H  H13  1  0.92285600  0.31226700  0.48519100  1
  H  H14  1  0.28061950  0.19711950  0.77628500  1
  H  H15  1  0.78061950  0.30288050  0.27628500  1
  H  H16  1  0.42712150  0.59338450  0.64048000  1
  H  H17  1  0.92712150  0.90661550  0.14048000  1
  H  H18  1  0.19088600  0.65543400  0.67637200  1
  H  H19  1  0.69088600  0.84456600  0.17637200  1
  H  H20  1  0.65431600  0.91448100  0.70430900  1
  H  H21  1  0.15431600  0.58551900  0.20430900  1
  H  H22  1  0.60778900  0.96011200  0.49913700  1
  H  H23  1  0.10778900  0.53988800  0.99913700  1
  H  H24  1  0.92285600  0.68773300  0.98519100  1
  H  H25  1  0.42285600  0.81226700  0.48519100  1
  H  H26  1  0.78061950  0.69711950  0.77628500  1
  H  H27  1  0.28061950  0.80288050  0.27628500  1
  S  S28  1  0.77114000  0.39325200  0.92295700  1
  S  S29  1  0.27114000  0.10674800  0.42295700  1
  S  S30  1  0.27114000  0.89325200  0.92295700  1
  S  S31  1  0.77114000  0.60674800  0.42295700  1
  O  O32  1  0.66147050  0.33462250  0.75412900  1
  O  O33  1  0.16147050  0.16537750  0.25412900  1
  O  O34  1  0.36366250  0.17968650  0.57111800  1
  O  O35  1  0.86366250  0.32031350  0.07111800  1
  O  O36  1  0.97920150  0.45165250  0.87678400  1
  O  O37  1  0.47920150  0.04834750  0.37678400  1
  O  O38  1  0.08545250  0.04317850  0.48643500  1
  O  O39  1  0.58545250  0.45682150  0.98643500  1
  O  O40  1  0.82852900  0.11447400  0.73813700  1
  O  O41  1  0.32852900  0.38552600  0.23813700  1
  O  O42  1  0.17623150  0.40070850  0.57250600  1
  O  O43  1  0.67623150  0.09929150  0.07250600  1
  O  O44  1  0.26342550  0.20676050  0.91162600  1
  O  O45  1  0.76342550  0.29323950  0.41162600  1
  O  O46  1  0.16147050  0.83462250  0.75412900  1
  O  O47  1  0.66147050  0.66537750  0.25412900  1
  O  O48  1  0.86366250  0.67968650  0.57111800  1
  O  O49  1  0.36366250  0.82031350  0.07111800  1
  O  O50  1  0.47920150  0.95165250  0.87678400  1
  O  O51  1  0.97920150  0.54834750  0.37678400  1
  O  O52  1  0.58545250  0.54317850  0.48643500  1
  O  O53  1  0.08545250  0.95682150  0.98643500  1
  O  O54  1  0.32852900  0.61447400  0.73813700  1
  O  O55  1  0.82852900  0.88552600  0.23813700  1
  O  O56  1  0.67623150  0.90070850  0.57250600  1
  O  O57  1  0.17623150  0.59929150  0.07250600  1
  O  O58  1  0.76342550  0.70676050  0.91162600  1
  O  O59  1  0.26342550  0.79323950  0.41162600  1
