# generated using pymatgen
data_Na6HfH8S5O24
_symmetry_space_group_name_H-M   'P 1'
_cell_length_a   8.63152000
_cell_length_b   11.29002100
_cell_length_c   10.79416118
_cell_angle_alpha   90.00000000
_cell_angle_beta   98.69446551
_cell_angle_gamma   90.00000000
_symmetry_Int_Tables_number   1
_chemical_formula_structural   Na6HfH8S5O24
_chemical_formula_sum   'Na12 Hf2 H16 S10 O48'
_cell_volume   1039.80364281
_cell_formula_units_Z   2
loop_
 _symmetry_equiv_pos_site_id
 _symmetry_equiv_pos_as_xyz
  1  'x, y, z'
loop_
 _atom_site_type_symbol
 _atom_site_label
 _atom_site_symmetry_multiplicity
 _atom_site_fract_x
 _atom_site_fract_y
 _atom_site_fract_z
 _atom_site_occupancy
  Na  Na0  1  0.94607300  0.82497400  0.50649400  1
  Na  Na1  1  0.05392700  0.32497400  0.49350600  1
  Na  Na2  1  0.46880900  0.19177800  0.02064300  1
  Na  Na3  1  0.53119100  0.69177800  0.97935700  1
  Na  Na4  1  0.41041800  0.47080700  0.46734900  1
  Na  Na5  1  0.58958200  0.97080700  0.53265100  1
  Na  Na6  1  0.79289700  0.96964500  0.04930100  1
  Na  Na7  1  0.20710300  0.46964500  0.95069900  1
  Na  Na8  1  0.30712200  0.82339700  0.72917900  1
  Na  Na9  1  0.69287800  0.32339700  0.27082100  1
  Na  Na10  1  0.02265600  0.56336100  0.22617500  1
  Na  Na11  1  0.97734400  0.06336100  0.77382500  1
  Hf  Hf12  1  0.77714300  0.50205900  0.72701700  1
  Hf  Hf13  1  0.22285700  0.00205900  0.27298300  1
  H  H14  1  0.46536700  0.15729100  0.38170900  1
  H  H15  1  0.53463300  0.65729100  0.61829100  1
  H  H16  1  0.54730900  0.07526700  0.29075200  1
  H  H17  1  0.45269100  0.57526700  0.70924800  1
  H  H18  1  0.97582600  0.65895600  0.97105600  1
  H  H19  1  0.02417400  0.15895600  0.02894400  1
  H  H20  1  0.87835500  0.23066800  0.97308900  1
  H  H21  1  0.12164500  0.73066800  0.02691100  1
  H  H22  1  0.51222100  0.04268500  0.82696400  1
  H  H23  1  0.48777900  0.54268500  0.17303600  1
  H  H24  1  0.66368900  0.11306600  0.84111400  1
  H  H25  1  0.33631100  0.61306600  0.15888600  1
  H  H26  1  0.73288000  0.75678000  0.21768300  1
  H  H27  1  0.26712000  0.25678000  0.78231700  1
  H  H28  1  0.58125400  0.83075400  0.19483000  1
  H  H29  1  0.41874600  0.33075400  0.80517000  1
  S  S30  1  0.69834400  0.26833000  0.61898100  1
  S  S31  1  0.30165600  0.76833000  0.38101900  1
  S  S32  1  0.75123400  0.80182400  0.77803700  1
  S  S33  1  0.24876600  0.30182400  0.22196300  1
  S  S34  1  0.77517400  0.56011500  0.40330500  1
  S  S35  1  0.22482600  0.06011500  0.59669500  1
  S  S36  1  0.15330300  0.57481800  0.67889900  1
  S  S37  1  0.84669700  0.07481800  0.32110100  1
  S  S38  1  0.73883400  0.44704700  0.98378100  1
  S  S39  1  0.26116600  0.94704700  0.01621900  1
  O  O40  1  0.61100200  0.34673200  0.70125000  1
  O  O41  1  0.38899800  0.84673200  0.29875000  1
  O  O42  1  0.85064600  0.33811700  0.62987000  1
  O  O43  1  0.14935400  0.83811700  0.37013000  1
  O  O44  1  0.61152800  0.26711200  0.49104300  1
  O  O45  1  0.38847200  0.76711200  0.50895700  1
  O  O46  1  0.72735700  0.14819900  0.67012200  1
  O  O47  1  0.27264300  0.64819900  0.32987800  1
  O  O48  1  0.81688000  0.67495400  0.79910000  1
  O  O49  1  0.18312000  0.17495400  0.20090000  1
  O  O50  1  0.75444200  0.83351600  0.64581700  1
  O  O51  1  0.24555800  0.33351600  0.35418300  1
  O  O52  1  0.85358500  0.87927600  0.86425600  1
  O  O53  1  0.14641500  0.37927600  0.13574400  1
  O  O54  1  0.58801100  0.80009500  0.80559300  1
  O  O55  1  0.41198900  0.30009500  0.19440700  1
  O  O56  1  0.78176200  0.56668500  0.54491000  1
  O  O57  1  0.21823800  0.06668500  0.45509000  1
  O  O58  1  0.88164800  0.46529300  0.37225800  1
  O  O59  1  0.11835200  0.96529300  0.62774200  1
  O  O60  1  0.61123400  0.53126800  0.34835500  1
  O  O61  1  0.38876600  0.03126800  0.65164500  1
  O  O62  1  0.82721300  0.67596400  0.36052900  1
  O  O63  1  0.17278700  0.17596400  0.63947100  1
  O  O64  1  0.03026800  0.51491600  0.74574400  1
  O  O65  1  0.96973200  0.01491600  0.25425600  1
  O  O66  1  0.19187200  0.49436900  0.58042700  1
  O  O67  1  0.80812800  0.99436900  0.41957300  1
  O  O68  1  0.29544500  0.59131200  0.77728800  1
  O  O69  1  0.70455500  0.09131200  0.22271200  1
  O  O70  1  0.09732200  0.69102000  0.63156300  1
  O  O71  1  0.90267800  0.19102000  0.36843700  1
  O  O72  1  0.87224100  0.42280000  0.90731900  1
  O  O73  1  0.12775900  0.92280000  0.09268100  1
  O  O74  1  0.62055000  0.50450900  0.88380200  1
  O  O75  1  0.37945000  0.00450900  0.11619800  1
  O  O76  1  0.78619200  0.53084300  0.08539000  1
  O  O77  1  0.21380800  0.03084300  0.91461000  1
  O  O78  1  0.68338700  0.33453700  0.02952500  1
  O  O79  1  0.31661300  0.83453700  0.97047500  1
  O  O80  1  0.53866400  0.57715100  0.65469200  1
  O  O81  1  0.46133600  0.07715100  0.34530800  1
  O  O82  1  0.92944000  0.15405300  0.96651300  1
  O  O83  1  0.07056000  0.65405300  0.03348700  1
  O  O84  1  0.59452700  0.07316000  0.89184300  1
  O  O85  1  0.40547300  0.57316000  0.10815700  1
  O  O86  1  0.66835000  0.80469400  0.15274500  1
  O  O87  1  0.33165000  0.30469400  0.84725500  1
