# generated using pymatgen
data_Na2Cr(HO)8
_symmetry_space_group_name_H-M   'P 1'
_cell_length_a   6.23941500
_cell_length_b   11.21704300
_cell_length_c   12.27485770
_cell_angle_alpha   90.00000000
_cell_angle_beta   104.94214497
_cell_angle_gamma   90.00000000
_symmetry_Int_Tables_number   1
_chemical_formula_structural   Na2Cr(HO)8
_chemical_formula_sum   'Na8 Cr4 H32 O32'
_cell_volume   830.04142850
_cell_formula_units_Z   4
loop_
 _symmetry_equiv_pos_site_id
 _symmetry_equiv_pos_as_xyz
  1  'x, y, z'
loop_
 _atom_site_type_symbol
 _atom_site_label
 _atom_site_symmetry_multiplicity
 _atom_site_fract_x
 _atom_site_fract_y
 _atom_site_fract_z
 _atom_site_occupancy
  Na  Na0  1  0.24962800  0.92663700  0.99699900  1
  Na  Na1  1  0.75037200  0.42663700  0.50300100  1
  Na  Na2  1  0.75037200  0.07336300  0.00300100  1
  Na  Na3  1  0.24962800  0.57336300  0.49699900  1
  Na  Na4  1  0.47589500  0.82052800  0.61238400  1
  Na  Na5  1  0.52410500  0.32052800  0.88761600  1
  Na  Na6  1  0.52410500  0.17947200  0.38761600  1
  Na  Na7  1  0.47589500  0.67947200  0.11238400  1
  Cr  Cr8  1  0.26341100  0.10032000  0.73969700  1
  Cr  Cr9  1  0.73658900  0.60032000  0.76030300  1
  Cr  Cr10  1  0.73658900  0.89968000  0.26030300  1
  Cr  Cr11  1  0.26341100  0.39968000  0.23969700  1
  H  H12  1  0.13968500  0.02845800  0.38407000  1
  H  H13  1  0.86031500  0.52845800  0.11593000  1
  H  H14  1  0.86031500  0.97154200  0.61593000  1
  H  H15  1  0.13968500  0.47154200  0.88407000  1
  H  H16  1  0.25234300  0.06427400  0.51053400  1
  H  H17  1  0.74765700  0.56427400  0.98946600  1
  H  H18  1  0.74765700  0.93572600  0.48946600  1
  H  H19  1  0.25234300  0.43572600  0.01053400  1
  H  H20  1  0.22668300  0.80849400  0.37587200  1
  H  H21  1  0.77331700  0.30849400  0.12412800  1
  H  H22  1  0.77331700  0.19150600  0.62412800  1
  H  H23  1  0.22668300  0.69150600  0.87587200  1
  H  H24  1  0.46097800  0.75761500  0.37538700  1
  H  H25  1  0.53902200  0.25761500  0.12461300  1
  H  H26  1  0.53902200  0.24238500  0.62461300  1
  H  H27  1  0.46097800  0.74238500  0.87538700  1
  H  H28  1  0.01551000  0.70986000  0.09351500  1
  H  H29  1  0.98449000  0.20986000  0.40648500  1
  H  H30  1  0.98449000  0.29014000  0.90648500  1
  H  H31  1  0.01551000  0.79014000  0.59351500  1
  H  H32  1  0.09453000  0.81904900  0.17318200  1
  H  H33  1  0.90547000  0.31904900  0.32681800  1
  H  H34  1  0.90547000  0.18095100  0.82681800  1
  H  H35  1  0.09453000  0.68095100  0.67318200  1
  H  H36  1  0.19356500  0.12912300  0.15267000  1
  H  H37  1  0.80643500  0.62912300  0.34733000  1
  H  H38  1  0.80643500  0.87087700  0.84733000  1
  H  H39  1  0.19356500  0.37087700  0.65267000  1
  H  H40  1  0.08818100  0.00891900  0.18104400  1
  H  H41  1  0.91181900  0.50891900  0.31895600  1
  H  H42  1  0.91181900  0.99108100  0.81895600  1
  H  H43  1  0.08818100  0.49108100  0.68104400  1
  O  O44  1  0.37658100  0.07097300  0.87425000  1
  O  O45  1  0.62341900  0.57097300  0.62575000  1
  O  O46  1  0.62341900  0.92902700  0.12575000  1
  O  O47  1  0.37658100  0.42902700  0.37425000  1
  O  O48  1  0.33746800  0.23776700  0.71083800  1
  O  O49  1  0.66253200  0.73776700  0.78916200  1
  O  O50  1  0.66253200  0.76223300  0.28916200  1
  O  O51  1  0.33746800  0.26223300  0.21083800  1
  O  O52  1  0.34734200  0.00531000  0.65651900  1
  O  O53  1  0.65265800  0.50531000  0.84348100  1
  O  O54  1  0.65265800  0.99469000  0.34348100  1
  O  O55  1  0.34734200  0.49469000  0.15651900  1
  O  O56  1  0.98256200  0.09100000  0.71450700  1
  O  O57  1  0.01743800  0.59100000  0.78549300  1
  O  O58  1  0.01743800  0.90900000  0.28549300  1
  O  O59  1  0.98256200  0.40900000  0.21450700  1
  O  O60  1  0.20572100  0.09646500  0.43299700  1
  O  O61  1  0.79427900  0.59646500  0.06700300  1
  O  O62  1  0.79427900  0.90353500  0.56700300  1
  O  O63  1  0.20572100  0.40353500  0.93299700  1
  O  O64  1  0.34913900  0.75842100  0.41965800  1
  O  O65  1  0.65086100  0.25842100  0.08034200  1
  O  O66  1  0.65086100  0.24157900  0.58034200  1
  O  O67  1  0.34913900  0.74157900  0.91965800  1
  O  O68  1  0.13169900  0.77188900  0.11258200  1
  O  O69  1  0.86830100  0.27188900  0.38741800  1
  O  O70  1  0.86830100  0.22811100  0.88741800  1
  O  O71  1  0.13169900  0.72811100  0.61258200  1
  O  O72  1  0.11578600  0.05631200  0.11822900  1
  O  O73  1  0.88421400  0.55631200  0.38177100  1
  O  O74  1  0.88421400  0.94368800  0.88177100  1
  O  O75  1  0.11578600  0.44368800  0.61822900  1
