# generated using pymatgen
data_Ba8Bi4O17
_symmetry_space_group_name_H-M   'P 1'
_cell_length_a   20.22575600
_cell_length_b   8.96228200
_cell_length_c   6.39804776
_cell_angle_alpha   90.00000000
_cell_angle_beta   107.75290225
_cell_angle_gamma   90.00000000
_symmetry_Int_Tables_number   1
_chemical_formula_structural   Ba8Bi4O17
_chemical_formula_sum   'Ba16 Bi8 O34'
_cell_volume   1104.53955985
_cell_formula_units_Z   2
loop_
 _symmetry_equiv_pos_site_id
 _symmetry_equiv_pos_as_xyz
  1  'x, y, z'
loop_
 _atom_site_type_symbol
 _atom_site_label
 _atom_site_symmetry_multiplicity
 _atom_site_fract_x
 _atom_site_fract_y
 _atom_site_fract_z
 _atom_site_occupancy
  Ba  Ba0  1  0.31119750  0.72775550  0.82872700  1
  Ba  Ba1  1  0.00211550  0.23892150  0.54149300  1
  Ba  Ba2  1  0.31119750  0.27224450  0.82872700  1
  Ba  Ba3  1  0.14695700  0.26563300  0.16875600  1
  Ba  Ba4  1  0.47546400  0.00000000  0.01312000  1
  Ba  Ba5  1  0.33376200  0.50000000  0.34253600  1
  Ba  Ba6  1  0.00211550  0.76107850  0.54149300  1
  Ba  Ba7  1  0.14695700  0.73436700  0.16875600  1
  Ba  Ba8  1  0.81119750  0.22775550  0.82872700  1
  Ba  Ba9  1  0.50211550  0.73892150  0.54149300  1
  Ba  Ba10  1  0.81119750  0.77224450  0.82872700  1
  Ba  Ba11  1  0.64695700  0.76563300  0.16875600  1
  Ba  Ba12  1  0.97546400  0.50000000  0.01312000  1
  Ba  Ba13  1  0.83376200  0.00000000  0.34253600  1
  Ba  Ba14  1  0.50211550  0.26107850  0.54149300  1
  Ba  Ba15  1  0.64695700  0.23436700  0.16875600  1
  Bi  Bi16  1  0.16501300  0.00000000  0.67319100  1
  Bi  Bi17  1  0.33323500  0.00000000  0.31740100  1
  Bi  Bi18  1  0.15679200  0.50000000  0.67731100  1
  Bi  Bi19  1  0.00306500  0.00000000  0.01475200  1
  Bi  Bi20  1  0.66501300  0.50000000  0.67319100  1
  Bi  Bi21  1  0.83323500  0.50000000  0.31740100  1
  Bi  Bi22  1  0.65679200  0.00000000  0.67731100  1
  Bi  Bi23  1  0.50306500  0.50000000  0.01475200  1
  O  O24  1  0.36312350  0.78271150  0.26039900  1
  O  O25  1  0.27873500  0.00000000  0.96611000  1
  O  O26  1  0.42204000  0.00000000  0.59724600  1
  O  O27  1  0.25165900  0.00000000  0.45144700  1
  O  O28  1  0.08239700  0.00000000  0.34534500  1
  O  O29  1  0.09323200  0.00000000  0.86981400  1
  O  O30  1  0.01282900  0.23377500  0.00172200  1
  O  O31  1  0.36312350  0.21728850  0.26039900  1
  O  O32  1  0.16394500  0.25631600  0.68123200  1
  O  O33  1  0.43292000  0.50000000  0.69251800  1
  O  O34  1  0.07544700  0.50000000  0.37527800  1
  O  O35  1  0.24334600  0.50000000  0.97088700  1
  O  O36  1  0.23387900  0.50000000  0.50785500  1
  O  O37  1  0.42532800  0.50000000  0.15961200  1
  O  O38  1  0.08831800  0.50000000  0.87098700  1
  O  O39  1  0.16394500  0.74368400  0.68123200  1
  O  O40  1  0.01282900  0.76622500  0.00172200  1
  O  O41  1  0.86312350  0.28271150  0.26039900  1
  O  O42  1  0.77873500  0.50000000  0.96611000  1
  O  O43  1  0.92204000  0.50000000  0.59724600  1
  O  O44  1  0.75165900  0.50000000  0.45144700  1
  O  O45  1  0.58239700  0.50000000  0.34534500  1
  O  O46  1  0.59323200  0.50000000  0.86981400  1
  O  O47  1  0.51282900  0.73377500  0.00172200  1
  O  O48  1  0.86312350  0.71728850  0.26039900  1
  O  O49  1  0.66394500  0.75631600  0.68123200  1
  O  O50  1  0.93292000  0.00000000  0.69251800  1
  O  O51  1  0.57544700  0.00000000  0.37527800  1
  O  O52  1  0.74334600  0.00000000  0.97088700  1
  O  O53  1  0.73387900  0.00000000  0.50785500  1
  O  O54  1  0.92532800  0.00000000  0.15961200  1
  O  O55  1  0.58831800  0.00000000  0.87098700  1
  O  O56  1  0.66394500  0.24368400  0.68123200  1
  O  O57  1  0.51282900  0.26622500  0.00172200  1
