# generated using pymatgen
data_K3Na3TeP6(HO4)6
_symmetry_space_group_name_H-M   'P 1'
_cell_length_a   18.30833400
_cell_length_b   11.27406000
_cell_length_c   12.45331376
_cell_angle_alpha   90.00000000
_cell_angle_beta   118.77611580
_cell_angle_gamma   90.00000000
_symmetry_Int_Tables_number   1
_chemical_formula_structural   K3Na3TeP6(HO4)6
_chemical_formula_sum   'K12 Na12 Te4 P24 H24 O96'
_cell_volume   2253.04413412
_cell_formula_units_Z   4
loop_
 _symmetry_equiv_pos_site_id
 _symmetry_equiv_pos_as_xyz
  1  'x, y, z'
loop_
 _atom_site_type_symbol
 _atom_site_label
 _atom_site_symmetry_multiplicity
 _atom_site_fract_x
 _atom_site_fract_y
 _atom_site_fract_z
 _atom_site_occupancy
  K  K0  1  0.29184250  0.44307850  0.75307200  1
  K  K1  1  0.29184250  0.55692150  0.25307200  1
  K  K2  1  0.00000000  0.37147300  0.75000000  1
  K  K3  1  0.00000000  0.62852700  0.25000000  1
  K  K4  1  0.70815750  0.44307850  0.74692800  1
  K  K5  1  0.70815750  0.55692150  0.24692800  1
  K  K6  1  0.79184250  0.94307850  0.75307200  1
  K  K7  1  0.79184250  0.05692150  0.25307200  1
  K  K8  1  0.50000000  0.87147300  0.75000000  1
  K  K9  1  0.50000000  0.12852700  0.25000000  1
  K  K10  1  0.20815750  0.94307850  0.74692800  1
  K  K11  1  0.20815750  0.05692150  0.24692800  1
  Na  Na12  1  0.10726900  0.64584000  0.75705300  1
  Na  Na13  1  0.00000000  0.91968400  0.75000000  1
  Na  Na14  1  0.10726900  0.35416000  0.25705300  1
  Na  Na15  1  0.89273100  0.64584000  0.74294700  1
  Na  Na16  1  0.00000000  0.08031600  0.25000000  1
  Na  Na17  1  0.89273100  0.35416000  0.24294700  1
  Na  Na18  1  0.60726900  0.14584000  0.75705300  1
  Na  Na19  1  0.50000000  0.41968400  0.75000000  1
  Na  Na20  1  0.60726900  0.85416000  0.25705300  1
  Na  Na21  1  0.39273100  0.14584000  0.74294700  1
  Na  Na22  1  0.50000000  0.58031600  0.25000000  1
  Na  Na23  1  0.39273100  0.85416000  0.24294700  1
  Te  Te24  1  0.75000000  0.75000000  0.00000000  1
  Te  Te25  1  0.25000000  0.75000000  0.50000000  1
  Te  Te26  1  0.25000000  0.25000000  0.00000000  1
  Te  Te27  1  0.75000000  0.25000000  0.50000000  1
  P  P28  1  0.83690850  0.17335550  0.97898200  1
  P  P29  1  0.08813100  0.39943100  0.51918600  1
  P  P30  1  0.83690850  0.82664450  0.47898200  1
  P  P31  1  0.00317550  0.17832650  0.51551000  1
  P  P32  1  0.08813100  0.60056900  0.01918600  1
  P  P33  1  0.00317550  0.82167350  0.01551000  1
  P  P34  1  0.99682450  0.17832650  0.98449000  1
  P  P35  1  0.91186900  0.39943100  0.98081400  1
  P  P36  1  0.99682450  0.82167350  0.48449000  1
  P  P37  1  0.16309150  0.17335550  0.52101800  1
  P  P38  1  0.91186900  0.60056900  0.48081400  1
  P  P39  1  0.16309150  0.82664450  0.02101800  1
  P  P40  1  0.33690850  0.67335550  0.97898200  1
  P  P41  1  0.58813100  0.89943100  0.51918600  1
  P  P42  1  0.33690850  0.32664450  0.47898200  1
  P  P43  1  0.50317550  0.67832650  0.51551000  1
  P  P44  1  0.58813100  0.10056900  0.01918600  1
  P  P45  1  0.50317550  0.32167350  0.01551000  1
  P  P46  1  0.49682450  0.67832650  0.98449000  1
  P  P47  1  0.41186900  0.89943100  0.98081400  1
  P  P48  1  0.49682450  0.32167350  0.48449000  1
  P  P49  1  0.66309150  0.67335550  0.52101800  1
  P  P50  1  0.41186900  0.10056900  0.48081400  1
  P  P51  1  0.66309150  0.32664450  0.02101800  1
  H  H52  1  0.16969900  0.65523600  0.58864100  1
  H  H53  1  0.29656100  0.46966600  0.99693900  1
  H  H54  1  0.61297100  0.60894600  0.93050900  1
  H  H55  1  0.16969900  0.34476400  0.08864100  1
  H  H56  1  0.29656100  0.53033400  0.49693900  1
  H  H57  1  0.38702900  0.60894600  0.56949100  1
  H  H58  1  0.61297100  0.39105400  0.43050900  1
  H  H59  1  0.70343900  0.46966600  0.50306100  1
  H  H60  1  0.83030100  0.65523600  0.91135900  1
  H  H61  1  0.38702900  0.39105400  0.06949100  1
  H  H62  1  0.70343900  0.53033400  0.00306100  1
  H  H63  1  0.83030100  0.34476400  0.41135900  1
  H  H64  1  0.66969900  0.15523600  0.58864100  1
  H  H65  1  0.79656100  0.96966600  0.99693900  1
  H  H66  1  0.11297100  0.10894600  0.93050900  1
  H  H67  1  0.66969900  0.84476400  0.08864100  1
  H  H68  1  0.79656100  0.03033400  0.49693900  1
  H  H69  1  0.88702900  0.10894600  0.56949100  1
  H  H70  1  0.11297100  0.89105400  0.43050900  1
  H  H71  1  0.20343900  0.96966600  0.50306100  1
  H  H72  1  0.33030100  0.15523600  0.91135900  1
  H  H73  1  0.88702900  0.89105400  0.06949100  1
  H  H74  1  0.20343900  0.03033400  0.00306100  1
  H  H75  1  0.33030100  0.84476400  0.41135900  1
  O  O76  1  0.32723300  0.59282800  0.55974100  1
  O  O77  1  0.21277200  0.71753800  0.62471400  1
  O  O78  1  0.16963200  0.30992200  0.56540000  1
  O  O79  1  0.32723300  0.40717200  0.05974100  1
  O  O80  1  0.25767500  0.60750000  0.89894000  1
  O  O81  1  0.11761950  0.50122350  0.60654300  1
  O  O82  1  0.09507350  0.12115450  0.56003500  1
  O  O83  1  0.16645050  0.34390350  0.88809900  1
  O  O84  1  0.02760300  0.31688100  0.55248100  1
  O  O85  1  0.05028550  0.83386050  0.62060500  1
  O  O86  1  0.12789250  0.83307150  0.88474700  1
  O  O87  1  0.21277200  0.28246200  0.12471400  1
  O  O88  1  0.16963200  0.69007800  0.06540000  1
  O  O89  1  0.25767500  0.39250000  0.39894000  1
  O  O90  1  0.97360400  0.13000600  0.60064700  1
  O  O91  1  0.11761950  0.49877650  0.10654300  1
  O  O92  1  0.04826850  0.58513150  0.88317900  1
  O  O93  1  0.09507350  0.87884550  0.06003500  1
  O  O94  1  0.95173150  0.58513150  0.61682100  1
  O  O95  1  0.02639600  0.13000600  0.89935300  1
  O  O96  1  0.16645050  0.65609650  0.38809900  1
  O  O97  1  0.02760300  0.68311900  0.05248100  1
  O  O98  1  0.05028550  0.16613950  0.12060500  1
  O  O99  1  0.12789250  0.16692850  0.38474700  1
  O  O100  1  0.87210750  0.83307150  0.61525300  1
  O  O101  1  0.94971450  0.83386050  0.87939500  1
  O  O102  1  0.97239700  0.31688100  0.94751900  1
  O  O103  1  0.83354950  0.34390350  0.61190100  1
  O  O104  1  0.97360400  0.86999400  0.10064700  1
  O  O105  1  0.04826850  0.41486850  0.38317900  1
  O  O106  1  0.90492650  0.12115450  0.93996500  1
  O  O107  1  0.95173150  0.41486850  0.11682100  1
  O  O108  1  0.88238050  0.50122350  0.89345700  1
  O  O109  1  0.02639600  0.86999400  0.39935300  1
  O  O110  1  0.74232500  0.60750000  0.60106000  1
  O  O111  1  0.83036800  0.30992200  0.93460000  1
  O  O112  1  0.78722800  0.71753800  0.87528600  1
  O  O113  1  0.87210750  0.16692850  0.11525300  1
  O  O114  1  0.94971450  0.16613950  0.37939500  1
  O  O115  1  0.97239700  0.68311900  0.44751900  1
  O  O116  1  0.83354950  0.65609650  0.11190100  1
  O  O117  1  0.90492650  0.87884550  0.43996500  1
  O  O118  1  0.88238050  0.49877650  0.39345700  1
  O  O119  1  0.74232500  0.39250000  0.10106000  1
  O  O120  1  0.67276700  0.59282800  0.94025900  1
  O  O121  1  0.83036800  0.69007800  0.43460000  1
  O  O122  1  0.78722800  0.28246200  0.37528600  1
  O  O123  1  0.67276700  0.40717200  0.44025900  1
  O  O124  1  0.82723300  0.09282800  0.55974100  1
  O  O125  1  0.71277200  0.21753800  0.62471400  1
  O  O126  1  0.66963200  0.80992200  0.56540000  1
  O  O127  1  0.82723300  0.90717200  0.05974100  1
  O  O128  1  0.75767500  0.10750000  0.89894000  1
  O  O129  1  0.61761950  0.00122350  0.60654300  1
  O  O130  1  0.59507350  0.62115450  0.56003500  1
  O  O131  1  0.66645050  0.84390350  0.88809900  1
  O  O132  1  0.52760300  0.81688100  0.55248100  1
  O  O133  1  0.55028550  0.33386050  0.62060500  1
  O  O134  1  0.62789250  0.33307150  0.88474700  1
  O  O135  1  0.71277200  0.78246200  0.12471400  1
  O  O136  1  0.66963200  0.19007800  0.06540000  1
  O  O137  1  0.75767500  0.89250000  0.39894000  1
  O  O138  1  0.47360400  0.63000600  0.60064700  1
  O  O139  1  0.61761950  0.99877650  0.10654300  1
  O  O140  1  0.54826850  0.08513150  0.88317900  1
  O  O141  1  0.59507350  0.37884550  0.06003500  1
  O  O142  1  0.45173150  0.08513150  0.61682100  1
  O  O143  1  0.52639600  0.63000600  0.89935300  1
  O  O144  1  0.66645050  0.15609650  0.38809900  1
  O  O145  1  0.52760300  0.18311900  0.05248100  1
  O  O146  1  0.55028550  0.66613950  0.12060500  1
  O  O147  1  0.62789250  0.66692850  0.38474700  1
  O  O148  1  0.37210750  0.33307150  0.61525300  1
  O  O149  1  0.44971450  0.33386050  0.87939500  1
  O  O150  1  0.47239700  0.81688100  0.94751900  1
  O  O151  1  0.33354950  0.84390350  0.61190100  1
  O  O152  1  0.47360400  0.36999400  0.10064700  1
  O  O153  1  0.54826850  0.91486850  0.38317900  1
  O  O154  1  0.40492650  0.62115450  0.93996500  1
  O  O155  1  0.45173150  0.91486850  0.11682100  1
  O  O156  1  0.38238050  0.00122350  0.89345700  1
  O  O157  1  0.52639600  0.36999400  0.39935300  1
  O  O158  1  0.24232500  0.10750000  0.60106000  1
  O  O159  1  0.33036800  0.80992200  0.93460000  1
  O  O160  1  0.28722800  0.21753800  0.87528600  1
  O  O161  1  0.37210750  0.66692850  0.11525300  1
  O  O162  1  0.44971450  0.66613950  0.37939500  1
  O  O163  1  0.47239700  0.18311900  0.44751900  1
  O  O164  1  0.33354950  0.15609650  0.11190100  1
  O  O165  1  0.40492650  0.37884550  0.43996500  1
  O  O166  1  0.38238050  0.99877650  0.39345700  1
  O  O167  1  0.24232500  0.89250000  0.10106000  1
  O  O168  1  0.17276700  0.09282800  0.94025900  1
  O  O169  1  0.33036800  0.19007800  0.43460000  1
  O  O170  1  0.28722800  0.78246200  0.37528600  1
  O  O171  1  0.17276700  0.90717200  0.44025900  1
