# generated using pymatgen
data_ThNb4O12
_symmetry_space_group_name_H-M   'P 1'
_cell_length_a   5.61209800
_cell_length_b   5.61209800
_cell_length_c   15.93856800
_cell_angle_alpha   90.00000000
_cell_angle_beta   90.00000000
_cell_angle_gamma   90.00000000
_symmetry_Int_Tables_number   1
_chemical_formula_structural   ThNb4O12
_chemical_formula_sum   'Th2 Nb8 O24'
_cell_volume   501.99546299
_cell_formula_units_Z   2
loop_
 _symmetry_equiv_pos_site_id
 _symmetry_equiv_pos_as_xyz
  1  'x, y, z'
loop_
 _atom_site_type_symbol
 _atom_site_label
 _atom_site_symmetry_multiplicity
 _atom_site_fract_x
 _atom_site_fract_y
 _atom_site_fract_z
 _atom_site_occupancy
  Th  Th0  1  0.50000000  0.50000000  0.00000000  1
  Th  Th1  1  0.00000000  0.00000000  0.50000000  1
  Nb  Nb2  1  0.00000000  0.50000000  0.12794700  1
  Nb  Nb3  1  0.50000000  0.00000000  0.37205300  1
  Nb  Nb4  1  0.50000000  0.00000000  0.12794700  1
  Nb  Nb5  1  0.00000000  0.50000000  0.37205300  1
  Nb  Nb6  1  0.50000000  0.00000000  0.62794700  1
  Nb  Nb7  1  0.00000000  0.50000000  0.87205300  1
  Nb  Nb8  1  0.00000000  0.50000000  0.62794700  1
  Nb  Nb9  1  0.50000000  0.00000000  0.87205300  1
  O  O10  1  0.50000000  0.00000000  0.25000000  1
  O  O11  1  0.76490550  0.76490550  0.38762150  1
  O  O12  1  0.00000000  0.50000000  0.25000000  1
  O  O13  1  0.76490550  0.23509450  0.38762150  1
  O  O14  1  0.23509450  0.76490550  0.38762150  1
  O  O15  1  0.23509450  0.23509450  0.38762150  1
  O  O16  1  0.00000000  0.50000000  0.00000000  1
  O  O17  1  0.73509450  0.73509450  0.11237850  1
  O  O18  1  0.50000000  0.00000000  0.00000000  1
  O  O19  1  0.26490550  0.73509450  0.11237850  1
  O  O20  1  0.73509450  0.26490550  0.11237850  1
  O  O21  1  0.26490550  0.26490550  0.11237850  1
  O  O22  1  0.00000000  0.50000000  0.75000000  1
  O  O23  1  0.26490550  0.26490550  0.88762150  1
  O  O24  1  0.50000000  0.00000000  0.75000000  1
  O  O25  1  0.26490550  0.73509450  0.88762150  1
  O  O26  1  0.73509450  0.26490550  0.88762150  1
  O  O27  1  0.73509450  0.73509450  0.88762150  1
  O  O28  1  0.50000000  0.00000000  0.50000000  1
  O  O29  1  0.23509450  0.23509450  0.61237850  1
  O  O30  1  0.00000000  0.50000000  0.50000000  1
  O  O31  1  0.76490550  0.23509450  0.61237850  1
  O  O32  1  0.23509450  0.76490550  0.61237850  1
  O  O33  1  0.76490550  0.76490550  0.61237850  1
