# generated using pymatgen
data_Ti(SO4)2
_symmetry_space_group_name_H-M   'P 1'
_cell_length_a   8.35838602
_cell_length_b   8.35838602
_cell_length_c   22.38374693
_cell_angle_alpha   90.00000000
_cell_angle_beta   90.00000000
_cell_angle_gamma   120.00000000
_symmetry_Int_Tables_number   1
_chemical_formula_structural   Ti(SO4)2
_chemical_formula_sum   'Ti9 S18 O72'
_cell_volume   1354.27938458
_cell_formula_units_Z   9
loop_
 _symmetry_equiv_pos_site_id
 _symmetry_equiv_pos_as_xyz
  1  'x, y, z'
loop_
 _atom_site_type_symbol
 _atom_site_label
 _atom_site_symmetry_multiplicity
 _atom_site_fract_x
 _atom_site_fract_y
 _atom_site_fract_z
 _atom_site_occupancy
  Ti  Ti0  1  0.66666667  0.33333333  0.18604333  1
  Ti  Ti1  1  0.33333333  0.66666667  0.02240867  1
  Ti  Ti2  1  0.00000000  0.00000000  0.14931200  1
  Ti  Ti3  1  0.33333333  0.66666667  0.51937667  1
  Ti  Ti4  1  0.00000000  0.00000000  0.35574200  1
  Ti  Ti5  1  0.66666667  0.33333333  0.48264533  1
  Ti  Ti6  1  0.00000000  0.00000000  0.85271000  1
  Ti  Ti7  1  0.66666667  0.33333333  0.68907533  1
  Ti  Ti8  1  0.33333333  0.66666667  0.81597867  1
  S  S9  1  0.00314867  0.29559733  0.24900233  1
  S  S10  1  0.70440267  0.70755133  0.24900233  1
  S  S11  1  0.29244867  0.99685133  0.24900233  1
  S  S12  1  0.38392800  0.33707700  0.08214600  1
  S  S13  1  0.95314900  0.61607200  0.08214600  1
  S  S14  1  0.66292300  0.04685100  0.08214600  1
  S  S15  1  0.66981533  0.62893067  0.58233567  1
  S  S16  1  0.37106933  0.04088467  0.58233567  1
  S  S17  1  0.95911533  0.33018467  0.58233567  1
  S  S18  1  0.05059467  0.67041033  0.41547933  1
  S  S19  1  0.61981567  0.94940533  0.41547933  1
  S  S20  1  0.32958967  0.38018433  0.41547933  1
  S  S21  1  0.33648200  0.96226400  0.91566900  1
  S  S22  1  0.03773600  0.37421800  0.91566900  1
  S  S23  1  0.62578200  0.66351800  0.91566900  1
  S  S24  1  0.71726133  0.00374367  0.74881267  1
  S  S25  1  0.28648233  0.28273867  0.74881267  1
  S  S26  1  0.99625633  0.71351767  0.74881267  1
  O  O27  1  0.68926533  0.14384867  0.02752467  1
  O  O28  1  0.45458333  0.31073467  0.02752467  1
  O  O29  1  0.80538400  0.24566400  0.23303200  1
  O  O30  1  0.85615133  0.54541667  0.02752467  1
  O  O31  1  0.06851533  0.21485367  0.20095067  1
  O  O32  1  0.12171733  0.48868567  0.25434067  1
  O  O33  1  0.51131433  0.63303167  0.25434067  1
  O  O34  1  0.75433600  0.55972000  0.23303200  1
  O  O35  1  0.36696833  0.87828267  0.25434067  1
  O  O36  1  0.21788633  0.15850367  0.10278167  1
  O  O37  1  0.52069933  0.40645567  0.13318167  1
  O  O38  1  0.88575633  0.47930067  0.13318167  1
  O  O39  1  0.78514633  0.85366167  0.20095067  1
  O  O40  1  0.14633833  0.93148467  0.20095067  1
  O  O41  1  0.44028000  0.19461600  0.23303200  1
  O  O42  1  0.31864100  0.47569300  0.07741500  1
  O  O43  1  0.94061733  0.78211367  0.10278167  1
  O  O44  1  0.15705200  0.68135900  0.07741500  1
  O  O45  1  0.52430700  0.84294800  0.07741500  1
  O  O46  1  0.59354433  0.11424367  0.13318167  1
  O  O47  1  0.81370400  0.79706500  0.30538300  1
  O  O48  1  0.84149633  0.05938267  0.10278167  1
  O  O49  1  0.20293500  0.01663900  0.30538300  1
  O  O50  1  0.98336100  0.18629600  0.30538300  1
  O  O51  1  0.35593200  0.47718200  0.36085800  1
  O  O52  1  0.12125000  0.64406800  0.36085800  1
  O  O53  1  0.47205067  0.57899733  0.56636533  1
  O  O54  1  0.52281800  0.87875000  0.36085800  1
  O  O55  1  0.73518200  0.54818700  0.53428400  1
  O  O56  1  0.78838400  0.82201900  0.58767400  1
  O  O57  1  0.17798100  0.96636500  0.58767400  1
  O  O58  1  0.42100267  0.89305333  0.56636533  1
  O  O59  1  0.03363500  0.21161600  0.58767400  1
  O  O60  1  0.88455300  0.49183700  0.43611500  1
  O  O61  1  0.18736600  0.73978900  0.46651500  1
  O  O62  1  0.55242300  0.81263400  0.46651500  1
  O  O63  1  0.45181300  0.18699500  0.53428400  1
  O  O64  1  0.81300500  0.26481800  0.53428400  1
  O  O65  1  0.10694667  0.52794933  0.56636533  1
  O  O66  1  0.98530767  0.80902633  0.41074833  1
  O  O67  1  0.60728400  0.11544700  0.43611500  1
  O  O68  1  0.82371867  0.01469233  0.41074833  1
  O  O69  1  0.19097367  0.17628133  0.41074833  1
  O  O70  1  0.26021100  0.44757700  0.46651500  1
  O  O71  1  0.48037067  0.13039833  0.63871633  1
  O  O72  1  0.50816300  0.39271600  0.43611500  1
  O  O73  1  0.86960167  0.34997233  0.63871633  1
  O  O74  1  0.65002767  0.51962933  0.63871633  1
  O  O75  1  0.02259867  0.81051533  0.69419133  1
  O  O76  1  0.78791667  0.97740133  0.69419133  1
  O  O77  1  0.13871733  0.91233067  0.89969867  1
  O  O78  1  0.18948467  0.21208333  0.69419133  1
  O  O79  1  0.40184867  0.88152033  0.86761733  1
  O  O80  1  0.45505067  0.15535233  0.92100733  1
  O  O81  1  0.84464767  0.29969833  0.92100733  1
  O  O82  1  0.08766933  0.22638667  0.89969867  1
  O  O83  1  0.70030167  0.54494933  0.92100733  1
  O  O84  1  0.55121967  0.82517033  0.76944833  1
  O  O85  1  0.85403267  0.07312233  0.79984833  1
  O  O86  1  0.21908967  0.14596733  0.79984833  1
  O  O87  1  0.11847967  0.52032833  0.86761733  1
  O  O88  1  0.47967167  0.59815133  0.86761733  1
  O  O89  1  0.77361333  0.86128267  0.89969867  1
  O  O90  1  0.65197433  0.14235967  0.74408167  1
  O  O91  1  0.27395067  0.44878033  0.76944833  1
  O  O92  1  0.49038533  0.34802567  0.74408167  1
  O  O93  1  0.85764033  0.50961467  0.74408167  1
  O  O94  1  0.92687767  0.78091033  0.79984833  1
  O  O95  1  0.14703733  0.46373167  0.97204967  1
  O  O96  1  0.17482967  0.72604933  0.76944833  1
  O  O97  1  0.53626833  0.68330567  0.97204967  1
  O  O98  1  0.31669433  0.85296267  0.97204967  1
