# generated using pymatgen
data_La2Ti3O9
_symmetry_space_group_name_H-M   'P 1'
_cell_length_a   16.52729000
_cell_length_b   5.50921000
_cell_length_c   9.59966585
_cell_angle_alpha   90.00000000
_cell_angle_beta   125.01196390
_cell_angle_gamma   90.00000000
_symmetry_Int_Tables_number   1
_chemical_formula_structural   La2Ti3O9
_chemical_formula_sum   'La8 Ti12 O36'
_cell_volume   715.89297057
_cell_formula_units_Z   4
loop_
 _symmetry_equiv_pos_site_id
 _symmetry_equiv_pos_as_xyz
  1  'x, y, z'
loop_
 _atom_site_type_symbol
 _atom_site_label
 _atom_site_symmetry_multiplicity
 _atom_site_fract_x
 _atom_site_fract_y
 _atom_site_fract_z
 _atom_site_occupancy
  La  La0  1  0.00000000  0.00000000  0.00000000  1
  La  La1  1  0.33303600  0.00000000  0.99922900  1
  La  La2  1  0.00000000  0.50000000  0.50000000  1
  La  La3  1  0.66696400  0.00000000  0.00077100  1
  La  La4  1  0.50000000  0.50000000  0.00000000  1
  La  La5  1  0.83303600  0.50000000  0.99922900  1
  La  La6  1  0.50000000  0.00000000  0.50000000  1
  La  La7  1  0.16696400  0.50000000  0.00077100  1
  Ti  Ti8  1  0.08213900  0.00000000  0.74541400  1
  Ti  Ti9  1  0.75155900  0.50000000  0.26528100  1
  Ti  Ti10  1  0.90942600  0.50000000  0.73938600  1
  Ti  Ti11  1  0.09057400  0.50000000  0.26061400  1
  Ti  Ti12  1  0.24844100  0.50000000  0.73471900  1
  Ti  Ti13  1  0.91786100  0.00000000  0.25458600  1
  Ti  Ti14  1  0.58213900  0.50000000  0.74541400  1
  Ti  Ti15  1  0.25155900  0.00000000  0.26528100  1
  Ti  Ti16  1  0.40942600  0.00000000  0.73938600  1
  Ti  Ti17  1  0.59057400  0.00000000  0.26061400  1
  Ti  Ti18  1  0.74844100  0.00000000  0.73471900  1
  Ti  Ti19  1  0.41786100  0.50000000  0.25458600  1
  O  O20  1  0.00000000  0.00000000  0.50000000  1
  O  O21  1  0.16782200  0.00000000  0.99872400  1
  O  O22  1  0.84582300  0.50000000  0.50115700  1
  O  O23  1  0.00811150  0.26072750  0.76441700  1
  O  O24  1  0.83248600  0.26176000  0.23781700  1
  O  O25  1  0.00000000  0.50000000  0.00000000  1
  O  O26  1  0.65821750  0.74887450  0.22458900  1
  O  O27  1  0.34178250  0.74887450  0.77541100  1
  O  O28  1  0.99188850  0.26072750  0.23558300  1
  O  O29  1  0.16751400  0.26176000  0.76218300  1
  O  O30  1  0.83248600  0.73824000  0.23781700  1
  O  O31  1  0.00811150  0.73927250  0.76441700  1
  O  O32  1  0.65821750  0.25112550  0.22458900  1
  O  O33  1  0.15417700  0.50000000  0.49884300  1
  O  O34  1  0.83217800  0.00000000  0.00127600  1
  O  O35  1  0.34178250  0.25112550  0.77541100  1
  O  O36  1  0.99188850  0.73927250  0.23558300  1
  O  O37  1  0.16751400  0.73824000  0.76218300  1
  O  O38  1  0.50000000  0.50000000  0.50000000  1
  O  O39  1  0.66782200  0.50000000  0.99872400  1
  O  O40  1  0.34582300  0.00000000  0.50115700  1
  O  O41  1  0.50811150  0.76072750  0.76441700  1
  O  O42  1  0.33248600  0.76176000  0.23781700  1
  O  O43  1  0.50000000  0.00000000  0.00000000  1
  O  O44  1  0.15821750  0.24887450  0.22458900  1
  O  O45  1  0.84178250  0.24887450  0.77541100  1
  O  O46  1  0.49188850  0.76072750  0.23558300  1
  O  O47  1  0.66751400  0.76176000  0.76218300  1
  O  O48  1  0.33248600  0.23824000  0.23781700  1
  O  O49  1  0.50811150  0.23927250  0.76441700  1
  O  O50  1  0.15821750  0.75112550  0.22458900  1
  O  O51  1  0.65417700  0.00000000  0.49884300  1
  O  O52  1  0.33217800  0.50000000  0.00127600  1
  O  O53  1  0.84178250  0.75112550  0.77541100  1
  O  O54  1  0.49188850  0.23927250  0.23558300  1
  O  O55  1  0.66751400  0.23824000  0.76218300  1
