# generated using pymatgen
data_Li2MnFe(BO3)2
_symmetry_space_group_name_H-M   'P 1'
_cell_length_a   8.25522900
_cell_length_b   3.16563100
_cell_length_c   14.29695623
_cell_angle_alpha   90.00000000
_cell_angle_beta   90.02372470
_cell_angle_gamma   90.00000000
_symmetry_Int_Tables_number   1
_chemical_formula_structural   Li2MnFe(BO3)2
_chemical_formula_sum   'Li6 Mn3 Fe3 B6 O18'
_cell_volume   373.62245132
_cell_formula_units_Z   3
loop_
 _symmetry_equiv_pos_site_id
 _symmetry_equiv_pos_as_xyz
  1  'x, y, z'
loop_
 _atom_site_type_symbol
 _atom_site_label
 _atom_site_symmetry_multiplicity
 _atom_site_fract_x
 _atom_site_fract_y
 _atom_site_fract_z
 _atom_site_occupancy
  Li  Li0  1  0.29281600  0.50000000  0.01017400  1
  Li  Li1  1  0.33931200  0.50000000  0.64080200  1
  Li  Li2  1  0.36549500  0.50000000  0.34925100  1
  Li  Li3  1  0.79321400  0.50000000  0.50692500  1
  Li  Li4  1  0.84192600  0.50000000  0.14368000  1
  Li  Li5  1  0.86710900  0.50000000  0.84930700  1
  Mn  Mn6  1  0.19135400  0.00000000  0.82017800  1
  Mn  Mn7  1  0.63434600  0.00000000  0.99479900  1
  Mn  Mn8  1  0.67429400  0.00000000  0.68563400  1
  Fe  Fe9  1  0.13643800  0.00000000  0.49510300  1
  Fe  Fe10  1  0.17566300  0.00000000  0.18386500  1
  Fe  Fe11  1  0.68774700  0.00000000  0.32044500  1
  B  B12  1  0.00027800  0.50000000  0.33320500  1
  B  B13  1  0.99949500  0.00000000  0.00123000  1
  B  B14  1  0.00110400  0.50000000  0.66546500  1
  B  B15  1  0.49985800  0.50000000  0.83332200  1
  B  B16  1  0.50015300  0.00000000  0.49885900  1
  B  B17  1  0.49920900  0.50000000  0.16782400  1
  O  O18  1  0.01181700  0.50000000  0.56850300  1
  O  O19  1  0.01921200  0.50000000  0.23643400  1
  O  O20  1  0.13632600  0.50000000  0.39112100  1
  O  O21  1  0.14077500  0.50000000  0.71947900  1
  O  O22  1  0.15333100  0.00000000  0.04162700  1
  O  O23  1  0.34782700  0.50000000  0.87542200  1
  O  O24  1  0.34754600  0.50000000  0.21002500  1
  O  O25  1  0.36128200  0.00000000  0.55453200  1
  O  O26  1  0.48538900  0.00000000  0.40194700  1
  O  O27  1  0.51080400  0.50000000  0.07095000  1
  O  O28  1  0.51286900  0.50000000  0.73625800  1
  O  O29  1  0.63871300  0.50000000  0.88831900  1
  O  O30  1  0.63902000  0.50000000  0.22209000  1
  O  O31  1  0.65305000  0.00000000  0.53957700  1
  O  O32  1  0.84565500  0.50000000  0.37219100  1
  O  O33  1  0.85076400  0.50000000  0.70898900  1
  O  O34  1  0.86327300  0.00000000  0.05828300  1
  O  O35  1  0.98253500  0.00000000  0.90419000  1
