# generated using pymatgen
data_Li5Fe7O3F13
_symmetry_space_group_name_H-M   'P 1'
_cell_length_a   10.74522600
_cell_length_b   6.07097000
_cell_length_c   10.80383049
_cell_angle_alpha   90.00000000
_cell_angle_beta   108.86196045
_cell_angle_gamma   90.00000000
_symmetry_Int_Tables_number   1
_chemical_formula_structural   Li5Fe7O3F13
_chemical_formula_sum   'Li10 Fe14 O6 F26'
_cell_volume   666.93012760
_cell_formula_units_Z   2
loop_
 _symmetry_equiv_pos_site_id
 _symmetry_equiv_pos_as_xyz
  1  'x, y, z'
loop_
 _atom_site_type_symbol
 _atom_site_label
 _atom_site_symmetry_multiplicity
 _atom_site_fract_x
 _atom_site_fract_y
 _atom_site_fract_z
 _atom_site_occupancy
  Li  Li0  1  0.51045000  0.50000000  0.01190900  1
  Li  Li1  1  0.61728800  0.50000000  0.36851600  1
  Li  Li2  1  0.59876500  0.00000000  0.86700900  1
  Li  Li3  1  0.52553300  0.00000000  0.49238300  1
  Li  Li4  1  0.55706200  0.00000000  0.19145000  1
  Li  Li5  1  0.01045000  0.00000000  0.01190900  1
  Li  Li6  1  0.11728800  0.00000000  0.36851600  1
  Li  Li7  1  0.09876500  0.50000000  0.86700900  1
  Li  Li8  1  0.02553300  0.50000000  0.49238300  1
  Li  Li9  1  0.05706200  0.50000000  0.19145000  1
  Fe  Fe10  1  0.81784800  0.50000000  0.93643000  1
  Fe  Fe11  1  0.56088200  0.50000000  0.68692700  1
  Fe  Fe12  1  0.81327950  0.25028650  0.68690400  1
  Fe  Fe13  1  0.81327950  0.74971350  0.68690400  1
  Fe  Fe14  1  0.81792150  0.20825350  0.19280100  1
  Fe  Fe15  1  0.81792150  0.79174650  0.19280100  1
  Fe  Fe16  1  0.81510100  0.00000000  0.43937100  1
  Fe  Fe17  1  0.31784800  0.00000000  0.93643000  1
  Fe  Fe18  1  0.06088200  0.00000000  0.68692700  1
  Fe  Fe19  1  0.31327950  0.75028650  0.68690400  1
  Fe  Fe20  1  0.31327950  0.24971350  0.68690400  1
  Fe  Fe21  1  0.31792150  0.70825350  0.19280100  1
  Fe  Fe22  1  0.31792150  0.29174650  0.19280100  1
  Fe  Fe23  1  0.31510100  0.50000000  0.43937100  1
  O  O24  1  0.90372400  0.50000000  0.80017400  1
  O  O25  1  0.72436900  0.00000000  0.57417400  1
  O  O26  1  0.92725200  0.00000000  0.32310800  1
  O  O27  1  0.40372400  0.00000000  0.80017400  1
  O  O28  1  0.22436900  0.50000000  0.57417400  1
  O  O29  1  0.42725200  0.50000000  0.32310800  1
  F  F30  1  0.67741200  0.50000000  0.56651000  1
  F  F31  1  0.94880800  0.74644900  0.56821400  1
  F  F32  1  0.94880800  0.25355100  0.56821400  1
  F  F33  1  0.67988850  0.25702950  0.81238900  1
  F  F34  1  0.67988850  0.74297050  0.81238900  1
  F  F35  1  0.70923200  0.50000000  0.06763200  1
  F  F36  1  0.93145800  0.50000000  0.29395100  1
  F  F37  1  0.95063300  0.00000000  0.81463100  1
  F  F38  1  0.93180500  0.25535000  0.06846200  1
  F  F39  1  0.93180500  0.74465000  0.06846200  1
  F  F40  1  0.68411500  0.76159200  0.29884300  1
  F  F41  1  0.68411500  0.23840800  0.29884300  1
  F  F42  1  0.67135700  0.00000000  0.06059600  1
  F  F43  1  0.17741200  0.00000000  0.56651000  1
  F  F44  1  0.44880800  0.24644900  0.56821400  1
  F  F45  1  0.44880800  0.75355100  0.56821400  1
  F  F46  1  0.17988850  0.75702950  0.81238900  1
  F  F47  1  0.17988850  0.24297050  0.81238900  1
  F  F48  1  0.20923200  0.00000000  0.06763200  1
  F  F49  1  0.43145800  0.00000000  0.29395100  1
  F  F50  1  0.45063300  0.50000000  0.81463100  1
  F  F51  1  0.43180500  0.75535000  0.06846200  1
  F  F52  1  0.43180500  0.24465000  0.06846200  1
  F  F53  1  0.18411500  0.26159200  0.29884300  1
  F  F54  1  0.18411500  0.73840800  0.29884300  1
  F  F55  1  0.17135700  0.50000000  0.06059600  1
