# generated using pymatgen
data_Rb3YO3
_symmetry_space_group_name_H-M   'P 1'
_cell_length_a   7.78034600
_cell_length_b   12.49575600
_cell_length_c   7.30328935
_cell_angle_alpha   90.00000000
_cell_angle_beta   99.07276387
_cell_angle_gamma   90.00000000
_symmetry_Int_Tables_number   1
_chemical_formula_structural   Rb3YO3
_chemical_formula_sum   'Rb12 Y4 O12'
_cell_volume   701.15198382
_cell_formula_units_Z   4
loop_
 _symmetry_equiv_pos_site_id
 _symmetry_equiv_pos_as_xyz
  1  'x, y, z'
loop_
 _atom_site_type_symbol
 _atom_site_label
 _atom_site_symmetry_multiplicity
 _atom_site_fract_x
 _atom_site_fract_y
 _atom_site_fract_z
 _atom_site_occupancy
  Rb  Rb0  1  0.36312000  0.00000000  0.64289700  1
  Rb  Rb1  1  0.50000000  0.29501500  0.50000000  1
  Rb  Rb2  1  0.50000000  0.70498500  0.50000000  1
  Rb  Rb3  1  0.50000000  0.76050300  0.00000000  1
  Rb  Rb4  1  0.50000000  0.23949700  0.00000000  1
  Rb  Rb5  1  0.63688000  0.00000000  0.35710300  1
  Rb  Rb6  1  0.86312000  0.50000000  0.64289700  1
  Rb  Rb7  1  0.00000000  0.79501500  0.50000000  1
  Rb  Rb8  1  0.00000000  0.20498500  0.50000000  1
  Rb  Rb9  1  0.00000000  0.26050300  0.00000000  1
  Rb  Rb10  1  0.00000000  0.73949700  0.00000000  1
  Rb  Rb11  1  0.13688000  0.50000000  0.35710300  1
  Y  Y12  1  0.17831100  0.00000000  0.14984800  1
  Y  Y13  1  0.82168900  0.00000000  0.85015200  1
  Y  Y14  1  0.67831100  0.50000000  0.14984800  1
  Y  Y15  1  0.32168900  0.50000000  0.85015200  1
  O  O16  1  0.10286900  0.00000000  0.84368000  1
  O  O17  1  0.30891800  0.86061000  0.26934600  1
  O  O18  1  0.30891800  0.13939000  0.26934600  1
  O  O19  1  0.69108200  0.13939000  0.73065400  1
  O  O20  1  0.69108200  0.86061000  0.73065400  1
  O  O21  1  0.89713100  0.00000000  0.15632000  1
  O  O22  1  0.60286900  0.50000000  0.84368000  1
  O  O23  1  0.80891800  0.36061000  0.26934600  1
  O  O24  1  0.80891800  0.63939000  0.26934600  1
  O  O25  1  0.19108200  0.63939000  0.73065400  1
  O  O26  1  0.19108200  0.36061000  0.73065400  1
  O  O27  1  0.39713100  0.50000000  0.15632000  1
