# generated using pymatgen
data_Na3CuO2
_symmetry_space_group_name_H-M   'P 1'
_cell_length_a   6.72947399
_cell_length_b   6.72947399
_cell_length_c   13.76271959
_cell_angle_alpha   90.00000000
_cell_angle_beta   90.00000000
_cell_angle_gamma   120.00000000
_symmetry_Int_Tables_number   1
_chemical_formula_structural   Na3CuO2
_chemical_formula_sum   'Na18 Cu6 O12'
_cell_volume   539.75556732
_cell_formula_units_Z   6
loop_
 _symmetry_equiv_pos_site_id
 _symmetry_equiv_pos_as_xyz
  1  'x, y, z'
loop_
 _atom_site_type_symbol
 _atom_site_label
 _atom_site_symmetry_multiplicity
 _atom_site_fract_x
 _atom_site_fract_y
 _atom_site_fract_z
 _atom_site_occupancy
  Na  Na0  1  0.74087900  0.74087900  0.25000000  1
  Na  Na1  1  0.40754567  0.33333333  0.08333333  1
  Na  Na2  1  0.66666667  0.07421233  0.08333333  1
  Na  Na3  1  0.00000000  0.25912100  0.25000000  1
  Na  Na4  1  0.25912100  0.00000000  0.25000000  1
  Na  Na5  1  0.92578767  0.59245433  0.08333333  1
  Na  Na6  1  0.40754567  0.07421233  0.58333333  1
  Na  Na7  1  0.07421233  0.66666667  0.41666667  1
  Na  Na8  1  0.33333333  0.40754567  0.41666667  1
  Na  Na9  1  0.66666667  0.59245433  0.58333333  1
  Na  Na10  1  0.92578767  0.33333333  0.58333333  1
  Na  Na11  1  0.59245433  0.92578767  0.41666667  1
  Na  Na12  1  0.07421233  0.40754567  0.91666667  1
  Na  Na13  1  0.74087900  0.00000000  0.75000000  1
  Na  Na14  1  0.00000000  0.74087900  0.75000000  1
  Na  Na15  1  0.33333333  0.92578767  0.91666667  1
  Na  Na16  1  0.59245433  0.66666667  0.91666667  1
  Na  Na17  1  0.25912100  0.25912100  0.75000000  1
  Cu  Cu18  1  0.00000000  0.00000000  0.00000000  1
  Cu  Cu19  1  0.33333333  0.66666667  0.16666667  1
  Cu  Cu20  1  0.66666667  0.33333333  0.33333333  1
  Cu  Cu21  1  0.00000000  0.00000000  0.50000000  1
  Cu  Cu22  1  0.33333333  0.66666667  0.66666667  1
  Cu  Cu23  1  0.66666667  0.33333333  0.83333333  1
  O  O24  1  0.33333333  0.66666667  0.03534567  1
  O  O25  1  0.33333333  0.66666667  0.53534567  1
  O  O26  1  0.33333333  0.66666667  0.29798767  1
  O  O27  1  0.33333333  0.66666667  0.79798767  1
  O  O28  1  0.00000000  0.00000000  0.36867900  1
  O  O29  1  0.00000000  0.00000000  0.86867900  1
  O  O30  1  0.00000000  0.00000000  0.63132100  1
  O  O31  1  1.00000000  0.00000000  0.13132100  1
  O  O32  1  0.66666667  0.33333333  0.70201233  1
  O  O33  1  0.66666667  0.33333333  0.20201233  1
  O  O34  1  0.66666667  0.33333333  0.96465433  1
  O  O35  1  0.66666667  0.33333333  0.46465433  1
