# generated using pymatgen
data_CsCa(NO2)3
_symmetry_space_group_name_H-M   'P 1'
_cell_length_a   7.91137805
_cell_length_b   7.91137805
_cell_length_c   9.75422429
_cell_angle_alpha   90.00000000
_cell_angle_beta   90.00000000
_cell_angle_gamma   120.00000000
_symmetry_Int_Tables_number   1
_chemical_formula_structural   CsCa(NO2)3
_chemical_formula_sum   'Cs3 Ca3 N9 O18'
_cell_volume   528.72232141
_cell_formula_units_Z   3
loop_
 _symmetry_equiv_pos_site_id
 _symmetry_equiv_pos_as_xyz
  1  'x, y, z'
loop_
 _atom_site_type_symbol
 _atom_site_label
 _atom_site_symmetry_multiplicity
 _atom_site_fract_x
 _atom_site_fract_y
 _atom_site_fract_z
 _atom_site_occupancy
  Cs  Cs0  1  0.33333333  0.66666667  0.66650967  1
  Cs  Cs1  1  0.00000000  0.00000000  0.99984300  1
  Cs  Cs2  1  0.66666667  0.33333333  0.33317633  1
  Ca  Ca3  1  0.33333333  0.66666667  0.13423467  1
  Ca  Ca4  1  0.00000000  0.00000000  0.46756800  1
  Ca  Ca5  1  0.66666667  0.33333333  0.80090133  1
  N  N6  1  0.20452000  0.38178600  0.31246800  1
  N  N7  1  0.17726600  0.79548000  0.31246800  1
  N  N8  1  0.61821400  0.82273400  0.31246800  1
  N  N9  1  0.87118667  0.71511933  0.64580133  1
  N  N10  1  0.84393267  0.12881333  0.64580133  1
  N  N11  1  0.28488067  0.15606733  0.64580133  1
  N  N12  1  0.53785333  0.04845267  0.97913467  1
  N  N13  1  0.51059933  0.46214667  0.97913467  1
  N  N14  1  0.95154733  0.48940067  0.97913467  1
  O  O15  1  0.97098600  0.40620800  0.08425500  1
  O  O16  1  0.59379200  0.56477800  0.08425500  1
  O  O17  1  0.34447367  0.44306333  0.95132733  1
  O  O18  1  0.09858967  0.65552633  0.95132733  1
  O  O19  1  0.43522200  0.02901400  0.08425500  1
  O  O20  1  0.55693667  0.90141033  0.95132733  1
  O  O21  1  0.63765267  0.73954133  0.41758833  1
  O  O22  1  0.26045867  0.89811133  0.41758833  1
  O  O23  1  0.01114033  0.77639667  0.28466067  1
  O  O24  1  0.76525633  0.98885967  0.28466067  1
  O  O25  1  0.10188867  0.36234733  0.41758833  1
  O  O26  1  0.22360333  0.23474367  0.28466067  1
  O  O27  1  0.30431933  0.07287467  0.75092167  1
  O  O28  1  0.92712533  0.23144467  0.75092167  1
  O  O29  1  0.67780700  0.10973000  0.61799400  1
  O  O30  1  0.43192300  0.32219300  0.61799400  1
  O  O31  1  0.76855533  0.69568067  0.75092167  1
  O  O32  1  0.89027000  0.56807700  0.61799400  1
