# generated using pymatgen
data_Li2TiMn2O6
_symmetry_space_group_name_H-M   'P 1'
_cell_length_a   5.44016206
_cell_length_b   8.69466344
_cell_length_c   10.27062100
_cell_angle_alpha   90.00000000
_cell_angle_beta   90.00000000
_cell_angle_gamma   90.00000000
_symmetry_Int_Tables_number   1
_chemical_formula_structural   Li2TiMn2O6
_chemical_formula_sum   'Li8 Ti4 Mn8 O24'
_cell_volume   485.80425756
_cell_formula_units_Z   4
loop_
 _symmetry_equiv_pos_site_id
 _symmetry_equiv_pos_as_xyz
  1  'x, y, z'
loop_
 _atom_site_type_symbol
 _atom_site_label
 _atom_site_symmetry_multiplicity
 _atom_site_fract_x
 _atom_site_fract_y
 _atom_site_fract_z
 _atom_site_occupancy
  Li  Li0  1  0.35141550  0.25000000  0.75000000  1
  Li  Li1  1  0.64858450  0.25000000  0.25000000  1
  Li  Li2  1  0.35141550  0.75000000  0.75000000  1
  Li  Li3  1  0.64858450  0.75000000  0.25000000  1
  Li  Li4  1  0.85141550  0.75000000  0.75000000  1
  Li  Li5  1  0.14858450  0.75000000  0.25000000  1
  Li  Li6  1  0.85141550  0.25000000  0.75000000  1
  Li  Li7  1  0.14858450  0.25000000  0.25000000  1
  Ti  Ti8  1  0.50000000  0.00000000  0.00000000  1
  Ti  Ti9  1  0.50000000  0.50000000  0.50000000  1
  Ti  Ti10  1  0.00000000  0.50000000  0.00000000  1
  Ti  Ti11  1  0.00000000  0.00000000  0.50000000  1
  Mn  Mn12  1  0.50000000  0.33558050  0.00000000  1
  Mn  Mn13  1  0.50000000  0.83558050  0.50000000  1
  Mn  Mn14  1  0.50000000  0.16441950  0.50000000  1
  Mn  Mn15  1  0.50000000  0.66441950  0.00000000  1
  Mn  Mn16  1  0.00000000  0.83558050  0.00000000  1
  Mn  Mn17  1  0.00000000  0.33558050  0.50000000  1
  Mn  Mn18  1  0.00000000  0.66441950  0.50000000  1
  Mn  Mn19  1  0.00000000  0.16441950  0.00000000  1
  O  O20  1  0.17163100  0.50000000  0.59036800  1
  O  O21  1  0.32836900  0.50000000  0.09036800  1
  O  O22  1  0.67163100  0.50000000  0.90963200  1
  O  O23  1  0.82836900  0.50000000  0.40963200  1
  O  O24  1  0.37776200  0.17078350  0.11108500  1
  O  O25  1  0.62223800  0.82921650  0.88891500  1
  O  O26  1  0.37776200  0.32921650  0.38891500  1
  O  O27  1  0.62223800  0.32921650  0.61108500  1
  O  O28  1  0.62223800  0.17078350  0.88891500  1
  O  O29  1  0.37776200  0.67078350  0.38891500  1
  O  O30  1  0.62223800  0.67078350  0.61108500  1
  O  O31  1  0.37776200  0.82921650  0.11108500  1
  O  O32  1  0.67163100  0.00000000  0.59036800  1
  O  O33  1  0.82836900  0.00000000  0.09036800  1
  O  O34  1  0.17163100  0.00000000  0.90963200  1
  O  O35  1  0.32836900  0.00000000  0.40963200  1
  O  O36  1  0.87776200  0.67078350  0.11108500  1
  O  O37  1  0.12223800  0.32921650  0.88891500  1
  O  O38  1  0.87776200  0.82921650  0.38891500  1
  O  O39  1  0.12223800  0.82921650  0.61108500  1
  O  O40  1  0.12223800  0.67078350  0.88891500  1
  O  O41  1  0.87776200  0.17078350  0.38891500  1
  O  O42  1  0.12223800  0.17078350  0.61108500  1
  O  O43  1  0.87776200  0.32921650  0.11108500  1
