# generated using pymatgen
data_InP2H9(NO4)2
_symmetry_space_group_name_H-M   'P 1'
_cell_length_a   9.33565400
_cell_length_b   17.70306400
_cell_length_c   6.75537996
_cell_angle_alpha   90.00000000
_cell_angle_beta   133.54981103
_cell_angle_gamma   90.00000000
_symmetry_Int_Tables_number   1
_chemical_formula_structural   InP2H9(NO4)2
_chemical_formula_sum   'In4 P8 H36 N8 O32'
_cell_volume   809.18266588
_cell_formula_units_Z   4
loop_
 _symmetry_equiv_pos_site_id
 _symmetry_equiv_pos_as_xyz
  1  'x, y, z'
loop_
 _atom_site_type_symbol
 _atom_site_label
 _atom_site_symmetry_multiplicity
 _atom_site_fract_x
 _atom_site_fract_y
 _atom_site_fract_z
 _atom_site_occupancy
  In  In0  1  0.77233950  0.12477050  0.29228800  1
  In  In1  1  0.27233950  0.37522950  0.79228800  1
  In  In2  1  0.27233950  0.62477050  0.29228800  1
  In  In3  1  0.77233950  0.87522950  0.79228800  1
  P  P4  1  0.78413750  0.32929450  0.24640800  1
  P  P5  1  0.28413750  0.17070550  0.74640800  1
  P  P6  1  0.71112300  0.07906000  0.74303500  1
  P  P7  1  0.21112300  0.42094000  0.24303500  1
  P  P8  1  0.28413750  0.82929450  0.24640800  1
  P  P9  1  0.78413750  0.67070550  0.74640800  1
  P  P10  1  0.21112300  0.57906000  0.74303500  1
  P  P11  1  0.71112300  0.92094000  0.24303500  1
  H  H12  1  0.43630000  0.30761700  0.36192200  1
  H  H13  1  0.63307750  0.26875050  0.43016300  1
  H  H14  1  0.01380200  0.28360600  0.97920300  1
  H  H15  1  0.64472050  0.28755150  0.69317700  1
  H  H16  1  0.14472050  0.21244850  0.19317700  1
  H  H17  1  0.51380200  0.21639400  0.47920300  1
  H  H18  1  0.13307750  0.23124950  0.93016300  1
  H  H19  1  0.93630000  0.19238300  0.86192200  1
  H  H20  1  0.39882850  0.12803450  0.55384300  1
  H  H21  1  0.17380500  0.05816700  0.86347100  1
  H  H22  1  0.05043550  0.01766250  0.93801500  1
  H  H23  1  0.21012200  0.03409100  0.46623900  1
  H  H24  1  0.30277350  0.03680450  0.19678000  1
  H  H25  1  0.80277350  0.46319550  0.69678000  1
  H  H26  1  0.71012200  0.46590900  0.96623900  1
  H  H27  1  0.55043550  0.48233750  0.43801500  1
  H  H28  1  0.67380500  0.44183300  0.36347100  1
  H  H29  1  0.89882850  0.37196550  0.05384300  1
  H  H30  1  0.93630000  0.80761700  0.36192200  1
  H  H31  1  0.13307750  0.76875050  0.43016300  1
  H  H32  1  0.51380200  0.78360600  0.97920300  1
  H  H33  1  0.14472050  0.78755150  0.69317700  1
  H  H34  1  0.64472050  0.71244850  0.19317700  1
  H  H35  1  0.01380200  0.71639400  0.47920300  1
  H  H36  1  0.63307750  0.73124950  0.93016300  1
  H  H37  1  0.43630000  0.69238300  0.86192200  1
  H  H38  1  0.89882850  0.62803450  0.55384300  1
  H  H39  1  0.67380500  0.55816700  0.86347100  1
  H  H40  1  0.55043550  0.51766250  0.93801500  1
  H  H41  1  0.71012200  0.53409100  0.46623900  1
  H  H42  1  0.80277350  0.53680450  0.19678000  1
  H  H43  1  0.30277350  0.96319550  0.69678000  1
  H  H44  1  0.21012200  0.96590900  0.96623900  1
  H  H45  1  0.05043550  0.98233750  0.43801500  1
  H  H46  1  0.17380500  0.94183300  0.36347100  1
  H  H47  1  0.39882850  0.87196550  0.05384300  1
  N  N48  1  0.55652100  0.27027800  0.49089000  1
  N  N49  1  0.05652100  0.22972200  0.99089000  1
  N  N50  1  0.18581550  0.02015850  0.99361100  1
  N  N51  1  0.68581550  0.47984150  0.49361100  1
  N  N52  1  0.05652100  0.77027800  0.49089000  1
  N  N53  1  0.55652100  0.72972200  0.99089000  1
  N  N54  1  0.68581550  0.52015850  0.99361100  1
  N  N55  1  0.18581550  0.97984150  0.49361100  1
  O  O56  1  0.95558550  0.37488550  0.49759000  1
  O  O57  1  0.59497200  0.37576300  0.11572400  1
  O  O58  1  0.80935600  0.32539900  0.03690700  1
  O  O59  1  0.26873950  0.25208550  0.82236400  1
  O  O60  1  0.76873950  0.24791450  0.32236400  1
  O  O61  1  0.30935600  0.17460100  0.53690700  1
  O  O62  1  0.45558550  0.12511450  0.99759000  1
  O  O63  1  0.09497200  0.12423700  0.61572400  1
  O  O64  1  0.79138500  0.12509000  0.99575000  1
  O  O65  1  0.77496050  0.12582050  0.61812100  1
  O  O66  1  0.47998600  0.07525900  0.53454600  1
  O  O67  1  0.80875400  0.00148000  0.32747800  1
  O  O68  1  0.30875400  0.49852000  0.82747800  1
  O  O69  1  0.97998600  0.42474100  0.03454600  1
  O  O70  1  0.29138500  0.37491000  0.49575000  1
  O  O71  1  0.27496050  0.37417950  0.11812100  1
  O  O72  1  0.45558550  0.87488550  0.49759000  1
  O  O73  1  0.09497200  0.87576300  0.11572400  1
  O  O74  1  0.30935600  0.82539900  0.03690700  1
  O  O75  1  0.76873950  0.75208550  0.82236400  1
  O  O76  1  0.26873950  0.74791450  0.32236400  1
  O  O77  1  0.80935600  0.67460100  0.53690700  1
  O  O78  1  0.95558550  0.62511450  0.99759000  1
  O  O79  1  0.59497200  0.62423700  0.61572400  1
  O  O80  1  0.29138500  0.62509000  0.99575000  1
  O  O81  1  0.27496050  0.62582050  0.61812100  1
  O  O82  1  0.97998600  0.57525900  0.53454600  1
  O  O83  1  0.30875400  0.50148000  0.32747800  1
  O  O84  1  0.80875400  0.99852000  0.82747800  1
  O  O85  1  0.47998600  0.92474100  0.03454600  1
  O  O86  1  0.79138500  0.87491000  0.49575000  1
  O  O87  1  0.77496050  0.87417950  0.11812100  1
