# generated using pymatgen
data_V3(PO4)2
_symmetry_space_group_name_H-M   'P 1'
_cell_length_a   8.79027991
_cell_length_b   9.34978781
_cell_length_c   9.70916895
_cell_angle_alpha   116.71194822
_cell_angle_beta   92.42121237
_cell_angle_gamma   113.47214694
_symmetry_Int_Tables_number   1
_chemical_formula_structural   V3(PO4)2
_chemical_formula_sum   'V12 P8 O32'
_cell_volume   629.53081151
_cell_formula_units_Z   4
loop_
 _symmetry_equiv_pos_site_id
 _symmetry_equiv_pos_as_xyz
  1  'x, y, z'
loop_
 _atom_site_type_symbol
 _atom_site_label
 _atom_site_symmetry_multiplicity
 _atom_site_fract_x
 _atom_site_fract_y
 _atom_site_fract_z
 _atom_site_occupancy
  V  V0  1  0.00152868  0.73364398  0.53462457  1
  V  V1  1  0.06983858  0.44749950  0.89229795  1
  V  V2  1  0.11451911  0.02652791  0.16224283  1
  V  V3  1  0.40312152  0.47710537  0.32361630  1
  V  V4  1  0.51885617  0.06721681  0.82568196  1
  V  V5  1  0.39833742  0.73832206  0.73758095  1
  V  V6  1  0.60166258  0.26167794  0.26241905  1
  V  V7  1  0.48114383  0.93278319  0.17431804  1
  V  V8  1  0.59687848  0.52289463  0.67638370  1
  V  V9  1  0.88548089  0.97347209  0.83775717  1
  V  V10  1  0.93016142  0.55250050  0.10770205  1
  V  V11  1  0.99847132  0.26635602  0.46537543  1
  P  P12  1  0.17565065  0.75299482  0.93190222  1
  P  P13  1  0.27477663  0.11320856  0.44991381  1
  P  P14  1  0.23626043  0.66606953  0.39785153  1
  P  P15  1  0.31658298  0.26712887  0.90376089  1
  P  P16  1  0.68341702  0.73287113  0.09623911  1
  P  P17  1  0.76373957  0.33393047  0.60214847  1
  P  P18  1  0.72522337  0.88679144  0.55008619  1
  P  P19  1  0.82434935  0.24700518  0.06809778  1
  O  O20  1  0.07217553  0.53682529  0.34623212  1
  O  O21  1  0.00524996  0.77858465  0.91596658  1
  O  O22  1  0.22653502  0.25136446  0.45765791  1
  O  O23  1  0.19016198  0.57679750  0.07993751  1
  O  O24  1  0.16132258  0.72244556  0.78415493  1
  O  O25  1  0.32605057  0.90273694  0.95073044  1
  O  O26  1  0.11017121  0.98697503  0.39384959  1
  O  O27  1  0.13165823  0.14626857  0.89797123  1
  O  O28  1  0.38640137  0.01284229  0.61250301  1
  O  O29  1  0.22150666  0.68711366  0.53513467  1
  O  O30  1  0.36902484  0.22069911  0.31351981  1
  O  O31  1  0.30855423  0.44471453  0.87550463  1
  O  O32  1  0.60049505  0.39629781  0.54742237  1
  O  O33  1  0.59569299  0.71075123  0.21427197  1
  O  O34  1  0.24905744  0.83628601  0.24848134  1
  O  O35  1  0.57911325  0.82144164  0.91904443  1
  O  O36  1  0.42088675  0.17855836  0.08095557  1
  O  O37  1  0.75094256  0.16371399  0.75151866  1
  O  O38  1  0.40430701  0.28924877  0.78572803  1
  O  O39  1  0.39950495  0.60370219  0.45257763  1
  O  O40  1  0.69144577  0.55528547  0.12449537  1
  O  O41  1  0.63097516  0.77930089  0.68648019  1
  O  O42  1  0.77849334  0.31288634  0.46486533  1
  O  O43  1  0.61359863  0.98715771  0.38749699  1
  O  O44  1  0.86834177  0.85373143  0.10202877  1
  O  O45  1  0.88982879  0.01302497  0.60615041  1
  O  O46  1  0.67394943  0.09726306  0.04926956  1
  O  O47  1  0.83867742  0.27755444  0.21584507  1
  O  O48  1  0.80983802  0.42320250  0.92006249  1
  O  O49  1  0.77346498  0.74863554  0.54234209  1
  O  O50  1  0.99475004  0.22141535  0.08403342  1
  O  O51  1  0.92782447  0.46317471  0.65376788  1
