# generated using pymatgen
data_Na2FePCO7
_symmetry_space_group_name_H-M   'P 1'
_cell_length_a   5.20928900
_cell_length_b   6.56109700
_cell_length_c   17.82061683
_cell_angle_alpha   90.00000000
_cell_angle_beta   90.29972316
_cell_angle_gamma   90.00000000
_symmetry_Int_Tables_number   1
_chemical_formula_structural   Na2FePCO7
_chemical_formula_sum   'Na8 Fe4 P4 C4 O28'
_cell_volume   609.07629930
_cell_formula_units_Z   4
loop_
 _symmetry_equiv_pos_site_id
 _symmetry_equiv_pos_as_xyz
  1  'x, y, z'
loop_
 _atom_site_type_symbol
 _atom_site_label
 _atom_site_symmetry_multiplicity
 _atom_site_fract_x
 _atom_site_fract_y
 _atom_site_fract_z
 _atom_site_occupancy
  Na  Na0  1  0.76502000  0.75589200  0.20961300  1
  Na  Na1  1  0.25148200  0.51029800  0.11902000  1
  Na  Na2  1  0.74851800  0.48970200  0.88098000  1
  Na  Na3  1  0.23498000  0.24410800  0.79038700  1
  Na  Na4  1  0.76502000  0.74410800  0.70961300  1
  Na  Na5  1  0.25148200  0.98970200  0.61902000  1
  Na  Na6  1  0.74851800  0.01029800  0.38098000  1
  Na  Na7  1  0.23498000  0.25589200  0.29038700  1
  Fe  Fe8  1  0.78520700  0.23794800  0.07693100  1
  Fe  Fe9  1  0.21479300  0.76205200  0.92306900  1
  Fe  Fe10  1  0.78520700  0.26205200  0.57693100  1
  Fe  Fe11  1  0.21479300  0.73794800  0.42306900  1
  P  P12  1  0.70722400  0.74776000  0.03857600  1
  P  P13  1  0.29277600  0.25224000  0.96142400  1
  P  P14  1  0.70722400  0.75224000  0.53857600  1
  P  P15  1  0.29277600  0.24776000  0.46142400  1
  C  C16  1  0.73000600  0.25345900  0.21808800  1
  C  C17  1  0.26999400  0.74654100  0.78191200  1
  C  C18  1  0.73000600  0.24654100  0.71808800  1
  C  C19  1  0.26999400  0.75345900  0.28191200  1
  O  O20  1  0.29340400  0.73961800  0.21146400  1
  O  O21  1  0.95626000  0.25948300  0.18532900  1
  O  O22  1  0.53302300  0.25861200  0.17195100  1
  O  O23  1  0.76550700  0.93789200  0.08719800  1
  O  O24  1  0.77130800  0.56216800  0.08991800  1
  O  O25  1  0.13455900  0.25682700  0.03454300  1
  O  O26  1  0.41672500  0.73865200  0.01691300  1
  O  O27  1  0.58327500  0.26134800  0.98308700  1
  O  O28  1  0.86544100  0.74317300  0.96545700  1
  O  O29  1  0.22869200  0.43783200  0.91008200  1
  O  O30  1  0.23449300  0.06210800  0.91280200  1
  O  O31  1  0.46697700  0.74138800  0.82804900  1
  O  O32  1  0.04374000  0.74051700  0.81467100  1
  O  O33  1  0.70659600  0.26038200  0.78853600  1
  O  O34  1  0.29340400  0.76038200  0.71146400  1
  O  O35  1  0.95626000  0.24051700  0.68532900  1
  O  O36  1  0.53302300  0.24138800  0.67195100  1
  O  O37  1  0.77130800  0.93783200  0.58991800  1
  O  O38  1  0.76550700  0.56210800  0.58719800  1
  O  O39  1  0.13455900  0.24317300  0.53454300  1
  O  O40  1  0.41672500  0.76134800  0.51691300  1
  O  O41  1  0.58327500  0.23865200  0.48308700  1
  O  O42  1  0.86544100  0.75682700  0.46545700  1
  O  O43  1  0.23449300  0.43789200  0.41280200  1
  O  O44  1  0.22869200  0.06216800  0.41008200  1
  O  O45  1  0.46697700  0.75861200  0.32804900  1
  O  O46  1  0.04374000  0.75948300  0.31467100  1
  O  O47  1  0.70659600  0.23961800  0.28853600  1
