# generated using pymatgen
data_Ba4Tm6O13
_symmetry_space_group_name_H-M   'P 1'
_cell_length_a   6.06546000
_cell_length_b   12.33359000
_cell_length_c   21.27504800
_cell_angle_alpha   90.00000000
_cell_angle_beta   90.00000000
_cell_angle_gamma   90.00000000
_symmetry_Int_Tables_number   1
_chemical_formula_structural   Ba4Tm6O13
_chemical_formula_sum   'Ba16 Tm24 O52'
_cell_volume   1591.56287028
_cell_formula_units_Z   4
loop_
 _symmetry_equiv_pos_site_id
 _symmetry_equiv_pos_as_xyz
  1  'x, y, z'
loop_
 _atom_site_type_symbol
 _atom_site_label
 _atom_site_symmetry_multiplicity
 _atom_site_fract_x
 _atom_site_fract_y
 _atom_site_fract_z
 _atom_site_occupancy
  Ba  Ba0  1  0.50070900  0.63368900  0.34097100  1
  Ba  Ba1  1  0.49991800  0.61991700  0.16608100  1
  Ba  Ba2  1  0.99991800  0.38008300  0.16608100  1
  Ba  Ba3  1  0.00070900  0.36631100  0.34097100  1
  Ba  Ba4  1  0.50070900  0.13368900  0.15902900  1
  Ba  Ba5  1  0.49991800  0.11991700  0.33391900  1
  Ba  Ba6  1  0.99991800  0.88008300  0.33391900  1
  Ba  Ba7  1  0.00070900  0.86631100  0.15902900  1
  Ba  Ba8  1  0.00070900  0.13368900  0.84097100  1
  Ba  Ba9  1  0.99991800  0.11991700  0.66608100  1
  Ba  Ba10  1  0.49991800  0.88008300  0.66608100  1
  Ba  Ba11  1  0.50070900  0.86631100  0.84097100  1
  Ba  Ba12  1  0.00070900  0.63368900  0.65902900  1
  Ba  Ba13  1  0.99991800  0.61991700  0.83391900  1
  Ba  Ba14  1  0.49991800  0.38008300  0.83391900  1
  Ba  Ba15  1  0.50070900  0.36631100  0.65902900  1
  Tm  Tm16  1  0.57381400  0.87281600  0.03646000  1
  Tm  Tm17  1  0.99939350  0.62387450  0.25570650  1
  Tm  Tm18  1  0.01062400  0.60456400  0.04995300  1
  Tm  Tm19  1  0.51062400  0.39543600  0.04995300  1
  Tm  Tm20  1  0.49939350  0.37612550  0.25570650  1
  Tm  Tm21  1  0.57381400  0.37281600  0.46354000  1
  Tm  Tm22  1  0.07381400  0.12718400  0.03646000  1
  Tm  Tm23  1  0.99939350  0.12387450  0.24429350  1
  Tm  Tm24  1  0.01062400  0.10456400  0.45004700  1
  Tm  Tm25  1  0.51062400  0.89543600  0.45004700  1
  Tm  Tm26  1  0.49939350  0.87612550  0.24429350  1
  Tm  Tm27  1  0.07381400  0.62718400  0.46354000  1
  Tm  Tm28  1  0.07381400  0.37281600  0.53646000  1
  Tm  Tm29  1  0.49939350  0.12387450  0.75570650  1
  Tm  Tm30  1  0.51062400  0.10456400  0.54995300  1
  Tm  Tm31  1  0.01062400  0.89543600  0.54995300  1
  Tm  Tm32  1  0.99939350  0.87612550  0.75570650  1
  Tm  Tm33  1  0.07381400  0.87281600  0.96354000  1
  Tm  Tm34  1  0.57381400  0.62718400  0.53646000  1
  Tm  Tm35  1  0.49939350  0.62387450  0.74429350  1
  Tm  Tm36  1  0.51062400  0.60456400  0.95004700  1
  Tm  Tm37  1  0.01062400  0.39543600  0.95004700  1
  Tm  Tm38  1  0.99939350  0.37612550  0.74429350  1
  Tm  Tm39  1  0.57381400  0.12718400  0.96354000  1
  O  O40  1  0.31044100  0.00000000  0.00000000  1
  O  O41  1  0.81044100  0.00000000  0.00000000  1
  O  O42  1  0.51535350  0.86904750  0.13327050  1
  O  O43  1  0.87972950  0.77335250  0.03028650  1
  O  O44  1  0.25078100  0.74896600  0.24534000  1
  O  O45  1  0.97478500  0.62086400  0.14760900  1
  O  O46  1  0.36447150  0.56624850  0.05022350  1
  O  O47  1  0.25450600  0.50224200  0.25967600  1
  O  O48  1  0.75450600  0.49775800  0.25967600  1
  O  O49  1  0.86447150  0.43375150  0.05022350  1
  O  O50  1  0.51535350  0.36904750  0.36672950  1
  O  O51  1  0.47478500  0.37913600  0.14760900  1
  O  O52  1  0.87972950  0.27335250  0.46971350  1
  O  O53  1  0.75078100  0.25103400  0.24534000  1
  O  O54  1  0.25078100  0.24896600  0.25466000  1
  O  O55  1  0.37972950  0.22664750  0.03028650  1
  O  O56  1  0.97478500  0.12086400  0.35239100  1
  O  O57  1  0.01535350  0.13095250  0.13327050  1
  O  O58  1  0.36447150  0.06624850  0.44977650  1
  O  O59  1  0.25450600  0.00224200  0.24032400  1
  O  O60  1  0.75450600  0.99775800  0.24032400  1
  O  O61  1  0.86447150  0.93375150  0.44977650  1
  O  O62  1  0.47478500  0.87913600  0.35239100  1
  O  O63  1  0.75078100  0.75103400  0.25466000  1
  O  O64  1  0.37972950  0.72664750  0.46971350  1
  O  O65  1  0.01535350  0.63095250  0.36672950  1
  O  O66  1  0.81044100  0.50000000  0.50000000  1
  O  O67  1  0.31044100  0.50000000  0.50000000  1
  O  O68  1  0.01535350  0.36904750  0.63327050  1
  O  O69  1  0.37972950  0.27335250  0.53028650  1
  O  O70  1  0.75078100  0.24896600  0.74534000  1
  O  O71  1  0.47478500  0.12086400  0.64760900  1
  O  O72  1  0.86447150  0.06624850  0.55022350  1
  O  O73  1  0.75450600  0.00224200  0.75967600  1
  O  O74  1  0.25450600  0.99775800  0.75967600  1
  O  O75  1  0.36447150  0.93375150  0.55022350  1
  O  O76  1  0.01535350  0.86904750  0.86672950  1
  O  O77  1  0.97478500  0.87913600  0.64760900  1
  O  O78  1  0.37972950  0.77335250  0.96971350  1
  O  O79  1  0.25078100  0.75103400  0.74534000  1
  O  O80  1  0.75078100  0.74896600  0.75466000  1
  O  O81  1  0.87972950  0.72664750  0.53028650  1
  O  O82  1  0.47478500  0.62086400  0.85239100  1
  O  O83  1  0.51535350  0.63095250  0.63327050  1
  O  O84  1  0.86447150  0.56624850  0.94977650  1
  O  O85  1  0.75450600  0.50224200  0.74032400  1
  O  O86  1  0.25450600  0.49775800  0.74032400  1
  O  O87  1  0.36447150  0.43375150  0.94977650  1
  O  O88  1  0.97478500  0.37913600  0.85239100  1
  O  O89  1  0.25078100  0.25103400  0.75466000  1
  O  O90  1  0.87972950  0.22664750  0.96971350  1
  O  O91  1  0.51535350  0.13095250  0.86672950  1
