# generated using pymatgen
data_K2Be2PbF8
_symmetry_space_group_name_H-M   'P 1'
_cell_length_a   5.52817039
_cell_length_b   5.52817039
_cell_length_c   20.78828917
_cell_angle_alpha   90.00000000
_cell_angle_beta   90.00000000
_cell_angle_gamma   120.00000000
_symmetry_Int_Tables_number   1
_chemical_formula_structural   K2Be2PbF8
_chemical_formula_sum   'K6 Be6 Pb3 F24'
_cell_volume   550.18940315
_cell_formula_units_Z   3
loop_
 _symmetry_equiv_pos_site_id
 _symmetry_equiv_pos_as_xyz
  1  'x, y, z'
loop_
 _atom_site_type_symbol
 _atom_site_label
 _atom_site_symmetry_multiplicity
 _atom_site_fract_x
 _atom_site_fract_y
 _atom_site_fract_z
 _atom_site_occupancy
  K  K0  1  0.66666667  0.33333333  0.13010433  1
  K  K1  1  0.00000000  0.00000000  0.20322900  1
  K  K2  1  0.33333333  0.66666667  0.46343767  1
  K  K3  1  0.66666667  0.33333333  0.53656233  1
  K  K4  1  0.00000000  0.00000000  0.79677100  1
  K  K5  1  0.33333333  0.66666667  0.86989567  1
  Be  Be6  1  0.33333333  0.66666667  0.06845967  1
  Be  Be7  1  0.33333333  0.66666667  0.26487367  1
  Be  Be8  1  0.00000000  0.00000000  0.40179300  1
  Be  Be9  1  0.00000000  0.00000000  0.59820700  1
  Be  Be10  1  0.66666667  0.33333333  0.73512633  1
  Be  Be11  1  0.66666667  0.33333333  0.93154033  1
  Pb  Pb12  1  0.00000000  0.00000000  0.00000000  1
  Pb  Pb13  1  0.66666667  0.33333333  0.33333333  1
  Pb  Pb14  1  0.33333333  0.66666667  0.66666667  1
  F  F15  1  0.17806200  0.82193800  0.09365200  1
  F  F16  1  0.17806200  0.35612400  0.09365200  1
  F  F17  1  0.64387600  0.82193800  0.09365200  1
  F  F18  1  0.66666667  0.33333333  0.00588933  1
  F  F19  1  0.00000000  0.00000000  0.32744400  1
  F  F20  1  0.48860467  0.97720933  0.23968133  1
  F  F21  1  0.02279067  0.51139533  0.23968133  1
  F  F22  1  0.48860467  0.51139533  0.23968133  1
  F  F23  1  0.84472867  0.15527133  0.42698533  1
  F  F24  1  0.84472867  0.68945733  0.42698533  1
  F  F25  1  0.31054267  0.15527133  0.42698533  1
  F  F26  1  0.33333333  0.66666667  0.33922267  1
  F  F27  1  0.66666667  0.33333333  0.66077733  1
  F  F28  1  0.15527133  0.31054267  0.57301467  1
  F  F29  1  0.68945733  0.84472867  0.57301467  1
  F  F30  1  0.15527133  0.84472867  0.57301467  1
  F  F31  1  0.51139533  0.48860467  0.76031867  1
  F  F32  1  0.51139533  0.02279067  0.76031867  1
  F  F33  1  0.97720933  0.48860467  0.76031867  1
  F  F34  1  0.00000000  0.00000000  0.67255600  1
  F  F35  1  0.33333333  0.66666667  0.99411067  1
  F  F36  1  0.82193800  0.64387600  0.90634800  1
  F  F37  1  0.35612400  0.17806200  0.90634800  1
  F  F38  1  0.82193800  0.17806200  0.90634800  1
