# generated using pymatgen
data_Li4TiS4
_symmetry_space_group_name_H-M   'P 1'
_cell_length_a   9.26107200
_cell_length_b   9.67868000
_cell_length_c   7.82441100
_cell_angle_alpha   90.00000000
_cell_angle_beta   90.00000000
_cell_angle_gamma   90.00000000
_symmetry_Int_Tables_number   1
_chemical_formula_structural   Li4TiS4
_chemical_formula_sum   'Li16 Ti4 S16'
_cell_volume   701.34070711
_cell_formula_units_Z   4
loop_
 _symmetry_equiv_pos_site_id
 _symmetry_equiv_pos_as_xyz
  1  'x, y, z'
loop_
 _atom_site_type_symbol
 _atom_site_label
 _atom_site_symmetry_multiplicity
 _atom_site_fract_x
 _atom_site_fract_y
 _atom_site_fract_z
 _atom_site_occupancy
  Li  Li0  1  0.50000000  0.33906200  0.50000000  1
  Li  Li1  1  0.50000000  0.33906200  0.00000000  1
  Li  Li2  1  0.26212350  0.15358050  0.75000000  1
  Li  Li3  1  0.73787650  0.15358050  0.25000000  1
  Li  Li4  1  0.26212350  0.84641950  0.75000000  1
  Li  Li5  1  0.73787650  0.84641950  0.25000000  1
  Li  Li6  1  0.50000000  0.66093800  0.00000000  1
  Li  Li7  1  0.50000000  0.66093800  0.50000000  1
  Li  Li8  1  0.00000000  0.83906200  0.50000000  1
  Li  Li9  1  0.00000000  0.83906200  0.00000000  1
  Li  Li10  1  0.76212350  0.65358050  0.75000000  1
  Li  Li11  1  0.23787650  0.65358050  0.25000000  1
  Li  Li12  1  0.76212350  0.34641950  0.75000000  1
  Li  Li13  1  0.23787650  0.34641950  0.25000000  1
  Li  Li14  1  0.00000000  0.16093800  0.00000000  1
  Li  Li15  1  0.00000000  0.16093800  0.50000000  1
  Ti  Ti16  1  0.33822900  0.00000000  0.25000000  1
  Ti  Ti17  1  0.66177100  0.00000000  0.75000000  1
  Ti  Ti18  1  0.83822900  0.50000000  0.25000000  1
  Ti  Ti19  1  0.16177100  0.50000000  0.75000000  1
  S  S20  1  0.47102150  0.19735450  0.25000000  1
  S  S21  1  0.52897850  0.19735450  0.75000000  1
  S  S22  1  0.20455100  0.00000000  0.00368400  1
  S  S23  1  0.20455100  0.00000000  0.49631600  1
  S  S24  1  0.79544900  0.00000000  0.99631600  1
  S  S25  1  0.79544900  0.00000000  0.50368400  1
  S  S26  1  0.52897850  0.80264550  0.75000000  1
  S  S27  1  0.47102150  0.80264550  0.25000000  1
  S  S28  1  0.97102150  0.69735450  0.25000000  1
  S  S29  1  0.02897850  0.69735450  0.75000000  1
  S  S30  1  0.70455100  0.50000000  0.00368400  1
  S  S31  1  0.70455100  0.50000000  0.49631600  1
  S  S32  1  0.29544900  0.50000000  0.99631600  1
  S  S33  1  0.29544900  0.50000000  0.50368400  1
  S  S34  1  0.02897850  0.30264550  0.75000000  1
  S  S35  1  0.97102150  0.30264550  0.25000000  1
