# generated using pymatgen
data_KCd6H4C12ClO26
_symmetry_space_group_name_H-M   'P 1'
_cell_length_a   9.36086500
_cell_length_b   9.41424742
_cell_length_c   10.38050324
_cell_angle_alpha   63.41929798
_cell_angle_beta   63.75113350
_cell_angle_gamma   60.68003485
_symmetry_Int_Tables_number   1
_chemical_formula_structural   KCd6H4C12ClO26
_chemical_formula_sum   'K1 Cd6 H4 C12 Cl1 O26'
_cell_volume   683.46326851
_cell_formula_units_Z   1
loop_
 _symmetry_equiv_pos_site_id
 _symmetry_equiv_pos_as_xyz
  1  'x, y, z'
loop_
 _atom_site_type_symbol
 _atom_site_label
 _atom_site_symmetry_multiplicity
 _atom_site_fract_x
 _atom_site_fract_y
 _atom_site_fract_z
 _atom_site_occupancy
  K  K0  1  0.99393900  0.00155200  0.00030000  1
  Cd  Cd1  1  0.27638900  0.78714400  0.27140800  1
  Cd  Cd2  1  0.80068000  0.63102200  0.27009300  1
  Cd  Cd3  1  0.64221900  0.29347500  0.27517100  1
  Cd  Cd4  1  0.34929200  0.71683300  0.73136300  1
  Cd  Cd5  1  0.21315300  0.34591600  0.72097200  1
  Cd  Cd6  1  0.69690800  0.20824200  0.72793400  1
  H  H7  1  0.85883700  0.93290200  0.30203100  1
  H  H8  1  0.94544100  0.86455200  0.29924700  1
  H  H9  1  0.14207600  0.10493400  0.70155600  1
  H  H10  1  0.06157700  0.10903600  0.69915300  1
  C  C11  1  0.57273500  0.95040500  0.04583800  1
  C  C12  1  0.42473700  0.57265300  0.04050900  1
  C  C13  1  0.55949700  0.95574900  0.43539600  1
  C  C14  1  0.97722700  0.42354600  0.02573600  1
  C  C15  1  0.03685900  0.95474900  0.57009400  1
  C  C16  1  0.04969600  0.55573500  0.43249300  1
  C  C17  1  0.94251900  0.44788600  0.56312700  1
  C  C18  1  0.95566700  0.05319500  0.43716500  1
  C  C19  1  0.04586000  0.57296200  0.95340800  1
  C  C20  1  0.44495900  0.04419800  0.56186600  1
  C  C21  1  0.56432700  0.42963400  0.96403600  1
  C  C22  1  0.42830800  0.02273400  0.97119200  1
  Cl  Cl23  1  0.45522300  0.56403600  0.49812900  1
  O  O24  1  0.45578900  0.40243000  0.63814100  1
  O  O25  1  0.30469400  0.97146100  0.03885000  1
  O  O26  1  0.98711800  0.67894300  0.02275500  1
  O  O27  1  0.05228600  0.03662900  0.30906200  1
  O  O28  1  0.55894000  0.83477900  0.17279300  1
  O  O29  1  0.43098500  0.55474900  0.16817300  1
  O  O30  1  0.03558100  0.61019800  0.30185400  1
  O  O31  1  0.19501000  0.86216900  0.53936700  1
  O  O32  1  0.67270800  0.30953300  0.03028800  1
  O  O33  1  0.86561300  0.42043100  0.15333000  1
  O  O34  1  0.58930900  0.79829100  0.47149300  1
  O  O35  1  0.39044800  0.95423700  0.69298900  1
  O  O36  1  0.14424000  0.58727800  0.46689800  1
  O  O37  1  0.84566000  0.41811600  0.53031200  1
  O  O38  1  0.61598900  0.04672500  0.30553100  1
  O  O39  1  0.40976400  0.20343100  0.52525800  1
  O  O40  1  0.16094400  0.57318400  0.82635800  1
  O  O41  1  0.31738400  0.69437900  0.97462000  1
  O  O42  1  0.79684600  0.14376800  0.46760000  1
  O  O43  1  0.95917900  0.39790800  0.69199100  1
  O  O44  1  0.55656600  0.44588700  0.83773900  1
  O  O45  1  0.44533500  0.13195100  0.84228900  1
  O  O46  1  0.94388500  0.97403200  0.69841800  1
  O  O47  1  0.03403300  0.31663400  0.95723800  1
  O  O48  1  0.69153200  0.00772300  0.97697300  1
  O  O49  1  0.60303800  0.50704300  0.36146200  1
