# generated using pymatgen
data_Ba2Sc2O5
_symmetry_space_group_name_H-M   'P 1'
_cell_length_a   5.99137500
_cell_length_b   6.13425600
_cell_length_c   16.53159300
_cell_angle_alpha   90.00000000
_cell_angle_beta   90.00000000
_cell_angle_gamma   90.00000000
_symmetry_Int_Tables_number   1
_chemical_formula_structural   Ba2Sc2O5
_chemical_formula_sum   'Ba8 Sc8 O20'
_cell_volume   607.57948847
_cell_formula_units_Z   4
loop_
 _symmetry_equiv_pos_site_id
 _symmetry_equiv_pos_as_xyz
  1  'x, y, z'
loop_
 _atom_site_type_symbol
 _atom_site_label
 _atom_site_symmetry_multiplicity
 _atom_site_fract_x
 _atom_site_fract_y
 _atom_site_fract_z
 _atom_site_occupancy
  Ba  Ba0  1  0.00457300  0.51578200  0.89099200  1
  Ba  Ba1  1  0.00457300  0.51578200  0.60900800  1
  Ba  Ba2  1  0.50457300  0.98421800  0.89099200  1
  Ba  Ba3  1  0.50457300  0.98421800  0.60900800  1
  Ba  Ba4  1  0.49542700  0.01578200  0.39099200  1
  Ba  Ba5  1  0.49542700  0.01578200  0.10900800  1
  Ba  Ba6  1  0.99542700  0.48421800  0.39099200  1
  Ba  Ba7  1  0.99542700  0.48421800  0.10900800  1
  Sc  Sc8  1  0.50000000  0.50000000  0.00000000  1
  Sc  Sc9  1  0.50000000  0.50000000  0.50000000  1
  Sc  Sc10  1  0.46332100  0.57058100  0.25000000  1
  Sc  Sc11  1  0.96332100  0.92941900  0.25000000  1
  Sc  Sc12  1  0.00000000  0.00000000  0.50000000  1
  Sc  Sc13  1  0.00000000  0.00000000  0.00000000  1
  Sc  Sc14  1  0.03667900  0.07058100  0.75000000  1
  Sc  Sc15  1  0.53667900  0.42941900  0.75000000  1
  O  O16  1  0.49290800  0.54606100  0.86214500  1
  O  O17  1  0.49290800  0.54606100  0.63785500  1
  O  O18  1  0.14108300  0.65399300  0.25000000  1
  O  O19  1  0.25183000  0.75226800  0.49316700  1
  O  O20  1  0.25183000  0.75226800  0.00683300  1
  O  O21  1  0.75183000  0.74773200  0.49316700  1
  O  O22  1  0.75183000  0.74773200  0.00683300  1
  O  O23  1  0.64108300  0.84600700  0.25000000  1
  O  O24  1  0.99290800  0.95393900  0.86214500  1
  O  O25  1  0.99290800  0.95393900  0.63785500  1
  O  O26  1  0.00709200  0.04606100  0.36214500  1
  O  O27  1  0.00709200  0.04606100  0.13785500  1
  O  O28  1  0.35891700  0.15399300  0.75000000  1
  O  O29  1  0.24817000  0.25226800  0.99316700  1
  O  O30  1  0.24817000  0.25226800  0.50683300  1
  O  O31  1  0.74817000  0.24773200  0.99316700  1
  O  O32  1  0.74817000  0.24773200  0.50683300  1
  O  O33  1  0.85891700  0.34600700  0.75000000  1
  O  O34  1  0.50709200  0.45393900  0.36214500  1
  O  O35  1  0.50709200  0.45393900  0.13785500  1
