# generated using pymatgen
data_MoH4O5
_symmetry_space_group_name_H-M   'P 1'
_cell_length_a   10.59816100
_cell_length_b   14.05839900
_cell_length_c   14.90901428
_cell_angle_alpha   90.00000000
_cell_angle_beta   133.70164928
_cell_angle_gamma   90.00000000
_symmetry_Int_Tables_number   1
_chemical_formula_structural   MoH4O5
_chemical_formula_sum   'Mo16 H64 O80'
_cell_volume   1605.91266703
_cell_formula_units_Z   16
loop_
 _symmetry_equiv_pos_site_id
 _symmetry_equiv_pos_as_xyz
  1  'x, y, z'
loop_
 _atom_site_type_symbol
 _atom_site_label
 _atom_site_symmetry_multiplicity
 _atom_site_fract_x
 _atom_site_fract_y
 _atom_site_fract_z
 _atom_site_occupancy
  Mo  Mo0  1  0.02691600  0.24870000  0.64427500  1
  Mo  Mo1  1  0.02691600  0.25130000  0.14427500  1
  Mo  Mo2  1  0.97308400  0.75130000  0.35572500  1
  Mo  Mo3  1  0.97308400  0.74870000  0.85572500  1
  Mo  Mo4  1  0.46627500  0.25364100  0.11741100  1
  Mo  Mo5  1  0.46627500  0.24635900  0.61741100  1
  Mo  Mo6  1  0.53372500  0.74635900  0.88258900  1
  Mo  Mo7  1  0.53372500  0.75364100  0.38258900  1
  Mo  Mo8  1  0.97049700  0.24441300  0.86102900  1
  Mo  Mo9  1  0.97049700  0.25558700  0.36102900  1
  Mo  Mo10  1  0.02950300  0.75558700  0.13897100  1
  Mo  Mo11  1  0.02950300  0.74441300  0.63897100  1
  Mo  Mo12  1  0.53386700  0.25105900  0.39561600  1
  Mo  Mo13  1  0.53386700  0.24894100  0.89561600  1
  Mo  Mo14  1  0.46613300  0.74894100  0.60438400  1
  Mo  Mo15  1  0.46613300  0.75105900  0.10438400  1
  H  H16  1  0.92103400  0.43668200  0.53527100  1
  H  H17  1  0.92103400  0.06331800  0.03527100  1
  H  H18  1  0.07896600  0.56331800  0.46472900  1
  H  H19  1  0.07896600  0.93668200  0.96472900  1
  H  H20  1  0.12515900  0.44068500  0.62625600  1
  H  H21  1  0.12515900  0.05931500  0.12625600  1
  H  H22  1  0.87484100  0.55931500  0.37374400  1
  H  H23  1  0.87484100  0.94068500  0.87374400  1
  H  H24  1  0.40413600  0.44222200  0.02134200  1
  H  H25  1  0.40413600  0.05777800  0.52134200  1
  H  H26  1  0.59586400  0.55777800  0.97865800  1
  H  H27  1  0.59586400  0.94222200  0.47865800  1
  H  H28  1  0.61029300  0.43558500  0.11835500  1
  H  H29  1  0.61029300  0.06441500  0.61835500  1
  H  H30  1  0.38970700  0.56441500  0.88164500  1
  H  H31  1  0.38970700  0.93558500  0.38164500  1
  H  H32  1  0.89319500  0.43586300  0.77606900  1
  H  H33  1  0.89319500  0.06413700  0.27606900  1
  H  H34  1  0.10680500  0.56413700  0.22393100  1
  H  H35  1  0.10680500  0.93586300  0.72393100  1
  H  H36  1  0.87351500  0.06347200  0.37130500  1
  H  H37  1  0.87351500  0.43652800  0.87130500  1
  H  H38  1  0.12648500  0.93652800  0.62869500  1
  H  H39  1  0.12648500  0.56347200  0.12869500  1
  H  H40  1  0.39689100  0.43557200  0.28131700  1
  H  H41  1  0.39689100  0.06442800  0.78131700  1
  H  H42  1  0.60310900  0.56442800  0.71868300  1
  H  H43  1  0.60310900  0.93557200  0.21868300  1
  H  H44  1  0.37815300  0.06587700  0.87708300  1
  H  H45  1  0.37815300  0.43412300  0.37708300  1
  H  H46  1  0.62184700  0.93412300  0.12291700  1
  H  H47  1  0.62184700  0.56587700  0.62291700  1
  H  H48  1  0.69955500  0.45417200  0.55760500  1
  H  H49  1  0.69955500  0.04582800  0.05760500  1
  H  H50  1  0.30044500  0.54582800  0.44239500  1
  H  H51  1  0.30044500  0.95417200  0.94239500  1
  H  H52  1  0.16497700  0.03874700  0.87584800  1
  H  H53  1  0.16497700  0.46125300  0.37584800  1
  H  H54  1  0.83502300  0.96125300  0.12415200  1
  H  H55  1  0.83502300  0.53874700  0.62415200  1
  H  H56  1  0.16797200  0.45395300  0.80947400  1
  H  H57  1  0.16797200  0.04604700  0.30947400  1
  H  H58  1  0.83202800  0.54604700  0.19052600  1
  H  H59  1  0.83202800  0.95395300  0.69052600  1
  H  H60  1  0.83841900  0.04236000  0.62881400  1
  H  H61  1  0.83841900  0.45764000  0.12881400  1
  H  H62  1  0.16158100  0.95764000  0.37118600  1
  H  H63  1  0.16158100  0.54236000  0.87118600  1
  H  H64  1  0.20015700  0.44817000  0.06379400  1
  H  H65  1  0.20015700  0.05183000  0.56379400  1
  H  H66  1  0.79984300  0.55183000  0.93620600  1
  H  H67  1  0.79984300  0.94817000  0.43620600  1
  H  H68  1  0.67284100  0.03635400  0.37695800  1
  H  H69  1  0.67284100  0.46364600  0.87695800  1
  H  H70  1  0.32715900  0.96364600  0.62304200  1
  H  H71  1  0.32715900  0.53635400  0.12304200  1
  H  H72  1  0.67995600  0.43840800  0.32489400  1
  H  H73  1  0.67995600  0.06159200  0.82489400  1
  H  H74  1  0.32004400  0.56159200  0.67510600  1
  H  H75  1  0.32004400  0.93840800  0.17510600  1
  H  H76  1  0.33168500  0.03482600  0.12685900  1
  H  H77  1  0.33168500  0.46517400  0.62685900  1
  H  H78  1  0.66831500  0.96517400  0.87314100  1
  H  H79  1  0.66831500  0.53482600  0.37314100  1
  O  O80  1  0.98555200  0.12807300  0.64031400  1
  O  O81  1  0.98555200  0.37192700  0.14031400  1
  O  O82  1  0.01444800  0.87192700  0.35968600  1
  O  O83  1  0.01444800  0.62807300  0.85968600  1
  O  O84  1  0.45370400  0.13146500  0.12901700  1
  O  O85  1  0.45370400  0.36853500  0.62901700  1
  O  O86  1  0.54629600  0.86853500  0.87098300  1
  O  O87  1  0.54629600  0.63146500  0.37098300  1
  O  O88  1  0.03557400  0.12690900  0.87569600  1
  O  O89  1  0.03557400  0.37309100  0.37569600  1
  O  O90  1  0.96442600  0.87309100  0.12430400  1
  O  O91  1  0.96442600  0.62690900  0.62430400  1
  O  O92  1  0.56174700  0.13034100  0.38776600  1
  O  O93  1  0.56174700  0.36965900  0.88776600  1
  O  O94  1  0.43825300  0.86965900  0.61223400  1
  O  O95  1  0.43825300  0.63034100  0.11223400  1
  O  O96  1  0.03570900  0.28806400  0.76802200  1
  O  O97  1  0.03570900  0.21193600  0.26802200  1
  O  O98  1  0.96429100  0.71193600  0.23197800  1
  O  O99  1  0.96429100  0.78806400  0.73197800  1
  O  O100  1  0.75787600  0.28889100  0.52139900  1
  O  O101  1  0.75787600  0.21110900  0.02139900  1
  O  O102  1  0.24212400  0.71110900  0.47860100  1
  O  O103  1  0.24212400  0.78889100  0.97860100  1
  O  O104  1  0.73880900  0.23917800  0.72303500  1
  O  O105  1  0.73880900  0.26082200  0.22303500  1
  O  O106  1  0.26119100  0.76082200  0.27696500  1
  O  O107  1  0.26119100  0.73917800  0.77696500  1
  O  O108  1  0.46399700  0.24747600  0.98070000  1
  O  O109  1  0.46399700  0.25252400  0.48070000  1
  O  O110  1  0.53600300  0.75252400  0.01930000  1
  O  O111  1  0.53600300  0.74747600  0.51930000  1
  O  O112  1  0.95839500  0.25191900  0.97868000  1
  O  O113  1  0.95839500  0.24808100  0.47868000  1
  O  O114  1  0.04160500  0.74808100  0.02132000  1
  O  O115  1  0.04160500  0.75191900  0.52132000  1
  O  O116  1  0.23943700  0.28749800  0.01192100  1
  O  O117  1  0.23943700  0.21250200  0.51192100  1
  O  O118  1  0.76056300  0.71250200  0.98807900  1
  O  O119  1  0.76056300  0.78749800  0.48807900  1
  O  O120  1  0.25663800  0.24632800  0.23189800  1
  O  O121  1  0.25663800  0.25367200  0.73189800  1
  O  O122  1  0.74336200  0.75367200  0.76810200  1
  O  O123  1  0.74336200  0.74632800  0.26810200  1
  O  O124  1  0.53510300  0.29296700  0.26666700  1
  O  O125  1  0.53510300  0.20703300  0.76666700  1
  O  O126  1  0.46489700  0.70703300  0.73333300  1
  O  O127  1  0.46489700  0.79296700  0.23333300  1
  O  O128  1  0.03000900  0.41092700  0.61568100  1
  O  O129  1  0.03000900  0.08907300  0.11568100  1
  O  O130  1  0.96999100  0.58907300  0.38431900  1
  O  O131  1  0.96999100  0.91092700  0.88431900  1
  O  O132  1  0.50710200  0.41299100  0.10205900  1
  O  O133  1  0.50710200  0.08700900  0.60205900  1
  O  O134  1  0.49289800  0.58700900  0.89794100  1
  O  O135  1  0.49289800  0.91299100  0.39794100  1
  O  O136  1  0.94375200  0.40748500  0.85627700  1
  O  O137  1  0.94375200  0.09251500  0.35627700  1
  O  O138  1  0.05624800  0.59251500  0.14372300  1
  O  O139  1  0.05624800  0.90748500  0.64372300  1
  O  O140  1  0.45372800  0.41032200  0.36440000  1
  O  O141  1  0.45372800  0.08967800  0.86440000  1
  O  O142  1  0.54627200  0.58967800  0.63560000  1
  O  O143  1  0.54627200  0.91032200  0.13560000  1
  O  O144  1  0.76513500  0.49698900  0.62937600  1
  O  O145  1  0.76513500  0.00301100  0.12937600  1
  O  O146  1  0.23486500  0.50301100  0.37062400  1
  O  O147  1  0.23486500  0.99698900  0.87062400  1
  O  O148  1  0.24186700  0.49926700  0.87822900  1
  O  O149  1  0.24186700  0.00073300  0.37822900  1
  O  O150  1  0.75813300  0.50073300  0.12177100  1
  O  O151  1  0.75813300  0.99926700  0.62177100  1
  O  O152  1  0.26248400  0.49380400  0.13240500  1
  O  O153  1  0.26248400  0.00619600  0.63240500  1
  O  O154  1  0.73751600  0.50619600  0.86759500  1
  O  O155  1  0.73751600  0.99380400  0.36759500  1
  O  O156  1  0.75070200  0.49041100  0.38456900  1
  O  O157  1  0.75070200  0.00958900  0.88456900  1
  O  O158  1  0.24929800  0.50958900  0.61543100  1
  O  O159  1  0.24929800  0.99041100  0.11543100  1
