# generated using pymatgen
data_Ho2TeO6
_symmetry_space_group_name_H-M   'P 1'
_cell_length_a   9.15723959
_cell_length_b   9.15723959
_cell_length_c   5.18405800
_cell_angle_alpha   90.00000000
_cell_angle_beta   90.00000000
_cell_angle_gamma   120.00000000
_symmetry_Int_Tables_number   1
_chemical_formula_structural   Ho2TeO6
_chemical_formula_sum   'Ho6 Te3 O18'
_cell_volume   376.46936230
_cell_formula_units_Z   3
loop_
 _symmetry_equiv_pos_site_id
 _symmetry_equiv_pos_as_xyz
  1  'x, y, z'
loop_
 _atom_site_type_symbol
 _atom_site_label
 _atom_site_symmetry_multiplicity
 _atom_site_fract_x
 _atom_site_fract_y
 _atom_site_fract_z
 _atom_site_occupancy
  Ho  Ho0  1  0.00000000  0.62254150  0.00000000  1
  Ho  Ho1  1  0.00000000  0.28553550  0.50000000  1
  Ho  Ho2  1  0.37745850  0.37745850  0.00000000  1
  Ho  Ho3  1  0.28553550  0.00000000  0.50000000  1
  Ho  Ho4  1  0.71446450  0.71446450  0.50000000  1
  Ho  Ho5  1  0.62254150  0.00000000  0.00000000  1
  Te  Te6  1  0.33333333  0.66666667  0.50497600  1
  Te  Te7  1  0.00000000  0.00000000  0.00000000  1
  Te  Te8  1  0.66666667  0.33333333  0.49502400  1
  O  O9  1  0.08208633  0.88099267  0.79056000  1
  O  O10  1  0.22281633  0.75892667  0.29139400  1
  O  O11  1  0.13271833  0.54350767  0.71855000  1
  O  O12  1  0.41078933  0.86728167  0.71855000  1
  O  O13  1  0.11900733  0.20109367  0.79056000  1
  O  O14  1  0.24107333  0.46388967  0.29139400  1
  O  O15  1  0.53611033  0.77718367  0.29139400  1
  O  O16  1  0.20109367  0.11900733  0.20944000  1
  O  O17  1  0.45649233  0.58921067  0.71855000  1
  O  O18  1  0.46388967  0.24107333  0.70860600  1
  O  O19  1  0.79890633  0.91791367  0.79056000  1
  O  O20  1  0.58921067  0.45649233  0.28145000  1
  O  O21  1  0.54350767  0.13271833  0.28145000  1
  O  O22  1  0.91791367  0.79890633  0.20944000  1
  O  O23  1  0.77718367  0.53611033  0.70860600  1
  O  O24  1  0.75892667  0.22281633  0.70860600  1
  O  O25  1  0.86728167  0.41078933  0.28145000  1
  O  O26  1  0.88099267  0.08208633  0.20944000  1
