# generated using pymatgen
data_LiV2(SiO4)2
_symmetry_space_group_name_H-M   'P 1'
_cell_length_a   8.11149250
_cell_length_b   5.43949786
_cell_length_c   6.29276053
_cell_angle_alpha   90.00000000
_cell_angle_beta   90.15003660
_cell_angle_gamma   90.00000000
_symmetry_Int_Tables_number   1
_chemical_formula_structural   LiV2(SiO4)2
_chemical_formula_sum   'Li2 V4 Si4 O16'
_cell_volume   277.65103512
_cell_formula_units_Z   2
loop_
 _symmetry_equiv_pos_site_id
 _symmetry_equiv_pos_as_xyz
  1  'x, y, z'
loop_
 _atom_site_type_symbol
 _atom_site_label
 _atom_site_symmetry_multiplicity
 _atom_site_fract_x
 _atom_site_fract_y
 _atom_site_fract_z
 _atom_site_occupancy
  Li  Li0  1  0.67744700  0.00000000  0.46359700  1
  Li  Li1  1  0.17744700  0.50000000  0.46359700  1
  V  V2  1  0.00486050  0.00000000  0.21335450  1
  V  V3  1  0.00746400  0.00000000  0.72841000  1
  V  V4  1  0.50486050  0.50000000  0.21335450  1
  V  V5  1  0.50746400  0.50000000  0.72841000  1
  Si  Si6  1  0.65331700  0.00000000  0.96383750  1
  Si  Si7  1  0.35061150  0.00000000  0.46523250  1
  Si  Si8  1  0.15331700  0.50000000  0.96383750  1
  Si  Si9  1  0.85061150  0.50000000  0.46523250  1
  O  O10  1  0.77359550  0.00000000  0.75218250  1
  O  O11  1  0.76202900  0.00000000  0.17990650  1
  O  O12  1  0.22606600  0.00000000  0.67094100  1
  O  O13  1  0.23972500  0.00000000  0.25461550  1
  O  O14  1  0.53504100  0.24652350  0.95700100  1
  O  O15  1  0.53504100  0.75347650  0.95700100  1
  O  O16  1  0.47456650  0.24038050  0.47595900  1
  O  O17  1  0.47456650  0.75961950  0.47595900  1
  O  O18  1  0.27359550  0.50000000  0.75218250  1
  O  O19  1  0.26202900  0.50000000  0.17990650  1
  O  O20  1  0.72606600  0.50000000  0.67094100  1
  O  O21  1  0.73972500  0.50000000  0.25461550  1
  O  O22  1  0.03504100  0.74652350  0.95700100  1
  O  O23  1  0.03504100  0.25347650  0.95700100  1
  O  O24  1  0.97456650  0.74038050  0.47595900  1
  O  O25  1  0.97456650  0.25961950  0.47595900  1
