# generated using pymatgen
data_BaYI5
_symmetry_space_group_name_H-M   'P 1'
_cell_length_a   8.27067000
_cell_length_b   27.05664900
_cell_length_c   14.11013991
_cell_angle_alpha   90.00000000
_cell_angle_beta   124.90180061
_cell_angle_gamma   90.00000000
_symmetry_Int_Tables_number   1
_chemical_formula_structural   BaYI5
_chemical_formula_sum   'Ba8 Y8 I40'
_cell_volume   2589.58864135
_cell_formula_units_Z   8
loop_
 _symmetry_equiv_pos_site_id
 _symmetry_equiv_pos_as_xyz
  1  'x, y, z'
loop_
 _atom_site_type_symbol
 _atom_site_label
 _atom_site_symmetry_multiplicity
 _atom_site_fract_x
 _atom_site_fract_y
 _atom_site_fract_z
 _atom_site_occupancy
  Ba  Ba0  1  0.15724300  0.02801700  0.74946400  1
  Ba  Ba1  1  0.14924500  0.75994300  0.98842000  1
  Ba  Ba2  1  0.84275700  0.52801700  0.75053600  1
  Ba  Ba3  1  0.85075500  0.25994300  0.51158000  1
  Ba  Ba4  1  0.14924500  0.74005700  0.48842000  1
  Ba  Ba5  1  0.15724300  0.47198300  0.24946400  1
  Ba  Ba6  1  0.85075500  0.24005700  0.01158000  1
  Ba  Ba7  1  0.84275700  0.97198300  0.25053600  1
  Y  Y8  1  0.80346000  0.87150400  0.55699100  1
  Y  Y9  1  0.19654000  0.37150400  0.94300900  1
  Y  Y10  1  0.65579900  0.61306800  0.39082200  1
  Y  Y11  1  0.34420100  0.11306800  0.10917800  1
  Y  Y12  1  0.65579900  0.88693200  0.89082200  1
  Y  Y13  1  0.34420100  0.38693200  0.60917800  1
  Y  Y14  1  0.80346000  0.62849600  0.05699100  1
  Y  Y15  1  0.19654000  0.12849600  0.44300900  1
  I  I16  1  0.05945200  0.62499400  0.60391200  1
  I  I17  1  0.46670700  0.85631600  0.00923400  1
  I  I18  1  0.39436700  0.66177300  0.94813000  1
  I  I19  1  0.14774500  0.42447600  0.73463000  1
  I  I20  1  0.75895500  0.09055300  0.32484800  1
  I  I21  1  0.83061500  0.85027900  0.35539700  1
  I  I22  1  0.99653600  0.77380100  0.67154200  1
  I  I23  1  0.63243600  0.71314600  0.29289500  1
  I  I24  1  0.28871800  0.47609100  0.03820600  1
  I  I25  1  0.32669200  0.00347400  0.05494200  1
  I  I26  1  0.00346400  0.27380100  0.82845800  1
  I  I27  1  0.67330800  0.50347400  0.44505800  1
  I  I28  1  0.71128200  0.97609100  0.46179400  1
  I  I29  1  0.36756400  0.21314600  0.20710500  1
  I  I30  1  0.85225500  0.92447600  0.76537000  1
  I  I31  1  0.60563300  0.16177300  0.55187000  1
  I  I32  1  0.16938500  0.35027900  0.14460300  1
  I  I33  1  0.24104500  0.59055300  0.17515200  1
  I  I34  1  0.53329300  0.35631600  0.49076600  1
  I  I35  1  0.94054800  0.12499400  0.89608800  1
  I  I36  1  0.05945200  0.87500600  0.10391200  1
  I  I37  1  0.46670700  0.64368400  0.50923400  1
  I  I38  1  0.75895500  0.40944700  0.82484800  1
  I  I39  1  0.83061500  0.64972100  0.85539700  1
  I  I40  1  0.39436700  0.83822700  0.44813000  1
  I  I41  1  0.14774500  0.07552400  0.23463000  1
  I  I42  1  0.63243600  0.78685400  0.79289500  1
  I  I43  1  0.28871800  0.02390900  0.53820600  1
  I  I44  1  0.32669200  0.49652600  0.55494200  1
  I  I45  1  0.99653600  0.72619900  0.17154200  1
  I  I46  1  0.67330800  0.99652600  0.94505800  1
  I  I47  1  0.71128200  0.52390900  0.96179400  1
  I  I48  1  0.36756400  0.28685400  0.70710500  1
  I  I49  1  0.00346400  0.22619900  0.32845800  1
  I  I50  1  0.16938500  0.14972100  0.64460300  1
  I  I51  1  0.24104500  0.90944700  0.67515200  1
  I  I52  1  0.85225500  0.57552400  0.26537000  1
  I  I53  1  0.60563300  0.33822700  0.05187000  1
  I  I54  1  0.53329300  0.14368400  0.99076600  1
  I  I55  1  0.94054800  0.37500600  0.39608800  1
