# generated using pymatgen
data_Li7V5O12
_symmetry_space_group_name_H-M   'P 1'
_cell_length_a   5.23593800
_cell_length_b   8.71882800
_cell_length_c   9.65559855
_cell_angle_alpha   90.00000000
_cell_angle_beta   98.15234835
_cell_angle_gamma   90.00000000
_symmetry_Int_Tables_number   1
_chemical_formula_structural   Li7V5O12
_chemical_formula_sum   'Li14 V10 O24'
_cell_volume   436.33567470
_cell_formula_units_Z   2
loop_
 _symmetry_equiv_pos_site_id
 _symmetry_equiv_pos_as_xyz
  1  'x, y, z'
loop_
 _atom_site_type_symbol
 _atom_site_label
 _atom_site_symmetry_multiplicity
 _atom_site_fract_x
 _atom_site_fract_y
 _atom_site_fract_z
 _atom_site_occupancy
  Li  Li0  1  0.50000000  0.74273900  0.00000000  1
  Li  Li1  1  0.24343600  0.91002400  0.75508000  1
  Li  Li2  1  0.23442600  0.08869900  0.24424600  1
  Li  Li3  1  0.75656400  0.91002400  0.24492000  1
  Li  Li4  1  0.76557400  0.08869900  0.75575400  1
  Li  Li5  1  0.50000000  0.25275200  0.50000000  1
  Li  Li6  1  0.50000000  0.41939600  0.00000000  1
  Li  Li7  1  0.00000000  0.24273900  0.00000000  1
  Li  Li8  1  0.74343600  0.41002400  0.75508000  1
  Li  Li9  1  0.73442600  0.58869900  0.24424600  1
  Li  Li10  1  0.25656400  0.41002400  0.24492000  1
  Li  Li11  1  0.26557400  0.58869900  0.75575400  1
  Li  Li12  1  0.00000000  0.75275200  0.50000000  1
  Li  Li13  1  0.00000000  0.91939600  0.00000000  1
  V  V14  1  0.50000000  0.58251600  0.50000000  1
  V  V15  1  0.24590450  0.75673050  0.23861600  1
  V  V16  1  0.75409550  0.75673050  0.76138400  1
  V  V17  1  0.50000000  0.92426200  0.50000000  1
  V  V18  1  0.50000000  0.07538100  0.00000000  1
  V  V19  1  0.00000000  0.08251600  0.50000000  1
  V  V20  1  0.74590450  0.25673050  0.23861600  1
  V  V21  1  0.25409550  0.25673050  0.76138400  1
  V  V22  1  0.00000000  0.42426200  0.50000000  1
  V  V23  1  0.00000000  0.57538100  0.00000000  1
  O  O24  1  0.84558650  0.08857950  0.12148100  1
  O  O25  1  0.15441350  0.08857950  0.87851900  1
  O  O26  1  0.40593350  0.75338150  0.62839500  1
  O  O27  1  0.59406650  0.75338150  0.37160500  1
  O  O28  1  0.36957700  0.90647800  0.12948000  1
  O  O29  1  0.63042300  0.90647800  0.87052000  1
  O  O30  1  0.35019050  0.09023450  0.62079800  1
  O  O31  1  0.64980950  0.09023450  0.37920200  1
  O  O32  1  0.40695450  0.24024350  0.13327700  1
  O  O33  1  0.59304550  0.24024350  0.86672300  1
  O  O34  1  0.85595500  0.91710700  0.62216700  1
  O  O35  1  0.14404500  0.91710700  0.37783300  1
  O  O36  1  0.34558650  0.58857950  0.12148100  1
  O  O37  1  0.65441350  0.58857950  0.87851900  1
  O  O38  1  0.90593350  0.25338150  0.62839500  1
  O  O39  1  0.09406650  0.25338150  0.37160500  1
  O  O40  1  0.86957700  0.40647800  0.12948000  1
  O  O41  1  0.13042300  0.40647800  0.87052000  1
  O  O42  1  0.85019050  0.59023450  0.62079800  1
  O  O43  1  0.14980950  0.59023450  0.37920200  1
  O  O44  1  0.90695450  0.74024350  0.13327700  1
  O  O45  1  0.09304550  0.74024350  0.86672300  1
  O  O46  1  0.35595500  0.41710700  0.62216700  1
  O  O47  1  0.64404500  0.41710700  0.37783300  1
