# generated using pymatgen
data_CdGeO3
_symmetry_space_group_name_H-M   'P 1'
_cell_length_a   12.63873000
_cell_length_b   12.63873000
_cell_length_c   12.47659400
_cell_angle_alpha   90.00000000
_cell_angle_beta   90.00000000
_cell_angle_gamma   90.00000000
_symmetry_Int_Tables_number   1
_chemical_formula_structural   CdGeO3
_chemical_formula_sum   'Cd32 Ge32 O96'
_cell_volume   1992.97988433
_cell_formula_units_Z   32
loop_
 _symmetry_equiv_pos_site_id
 _symmetry_equiv_pos_as_xyz
  1  'x, y, z'
loop_
 _atom_site_type_symbol
 _atom_site_label
 _atom_site_symmetry_multiplicity
 _atom_site_fract_x
 _atom_site_fract_y
 _atom_site_fract_z
 _atom_site_occupancy
  Cd  Cd0  1  0.50000000  0.25000000  0.37500000  1
  Cd  Cd1  1  0.25000000  0.50000000  0.62500000  1
  Cd  Cd2  1  0.75000000  0.50000000  0.62500000  1
  Cd  Cd3  1  0.50000000  0.75000000  0.37500000  1
  Cd  Cd4  1  0.50000000  0.50000000  0.74911300  1
  Cd  Cd5  1  0.50000000  0.00000000  0.49911300  1
  Cd  Cd6  1  0.50000000  0.00000000  0.00088700  1
  Cd  Cd7  1  0.50000000  0.50000000  0.25088700  1
  Cd  Cd8  1  0.87409250  0.24391050  0.11832150  1
  Cd  Cd9  1  0.75608950  0.37409250  0.86832150  1
  Cd  Cd10  1  0.74391050  0.12590750  0.36832150  1
  Cd  Cd11  1  0.62590750  0.25608950  0.61832150  1
  Cd  Cd12  1  0.62590750  0.75608950  0.13167850  1
  Cd  Cd13  1  0.74391050  0.62590750  0.38167850  1
  Cd  Cd14  1  0.75608950  0.87409250  0.88167850  1
  Cd  Cd15  1  0.87409250  0.74391050  0.63167850  1
  Cd  Cd16  1  0.00000000  0.75000000  0.87500000  1
  Cd  Cd17  1  0.75000000  0.00000000  0.12500000  1
  Cd  Cd18  1  0.25000000  0.00000000  0.12500000  1
  Cd  Cd19  1  0.00000000  0.25000000  0.87500000  1
  Cd  Cd20  1  0.00000000  0.00000000  0.24911300  1
  Cd  Cd21  1  0.00000000  0.50000000  0.99911300  1
  Cd  Cd22  1  0.00000000  0.50000000  0.50088700  1
  Cd  Cd23  1  0.00000000  0.00000000  0.75088700  1
  Cd  Cd24  1  0.37409250  0.74391050  0.61832150  1
  Cd  Cd25  1  0.25608950  0.87409250  0.36832150  1
  Cd  Cd26  1  0.24391050  0.62590750  0.86832150  1
  Cd  Cd27  1  0.12590750  0.75608950  0.11832150  1
  Cd  Cd28  1  0.12590750  0.25608950  0.63167850  1
  Cd  Cd29  1  0.24391050  0.12590750  0.88167850  1
  Cd  Cd30  1  0.25608950  0.37409250  0.38167850  1
  Cd  Cd31  1  0.37409250  0.24391050  0.13167850  1
  Ge  Ge32  1  0.87315650  0.23443450  0.61480050  1
  Ge  Ge33  1  0.76556550  0.37315650  0.36480050  1
  Ge  Ge34  1  0.73443450  0.12684350  0.86480050  1
  Ge  Ge35  1  0.12684350  0.76556550  0.61480050  1
  Ge  Ge36  1  0.12684350  0.26556550  0.13519950  1
  Ge  Ge37  1  0.23443450  0.12684350  0.38519950  1
  Ge  Ge38  1  0.76556550  0.87315650  0.38519950  1
  Ge  Ge39  1  0.37315650  0.23443450  0.63519950  1
  Ge  Ge40  1  0.50000000  0.00000000  0.75000000  1
  Ge  Ge41  1  0.00000000  0.00000000  0.50000000  1
  Ge  Ge42  1  0.50000000  0.00000000  0.25000000  1
  Ge  Ge43  1  0.50000000  0.50000000  0.50000000  1
  Ge  Ge44  1  0.50000000  0.25000000  0.87500000  1
  Ge  Ge45  1  0.75000000  0.00000000  0.62500000  1
  Ge  Ge46  1  0.75000000  0.50000000  0.12500000  1
  Ge  Ge47  1  0.00000000  0.25000000  0.37500000  1
  Ge  Ge48  1  0.37315650  0.73443450  0.11480050  1
  Ge  Ge49  1  0.26556550  0.87315650  0.86480050  1
  Ge  Ge50  1  0.23443450  0.62684350  0.36480050  1
  Ge  Ge51  1  0.62684350  0.26556550  0.11480050  1
  Ge  Ge52  1  0.62684350  0.76556550  0.63519950  1
  Ge  Ge53  1  0.73443450  0.62684350  0.88519950  1
  Ge  Ge54  1  0.26556550  0.37315650  0.88519950  1
  Ge  Ge55  1  0.87315650  0.73443450  0.13519950  1
  Ge  Ge56  1  0.00000000  0.50000000  0.25000000  1
  Ge  Ge57  1  0.50000000  0.50000000  0.00000000  1
  Ge  Ge58  1  0.00000000  0.50000000  0.75000000  1
  Ge  Ge59  1  0.00000000  0.00000000  0.00000000  1
  Ge  Ge60  1  0.00000000  0.75000000  0.37500000  1
  Ge  Ge61  1  0.25000000  0.50000000  0.12500000  1
  Ge  Ge62  1  0.25000000  0.00000000  0.62500000  1
  Ge  Ge63  1  0.50000000  0.75000000  0.87500000  1
  O  O64  1  0.10267450  0.03873250  0.59176050  1
  O  O65  1  0.46126750  0.10267450  0.84176050  1
  O  O66  1  0.03873250  0.39732550  0.34176050  1
  O  O67  1  0.89732550  0.96126750  0.59176050  1
  O  O68  1  0.89732550  0.46126750  0.15823950  1
  O  O69  1  0.03873250  0.89732550  0.40823950  1
  O  O70  1  0.96126750  0.10267450  0.40823950  1
  O  O71  1  0.60267450  0.03873250  0.65823950  1
  O  O72  1  0.56491750  0.58440150  0.40599350  1
  O  O73  1  0.91559850  0.56491750  0.65599350  1
  O  O74  1  0.58440150  0.93508250  0.15599350  1
  O  O75  1  0.43508250  0.41559850  0.40599350  1
  O  O76  1  0.93508250  0.41559850  0.84400650  1
  O  O77  1  0.58440150  0.43508250  0.59400650  1
  O  O78  1  0.41559850  0.56491750  0.59400650  1
  O  O79  1  0.56491750  0.08440150  0.34400650  1
  O  O80  1  0.78649050  0.32728950  0.67285850  1
  O  O81  1  0.67271050  0.28649050  0.42285850  1
  O  O82  1  0.32728950  0.71350950  0.42285850  1
  O  O83  1  0.95160950  0.29631750  0.51076850  1
  O  O84  1  0.71350950  0.17271050  0.17285850  1
  O  O85  1  0.82728950  0.71350950  0.82714150  1
  O  O86  1  0.67271050  0.78649050  0.32714150  1
  O  O87  1  0.28649050  0.32728950  0.57714150  1
  O  O88  1  0.77568000  0.13859900  0.56424800  1
  O  O89  1  0.86140100  0.27568000  0.31424800  1
  O  O90  1  0.63859900  0.22432000  0.81424800  1
  O  O91  1  0.72432000  0.36140100  0.06424800  1
  O  O92  1  0.72432000  0.86140100  0.68575200  1
  O  O93  1  0.13859900  0.22432000  0.43575200  1
  O  O94  1  0.36140100  0.27568000  0.93575200  1
  O  O95  1  0.77568000  0.63859900  0.18575200  1
  O  O96  1  0.47416000  0.18709100  0.54938000  1
  O  O97  1  0.81290900  0.97416000  0.29938000  1
  O  O98  1  0.18709100  0.02584000  0.29938000  1
  O  O99  1  0.02584000  0.31290900  0.04938000  1
  O  O100  1  0.02584000  0.81290900  0.70062000  1
  O  O101  1  0.68709100  0.02584000  0.95062000  1
  O  O102  1  0.81290900  0.47416000  0.45062000  1
  O  O103  1  0.97416000  0.18709100  0.70062000  1
  O  O104  1  0.45160950  0.29631750  0.73923150  1
  O  O105  1  0.70368250  0.95160950  0.48923150  1
  O  O106  1  0.79631750  0.54839050  0.98923150  1
  O  O107  1  0.04839050  0.20368250  0.23923150  1
  O  O108  1  0.54839050  0.20368250  0.01076850  1
  O  O109  1  0.79631750  0.04839050  0.76076850  1
  O  O110  1  0.70368250  0.45160950  0.26076850  1
  O  O111  1  0.71350950  0.67271050  0.57714150  1
  O  O112  1  0.60267450  0.53873250  0.09176050  1
  O  O113  1  0.96126750  0.60267450  0.34176050  1
  O  O114  1  0.53873250  0.89732550  0.84176050  1
  O  O115  1  0.39732550  0.46126750  0.09176050  1
  O  O116  1  0.39732550  0.96126750  0.65823950  1
  O  O117  1  0.53873250  0.39732550  0.90823950  1
  O  O118  1  0.46126750  0.60267450  0.90823950  1
  O  O119  1  0.10267450  0.53873250  0.15823950  1
  O  O120  1  0.06491750  0.08440150  0.90599350  1
  O  O121  1  0.41559850  0.06491750  0.15599350  1
  O  O122  1  0.08440150  0.43508250  0.65599350  1
  O  O123  1  0.93508250  0.91559850  0.90599350  1
  O  O124  1  0.43508250  0.91559850  0.34400650  1
  O  O125  1  0.08440150  0.93508250  0.09400650  1
  O  O126  1  0.91559850  0.06491750  0.09400650  1
  O  O127  1  0.06491750  0.58440150  0.84400650  1
  O  O128  1  0.28649050  0.82728950  0.17285850  1
  O  O129  1  0.17271050  0.78649050  0.92285850  1
  O  O130  1  0.82728950  0.21350950  0.92285850  1
  O  O131  1  0.45160950  0.79631750  0.01076850  1
  O  O132  1  0.21350950  0.67271050  0.67285850  1
  O  O133  1  0.32728950  0.21350950  0.32714150  1
  O  O134  1  0.17271050  0.28649050  0.82714150  1
  O  O135  1  0.78649050  0.82728950  0.07714150  1
  O  O136  1  0.27568000  0.63859900  0.06424800  1
  O  O137  1  0.36140100  0.77568000  0.81424800  1
  O  O138  1  0.13859900  0.72432000  0.31424800  1
  O  O139  1  0.22432000  0.86140100  0.56424800  1
  O  O140  1  0.22432000  0.36140100  0.18575200  1
  O  O141  1  0.63859900  0.72432000  0.93575200  1
  O  O142  1  0.86140100  0.77568000  0.43575200  1
  O  O143  1  0.27568000  0.13859900  0.68575200  1
  O  O144  1  0.97416000  0.68709100  0.04938000  1
  O  O145  1  0.31290900  0.47416000  0.79938000  1
  O  O146  1  0.68709100  0.52584000  0.79938000  1
  O  O147  1  0.52584000  0.81290900  0.54938000  1
  O  O148  1  0.52584000  0.31290900  0.20062000  1
  O  O149  1  0.18709100  0.52584000  0.45062000  1
  O  O150  1  0.31290900  0.97416000  0.95062000  1
  O  O151  1  0.47416000  0.68709100  0.20062000  1
  O  O152  1  0.95160950  0.79631750  0.23923150  1
  O  O153  1  0.20368250  0.45160950  0.98923150  1
  O  O154  1  0.29631750  0.04839050  0.48923150  1
  O  O155  1  0.54839050  0.70368250  0.73923150  1
  O  O156  1  0.04839050  0.70368250  0.51076850  1
  O  O157  1  0.29631750  0.54839050  0.26076850  1
  O  O158  1  0.20368250  0.95160950  0.76076850  1
  O  O159  1  0.21350950  0.17271050  0.07714150  1
