# generated using pymatgen
data_K3H8RhC4(ClO6)2
_symmetry_space_group_name_H-M   'P 1'
_cell_length_a   11.61850400
_cell_length_b   11.98995000
_cell_length_c   6.44823289
_cell_angle_alpha   90.00000000
_cell_angle_beta   116.86309718
_cell_angle_gamma   90.00000000
_symmetry_Int_Tables_number   1
_chemical_formula_structural   K3H8RhC4(ClO6)2
_chemical_formula_sum   'K6 H16 Rh2 C8 Cl4 O24'
_cell_volume   801.33914716
_cell_formula_units_Z   2
loop_
 _symmetry_equiv_pos_site_id
 _symmetry_equiv_pos_as_xyz
  1  'x, y, z'
loop_
 _atom_site_type_symbol
 _atom_site_label
 _atom_site_symmetry_multiplicity
 _atom_site_fract_x
 _atom_site_fract_y
 _atom_site_fract_z
 _atom_site_occupancy
  K  K0  1  0.50000000  0.00000000  0.00000000  1
  K  K1  1  0.50000000  0.73078600  0.50000000  1
  K  K2  1  0.50000000  0.26921400  0.50000000  1
  K  K3  1  0.00000000  0.50000000  0.00000000  1
  K  K4  1  0.00000000  0.23078600  0.50000000  1
  K  K5  1  0.00000000  0.76921400  0.50000000  1
  H  H6  1  0.29066400  0.83627500  0.97847200  1
  H  H7  1  0.29066400  0.16372500  0.97847200  1
  H  H8  1  0.37654750  0.24627950  0.92346300  1
  H  H9  1  0.37654750  0.75372050  0.92346300  1
  H  H10  1  0.62345250  0.75372050  0.07653700  1
  H  H11  1  0.62345250  0.24627950  0.07653700  1
  H  H12  1  0.70933600  0.83627500  0.02152800  1
  H  H13  1  0.70933600  0.16372500  0.02152800  1
  H  H14  1  0.79066400  0.33627500  0.97847200  1
  H  H15  1  0.79066400  0.66372500  0.97847200  1
  H  H16  1  0.87654750  0.74627950  0.92346300  1
  H  H17  1  0.87654750  0.25372050  0.92346300  1
  H  H18  1  0.12345250  0.25372050  0.07653700  1
  H  H19  1  0.12345250  0.74627950  0.07653700  1
  H  H20  1  0.20933600  0.33627500  0.02152800  1
  H  H21  1  0.20933600  0.66372500  0.02152800  1
  Rh  Rh22  1  0.00000000  0.00000000  0.00000000  1
  Rh  Rh23  1  0.50000000  0.50000000  0.00000000  1
  C  C24  1  0.23272950  0.06449150  0.39229100  1
  C  C25  1  0.23272950  0.93550850  0.39229100  1
  C  C26  1  0.76727050  0.93550850  0.60770900  1
  C  C27  1  0.76727050  0.06449150  0.60770900  1
  C  C28  1  0.73272950  0.56449150  0.39229100  1
  C  C29  1  0.73272950  0.43550850  0.39229100  1
  C  C30  1  0.26727050  0.43550850  0.60770900  1
  C  C31  1  0.26727050  0.56449150  0.60770900  1
  Cl  Cl32  1  0.13859700  0.00000000  0.82067400  1
  Cl  Cl33  1  0.86140300  0.00000000  0.17932600  1
  Cl  Cl34  1  0.63859700  0.50000000  0.82067400  1
  Cl  Cl35  1  0.36140300  0.50000000  0.17932600  1
  O  O36  1  0.62258800  0.80441800  0.95556700  1
  O  O37  1  0.62258800  0.19558200  0.95556700  1
  O  O38  1  0.32892600  0.88379800  0.53226800  1
  O  O39  1  0.32892600  0.11620200  0.53226800  1
  O  O40  1  0.12610100  0.11126000  0.24003800  1
  O  O41  1  0.12610100  0.88874000  0.24003800  1
  O  O42  1  0.87389900  0.88874000  0.75996200  1
  O  O43  1  0.87389900  0.11126000  0.75996200  1
  O  O44  1  0.67107400  0.88379800  0.46773200  1
  O  O45  1  0.67107400  0.11620200  0.46773200  1
  O  O46  1  0.37741200  0.80441800  0.04443300  1
  O  O47  1  0.37741200  0.19558200  0.04443300  1
  O  O48  1  0.12258800  0.30441800  0.95556700  1
  O  O49  1  0.12258800  0.69558200  0.95556700  1
  O  O50  1  0.82892600  0.38379800  0.53226800  1
  O  O51  1  0.82892600  0.61620200  0.53226800  1
  O  O52  1  0.62610100  0.61126000  0.24003800  1
  O  O53  1  0.62610100  0.38874000  0.24003800  1
  O  O54  1  0.37389900  0.38874000  0.75996200  1
  O  O55  1  0.37389900  0.61126000  0.75996200  1
  O  O56  1  0.17107400  0.38379800  0.46773200  1
  O  O57  1  0.17107400  0.61620200  0.46773200  1
  O  O58  1  0.87741200  0.30441800  0.04443300  1
  O  O59  1  0.87741200  0.69558200  0.04443300  1
