# generated using pymatgen
data_Ca2Ga2Si(HO4)2
_symmetry_space_group_name_H-M   'P 1'
_cell_length_a   9.04415800
_cell_length_b   9.04415800
_cell_length_c   9.02035200
_cell_angle_alpha   90.00000000
_cell_angle_beta   90.00000000
_cell_angle_gamma   90.00000000
_symmetry_Int_Tables_number   1
_chemical_formula_structural   Ca2Ga2Si(HO4)2
_chemical_formula_sum   'Ca8 Ga8 Si4 H8 O32'
_cell_volume   737.83587371
_cell_formula_units_Z   4
loop_
 _symmetry_equiv_pos_site_id
 _symmetry_equiv_pos_as_xyz
  1  'x, y, z'
loop_
 _atom_site_type_symbol
 _atom_site_label
 _atom_site_symmetry_multiplicity
 _atom_site_fract_x
 _atom_site_fract_y
 _atom_site_fract_z
 _atom_site_occupancy
  Ca  Ca0  1  0.14153500  0.86325200  0.85779800  1
  Ca  Ca1  1  0.13674800  0.14153500  0.14220200  1
  Ca  Ca2  1  0.35846500  0.63674800  0.35779800  1
  Ca  Ca3  1  0.36325200  0.35846500  0.64220200  1
  Ca  Ca4  1  0.64153500  0.36325200  0.35779800  1
  Ca  Ca5  1  0.63674800  0.64153500  0.64220200  1
  Ca  Ca6  1  0.85846500  0.13674800  0.85779800  1
  Ca  Ca7  1  0.86325200  0.85846500  0.14220200  1
  Ga  Ga8  1  0.00202950  0.25538350  0.50062950  1
  Ga  Ga9  1  0.24461650  0.50202950  0.99937050  1
  Ga  Ga10  1  0.25538350  0.99797050  0.49937050  1
  Ga  Ga11  1  0.49797050  0.24461650  0.00062950  1
  Ga  Ga12  1  0.50202950  0.75538350  0.00062950  1
  Ga  Ga13  1  0.74461650  0.00202950  0.49937050  1
  Ga  Ga14  1  0.75538350  0.49797050  0.99937050  1
  Ga  Ga15  1  0.99797050  0.74461650  0.50062950  1
  Si  Si16  1  0.00000000  0.50000000  0.25000000  1
  Si  Si17  1  0.50000000  0.00000000  0.25000000  1
  Si  Si18  1  0.50000000  0.00000000  0.75000000  1
  Si  Si19  1  0.00000000  0.50000000  0.75000000  1
  H  H20  1  0.68823300  0.32386600  0.66136000  1
  H  H21  1  0.81176700  0.17613400  0.16136000  1
  H  H22  1  0.32386600  0.31176700  0.33864000  1
  H  H23  1  0.17613400  0.18823300  0.83864000  1
  H  H24  1  0.18823300  0.82386600  0.16136000  1
  H  H25  1  0.31176700  0.67613400  0.66136000  1
  H  H26  1  0.82386600  0.81176700  0.83864000  1
  H  H27  1  0.67613400  0.68823300  0.33864000  1
  O  O28  1  0.85138950  0.15046750  0.58967350  1
  O  O29  1  0.87472100  0.58458500  0.14710400  1
  O  O30  1  0.38446000  0.61141600  0.61581900  1
  O  O31  1  0.91541500  0.37472100  0.35289600  1
  O  O32  1  0.08458500  0.62527900  0.35289600  1
  O  O33  1  0.11554000  0.88858400  0.11581900  1
  O  O34  1  0.11141600  0.11554000  0.88418100  1
  O  O35  1  0.12527900  0.41541500  0.14710400  1
  O  O36  1  0.15046750  0.14861050  0.41032650  1
  O  O37  1  0.64861050  0.34953250  0.08967350  1
  O  O38  1  0.34953250  0.35138950  0.91032650  1
  O  O39  1  0.37667100  0.91227100  0.35289700  1
  O  O40  1  0.38858400  0.38446000  0.38418100  1
  O  O41  1  0.41227100  0.12332900  0.14710300  1
  O  O42  1  0.58772900  0.87667100  0.14710300  1
  O  O43  1  0.62332900  0.08772900  0.35289700  1
  O  O44  1  0.35138950  0.65046750  0.08967350  1
  O  O45  1  0.37472100  0.08458500  0.64710400  1
  O  O46  1  0.88446000  0.11141600  0.11581900  1
  O  O47  1  0.41541500  0.87472100  0.85289600  1
  O  O48  1  0.58458500  0.12527900  0.85289600  1
  O  O49  1  0.61554000  0.38858400  0.61581900  1
  O  O50  1  0.61141600  0.61554000  0.38418100  1
  O  O51  1  0.62527900  0.91541500  0.64710400  1
  O  O52  1  0.65046750  0.64861050  0.91032650  1
  O  O53  1  0.14861050  0.84953250  0.58967350  1
  O  O54  1  0.84953250  0.85138950  0.41032650  1
  O  O55  1  0.87667100  0.41227100  0.85289700  1
  O  O56  1  0.88858400  0.88446000  0.88418100  1
  O  O57  1  0.91227100  0.62332900  0.64710300  1
  O  O58  1  0.08772900  0.37667100  0.64710300  1
  O  O59  1  0.12332900  0.58772900  0.85289700  1
