# generated using pymatgen
data_Ce4Y2O11
_symmetry_space_group_name_H-M   'P 1'
_cell_length_a   3.85853800
_cell_length_b   3.85853800
_cell_length_c   16.35144600
_cell_angle_alpha   90.00000000
_cell_angle_beta   90.00000000
_cell_angle_gamma   90.00000000
_symmetry_Int_Tables_number   1
_chemical_formula_structural   Ce4Y2O11
_chemical_formula_sum   'Ce4 Y2 O11'
_cell_volume   243.44548689
_cell_formula_units_Z   1
loop_
 _symmetry_equiv_pos_site_id
 _symmetry_equiv_pos_as_xyz
  1  'x, y, z'
loop_
 _atom_site_type_symbol
 _atom_site_label
 _atom_site_symmetry_multiplicity
 _atom_site_fract_x
 _atom_site_fract_y
 _atom_site_fract_z
 _atom_site_occupancy
  Ce  Ce0  1  0.50000000  0.00000000  0.24941100  1
  Ce  Ce1  1  0.00000000  0.50000000  0.41665000  1
  Ce  Ce2  1  0.50000000  0.00000000  0.58335000  1
  Ce  Ce3  1  0.00000000  0.50000000  0.75058900  1
  Y  Y4  1  0.50000000  0.00000000  0.90680800  1
  Y  Y5  1  0.00000000  0.50000000  0.09319200  1
  O  O6  1  0.50000000  0.50000000  0.00000000  1
  O  O7  1  0.00000000  0.00000000  0.15390100  1
  O  O8  1  0.50000000  0.50000000  0.17449000  1
  O  O9  1  0.50000000  0.50000000  0.33691200  1
  O  O10  1  0.00000000  0.00000000  0.32908400  1
  O  O11  1  0.00000000  0.00000000  0.50000000  1
  O  O12  1  0.50000000  0.50000000  0.50000000  1
  O  O13  1  0.00000000  0.00000000  0.67091600  1
  O  O14  1  0.50000000  0.50000000  0.66308800  1
  O  O15  1  0.00000000  0.00000000  0.84609900  1
  O  O16  1  0.50000000  0.50000000  0.82551000  1
