# generated using pymatgen
data_NbO2F
_symmetry_space_group_name_H-M   'P 1'
_cell_length_a   9.31754400
_cell_length_b   5.55482200
_cell_length_c   5.66847926
_cell_angle_alpha   90.00000000
_cell_angle_beta   125.16719454
_cell_angle_gamma   90.00000000
_symmetry_Int_Tables_number   1
_chemical_formula_structural   NbO2F
_chemical_formula_sum   'Nb4 O8 F4'
_cell_volume   239.83498785
_cell_formula_units_Z   4
loop_
 _symmetry_equiv_pos_site_id
 _symmetry_equiv_pos_as_xyz
  1  'x, y, z'
loop_
 _atom_site_type_symbol
 _atom_site_label
 _atom_site_symmetry_multiplicity
 _atom_site_fract_x
 _atom_site_fract_y
 _atom_site_fract_z
 _atom_site_occupancy
  Nb  Nb0  1  0.96829650  0.22021450  0.14196800  1
  Nb  Nb1  1  0.96829650  0.77978550  0.64196800  1
  Nb  Nb2  1  0.46829650  0.72021450  0.14196800  1
  Nb  Nb3  1  0.46829650  0.27978550  0.64196800  1
  O  O4  1  0.21804600  0.32067400  0.41410800  1
  O  O5  1  0.00645000  0.95698100  0.39953100  1
  O  O6  1  0.71804600  0.17932600  0.91410800  1
  O  O7  1  0.50645000  0.54301900  0.89953100  1
  O  O8  1  0.71804600  0.82067400  0.41410800  1
  O  O9  1  0.50645000  0.45698100  0.39953100  1
  O  O10  1  0.21804600  0.67932600  0.91410800  1
  O  O11  1  0.00645000  0.04301900  0.89953100  1
  F  F12  1  0.42842300  0.96082900  0.40804100  1
  F  F13  1  0.42842300  0.03917100  0.90804100  1
  F  F14  1  0.92842300  0.46082900  0.40804100  1
  F  F15  1  0.92842300  0.53917100  0.90804100  1
