# generated using pymatgen
data_Ca3Ta2O8
_symmetry_space_group_name_H-M   'P 1'
_cell_length_a   10.06613800
_cell_length_b   8.88022400
_cell_length_c   9.17540931
_cell_angle_alpha   90.00000000
_cell_angle_beta   113.50564554
_cell_angle_gamma   90.00000000
_symmetry_Int_Tables_number   1
_chemical_formula_structural   Ca3Ta2O8
_chemical_formula_sum   'Ca12 Ta8 O32'
_cell_volume   752.12742496
_cell_formula_units_Z   4
loop_
 _symmetry_equiv_pos_site_id
 _symmetry_equiv_pos_as_xyz
  1  'x, y, z'
loop_
 _atom_site_type_symbol
 _atom_site_label
 _atom_site_symmetry_multiplicity
 _atom_site_fract_x
 _atom_site_fract_y
 _atom_site_fract_z
 _atom_site_occupancy
  Ca  Ca0  1  0.83099600  0.56531100  0.49982800  1
  Ca  Ca1  1  0.00000000  0.27593700  0.75000000  1
  Ca  Ca2  1  0.16900400  0.56531100  0.00017200  1
  Ca  Ca3  1  0.83099600  0.43468900  0.99982800  1
  Ca  Ca4  1  0.00000000  0.72406300  0.25000000  1
  Ca  Ca5  1  0.16900400  0.43468900  0.50017200  1
  Ca  Ca6  1  0.33099600  0.06531100  0.49982800  1
  Ca  Ca7  1  0.50000000  0.77593700  0.75000000  1
  Ca  Ca8  1  0.66900400  0.06531100  0.00017200  1
  Ca  Ca9  1  0.33099600  0.93468900  0.99982800  1
  Ca  Ca10  1  0.50000000  0.22406300  0.25000000  1
  Ca  Ca11  1  0.66900400  0.93468900  0.50017200  1
  Ta  Ta12  1  0.92433100  0.85806100  0.87906600  1
  Ta  Ta13  1  0.92433100  0.14193900  0.37906600  1
  Ta  Ta14  1  0.07566900  0.85806100  0.62093400  1
  Ta  Ta15  1  0.07566900  0.14193900  0.12093400  1
  Ta  Ta16  1  0.42433100  0.35806100  0.87906600  1
  Ta  Ta17  1  0.42433100  0.64193900  0.37906600  1
  Ta  Ta18  1  0.57566900  0.35806100  0.62093400  1
  Ta  Ta19  1  0.57566900  0.64193900  0.12093400  1
  O  O20  1  0.12369000  0.81488900  0.85615300  1
  O  O21  1  0.12369000  0.18511100  0.35615300  1
  O  O22  1  0.77702800  0.40209300  0.67887000  1
  O  O23  1  0.94110400  0.65783300  0.96913900  1
  O  O24  1  0.97428700  0.08097500  0.88757900  1
  O  O25  1  0.77702800  0.59790700  0.17887000  1
  O  O26  1  0.94110400  0.34216700  0.46913900  1
  O  O27  1  0.02571300  0.08097500  0.61242100  1
  O  O28  1  0.97428700  0.91902500  0.38757900  1
  O  O29  1  0.05889600  0.65783300  0.53086100  1
  O  O30  1  0.22297200  0.40209300  0.82113000  1
  O  O31  1  0.02571300  0.91902500  0.11242100  1
  O  O32  1  0.05889600  0.34216700  0.03086100  1
  O  O33  1  0.22297200  0.59790700  0.32113000  1
  O  O34  1  0.87631000  0.81488900  0.64384700  1
  O  O35  1  0.87631000  0.18511100  0.14384700  1
  O  O36  1  0.62369000  0.31488900  0.85615300  1
  O  O37  1  0.62369000  0.68511100  0.35615300  1
  O  O38  1  0.27702800  0.90209300  0.67887000  1
  O  O39  1  0.44110400  0.15783300  0.96913900  1
  O  O40  1  0.47428700  0.58097500  0.88757900  1
  O  O41  1  0.27702800  0.09790700  0.17887000  1
  O  O42  1  0.44110400  0.84216700  0.46913900  1
  O  O43  1  0.52571300  0.58097500  0.61242100  1
  O  O44  1  0.47428700  0.41902500  0.38757900  1
  O  O45  1  0.55889600  0.15783300  0.53086100  1
  O  O46  1  0.72297200  0.90209300  0.82113000  1
  O  O47  1  0.52571300  0.41902500  0.11242100  1
  O  O48  1  0.55889600  0.84216700  0.03086100  1
  O  O49  1  0.72297200  0.09790700  0.32113000  1
  O  O50  1  0.37631000  0.31488900  0.64384700  1
  O  O51  1  0.37631000  0.68511100  0.14384700  1
