# generated using pymatgen
data_Cr2(WO4)3
_symmetry_space_group_name_H-M   'P 1'
_cell_length_a   9.14040960
_cell_length_b   9.14040960
_cell_length_c   24.37043797
_cell_angle_alpha   90.00000000
_cell_angle_beta   90.00000000
_cell_angle_gamma   120.00000000
_symmetry_Int_Tables_number   1
_chemical_formula_structural   Cr2(WO4)3
_chemical_formula_sum   'Cr12 W18 O72'
_cell_volume   1763.29623951
_cell_formula_units_Z   6
loop_
 _symmetry_equiv_pos_site_id
 _symmetry_equiv_pos_as_xyz
  1  'x, y, z'
loop_
 _atom_site_type_symbol
 _atom_site_label
 _atom_site_symmetry_multiplicity
 _atom_site_fract_x
 _atom_site_fract_y
 _atom_site_fract_z
 _atom_site_occupancy
  Cr  Cr0  1  0.00000000  0.00000000  0.14051200  1
  Cr  Cr1  1  0.33333333  0.66666667  0.01988667  1
  Cr  Cr2  1  0.33333333  0.66666667  0.31344667  1
  Cr  Cr3  1  0.66666667  0.33333333  0.19282133  1
  Cr  Cr4  1  0.66666667  0.33333333  0.47384533  1
  Cr  Cr5  1  0.00000000  0.00000000  0.35322000  1
  Cr  Cr6  1  0.00000000  0.00000000  0.64678000  1
  Cr  Cr7  1  0.33333333  0.66666667  0.52615467  1
  Cr  Cr8  1  0.33333333  0.66666667  0.80717867  1
  Cr  Cr9  1  0.66666667  0.33333333  0.68655333  1
  Cr  Cr10  1  0.66666667  0.33333333  0.98011333  1
  Cr  Cr11  1  0.00000000  0.00000000  0.85948800  1
  W  W12  1  0.71751867  0.71664433  0.25115633  1
  W  W13  1  0.38331100  0.33245900  0.08217700  1
  W  W14  1  0.66754100  0.05085200  0.08217700  1
  W  W15  1  0.99912567  0.28248133  0.25115633  1
  W  W16  1  0.28335567  0.00087433  0.25115633  1
  W  W17  1  0.94914800  0.61668900  0.08217700  1
  W  W18  1  0.38418533  0.04997767  0.58448967  1
  W  W19  1  0.04997767  0.66579233  0.41551033  1
  W  W20  1  0.33420767  0.38418533  0.41551033  1
  W  W21  1  0.66579233  0.61581467  0.58448967  1
  W  W22  1  0.95002233  0.33420767  0.58448967  1
  W  W23  1  0.61581467  0.95002233  0.41551033  1
  W  W24  1  0.05085200  0.38331100  0.91782300  1
  W  W25  1  0.71664433  0.99912567  0.74884367  1
  W  W26  1  0.00087433  0.71751867  0.74884367  1
  W  W27  1  0.33245900  0.94914800  0.91782300  1
  W  W28  1  0.61668900  0.66754100  0.91782300  1
  W  W29  1  0.28248133  0.28335567  0.74884367  1
  O  O30  1  0.81782333  0.82624067  0.18845667  1
  O  O31  1  0.64284867  0.49475733  0.24154033  1
  O  O32  1  0.81475800  0.97618200  0.09179300  1
  O  O33  1  0.49290733  0.34175067  0.14487667  1
  O  O34  1  0.54219933  0.74893167  0.26770167  1
  O  O35  1  0.20552967  0.08201533  0.30505433  1
  O  O36  1  0.41559833  0.54006567  0.06563167  1
  O  O37  1  0.74868200  0.20981900  0.02827900  1
  O  O38  1  0.65824933  0.15115667  0.14487667  1
  O  O39  1  0.16142400  0.18524200  0.09179300  1
  O  O40  1  0.79018100  0.53886300  0.02827900  1
  O  O41  1  0.45993433  0.87553267  0.06563167  1
  O  O42  1  0.20673233  0.45780067  0.26770167  1
  O  O43  1  0.87648567  0.79447033  0.30505433  1
  O  O44  1  0.50524267  0.14809133  0.24154033  1
  O  O45  1  0.00841733  0.18217667  0.18845667  1
  O  O46  1  0.91798467  0.12351433  0.30505433  1
  O  O47  1  0.25106833  0.79326767  0.26770167  1
  O  O48  1  0.46113700  0.25131800  0.02827900  1
  O  O49  1  0.12446733  0.58440167  0.06563167  1
  O  O50  1  0.17375933  0.99158267  0.18845667  1
  O  O51  1  0.85190867  0.35715133  0.24154033  1
  O  O52  1  0.02381800  0.83857600  0.09179300  1
  O  O53  1  0.84884333  0.50709267  0.14487667  1
  O  O54  1  0.48449000  0.15957400  0.52179000  1
  O  O55  1  0.30951533  0.82809067  0.57487367  1
  O  O56  1  0.48142467  0.30951533  0.42512633  1
  O  O57  1  0.15957400  0.67508400  0.47821000  1
  O  O58  1  0.20886600  0.08226500  0.60103500  1
  O  O59  1  0.87219633  0.41534867  0.63838767  1
  O  O60  1  0.08226500  0.87339900  0.39896500  1
  O  O61  1  0.41534867  0.54315233  0.36161233  1
  O  O62  1  0.32491600  0.48449000  0.47821000  1
  O  O63  1  0.82809067  0.51857533  0.42512633  1
  O  O64  1  0.45684767  0.87219633  0.36161233  1
  O  O65  1  0.12660100  0.20886600  0.39896500  1
  O  O66  1  0.87339900  0.79113400  0.60103500  1
  O  O67  1  0.54315233  0.12780367  0.63838767  1
  O  O68  1  0.17190933  0.48142467  0.57487367  1
  O  O69  1  0.67508400  0.51551000  0.52179000  1
  O  O70  1  0.58465133  0.45684767  0.63838767  1
  O  O71  1  0.91773500  0.12660100  0.60103500  1
  O  O72  1  0.12780367  0.58465133  0.36161233  1
  O  O73  1  0.79113400  0.91773500  0.39896500  1
  O  O74  1  0.84042600  0.32491600  0.52179000  1
  O  O75  1  0.51857533  0.69048467  0.57487367  1
  O  O76  1  0.69048467  0.17190933  0.42512633  1
  O  O77  1  0.51551000  0.84042600  0.47821000  1
  O  O78  1  0.15115667  0.49290733  0.85512333  1
  O  O79  1  0.97618200  0.16142400  0.90820700  1
  O  O80  1  0.14809133  0.64284867  0.75845967  1
  O  O81  1  0.82624067  0.00841733  0.81154333  1
  O  O82  1  0.87553267  0.41559833  0.93436833  1
  O  O83  1  0.53886300  0.74868200  0.97172100  1
  O  O84  1  0.74893167  0.20673233  0.73229833  1
  O  O85  1  0.08201533  0.87648567  0.69494567  1
  O  O86  1  0.99158267  0.81782333  0.81154333  1
  O  O87  1  0.49475733  0.85190867  0.75845967  1
  O  O88  1  0.12351433  0.20552967  0.69494567  1
  O  O89  1  0.79326767  0.54219933  0.73229833  1
  O  O90  1  0.54006567  0.12446733  0.93436833  1
  O  O91  1  0.20981900  0.46113700  0.97172100  1
  O  O92  1  0.83857600  0.81475800  0.90820700  1
  O  O93  1  0.34175067  0.84884333  0.85512333  1
  O  O94  1  0.25131800  0.79018100  0.97172100  1
  O  O95  1  0.58440167  0.45993433  0.93436833  1
  O  O96  1  0.79447033  0.91798467  0.69494567  1
  O  O97  1  0.45780067  0.25106833  0.73229833  1
  O  O98  1  0.50709267  0.65824933  0.85512333  1
  O  O99  1  0.18524200  0.02381800  0.90820700  1
  O  O100  1  0.35715133  0.50524267  0.75845967  1
  O  O101  1  0.18217667  0.17375933  0.81154333  1
