# generated using pymatgen
data_TiP2O7
_symmetry_space_group_name_H-M   'P 1'
_cell_length_a   8.80612900
_cell_length_b   5.20305300
_cell_length_c   13.26938207
_cell_angle_alpha   90.00000000
_cell_angle_beta   116.44118962
_cell_angle_gamma   90.00000000
_symmetry_Int_Tables_number   1
_chemical_formula_structural   TiP2O7
_chemical_formula_sum   'Ti4 P8 O28'
_cell_volume   544.38624716
_cell_formula_units_Z   4
loop_
 _symmetry_equiv_pos_site_id
 _symmetry_equiv_pos_as_xyz
  1  'x, y, z'
loop_
 _atom_site_type_symbol
 _atom_site_label
 _atom_site_symmetry_multiplicity
 _atom_site_fract_x
 _atom_site_fract_y
 _atom_site_fract_z
 _atom_site_occupancy
  Ti  Ti0  1  0.72665900  0.74004100  0.46307200  1
  Ti  Ti1  1  0.27334100  0.24004100  0.03692800  1
  Ti  Ti2  1  0.72665900  0.75995900  0.96307200  1
  Ti  Ti3  1  0.27334100  0.25995900  0.53692800  1
  P  P4  1  0.84156900  0.25587700  0.36022700  1
  P  P5  1  0.31504200  0.72777900  0.88651700  1
  P  P6  1  0.15843100  0.75587700  0.13977300  1
  P  P7  1  0.31504200  0.77222100  0.38651700  1
  P  P8  1  0.68495800  0.22777900  0.61348300  1
  P  P9  1  0.84156900  0.24412300  0.86022700  1
  P  P10  1  0.68495800  0.27222100  0.11348300  1
  P  P11  1  0.15843100  0.74412300  0.63977300  1
  O  O12  1  0.76066900  0.51846000  0.35657500  1
  O  O13  1  0.74093500  0.03629100  0.37845700  1
  O  O14  1  0.51854600  0.23318200  0.12231800  1
  O  O15  1  0.29812000  0.45456900  0.92119400  1
  O  O16  1  0.16457000  0.77915100  0.76199700  1
  O  O17  1  0.28425800  0.92739700  0.95884800  1
  O  O18  1  0.97181600  0.75551800  0.55726600  1
  O  O19  1  0.48145400  0.73318200  0.37768200  1
  O  O20  1  0.25906500  0.53629100  0.12154300  1
  O  O21  1  0.23933100  0.01846000  0.14342500  1
  O  O22  1  0.02818400  0.25551800  0.94273400  1
  O  O23  1  0.29812000  0.04543100  0.42119400  1
  O  O24  1  0.71574200  0.42739700  0.54115200  1
  O  O25  1  0.83543000  0.27915100  0.73800300  1
  O  O26  1  0.16457000  0.72084900  0.26199700  1
  O  O27  1  0.28425800  0.57260300  0.45884800  1
  O  O28  1  0.70188000  0.95456900  0.57880600  1
  O  O29  1  0.97181600  0.74448200  0.05726600  1
  O  O30  1  0.76066900  0.98154000  0.85657500  1
  O  O31  1  0.74093500  0.46370900  0.87845700  1
  O  O32  1  0.51854600  0.26681800  0.62231800  1
  O  O33  1  0.02818400  0.24448200  0.44273400  1
  O  O34  1  0.71574200  0.07260300  0.04115200  1
  O  O35  1  0.83543000  0.22084900  0.23800300  1
  O  O36  1  0.70188000  0.54543100  0.07880600  1
  O  O37  1  0.48145400  0.76681800  0.87768200  1
  O  O38  1  0.25906500  0.96370900  0.62154300  1
  O  O39  1  0.23933100  0.48154000  0.64342500  1
