# generated using pymatgen
data_Li4Ti3V2Cr3O16
_symmetry_space_group_name_H-M   'P 1'
_cell_length_a   10.22878200
_cell_length_b   5.93323800
_cell_length_c   9.55519028
_cell_angle_alpha   90.00000000
_cell_angle_beta   90.87737681
_cell_angle_gamma   90.00000000
_symmetry_Int_Tables_number   1
_chemical_formula_structural   Li4Ti3V2Cr3O16
_chemical_formula_sum   'Li8 Ti6 V4 Cr6 O32'
_cell_volume   579.83457891
_cell_formula_units_Z   2
loop_
 _symmetry_equiv_pos_site_id
 _symmetry_equiv_pos_as_xyz
  1  'x, y, z'
loop_
 _atom_site_type_symbol
 _atom_site_label
 _atom_site_symmetry_multiplicity
 _atom_site_fract_x
 _atom_site_fract_y
 _atom_site_fract_z
 _atom_site_occupancy
  Li  Li0  1  0.66626800  0.00000000  0.89130500  1
  Li  Li1  1  0.99614900  0.00000000  0.99315200  1
  Li  Li2  1  0.99787500  0.00000000  0.49791700  1
  Li  Li3  1  0.33427600  0.00000000  0.39794300  1
  Li  Li4  1  0.16626800  0.50000000  0.89130500  1
  Li  Li5  1  0.49614900  0.50000000  0.99315200  1
  Li  Li6  1  0.49787500  0.50000000  0.49791700  1
  Li  Li7  1  0.83427600  0.50000000  0.39794300  1
  Ti  Ti8  1  0.58542100  0.24905700  0.21452800  1
  Ti  Ti9  1  0.58542100  0.75094300  0.21452800  1
  Ti  Ti10  1  0.17322900  0.00000000  0.71910500  1
  Ti  Ti11  1  0.08542100  0.74905700  0.21452800  1
  Ti  Ti12  1  0.08542100  0.25094300  0.21452800  1
  Ti  Ti13  1  0.67322900  0.50000000  0.71910500  1
  V  V14  1  0.67144900  0.00000000  0.49307200  1
  V  V15  1  0.33766100  0.00000000  0.98636400  1
  V  V16  1  0.17144900  0.50000000  0.49307200  1
  V  V17  1  0.83766100  0.50000000  0.98636400  1
  Cr  Cr18  1  0.82935100  0.00000000  0.21246200  1
  Cr  Cr19  1  0.41779500  0.24157800  0.71313100  1
  Cr  Cr20  1  0.41779500  0.75842200  0.71313100  1
  Cr  Cr21  1  0.32935100  0.50000000  0.21246200  1
  Cr  Cr22  1  0.91779500  0.74157800  0.71313100  1
  Cr  Cr23  1  0.91779500  0.25842200  0.71313100  1
  O  O24  1  0.58428900  0.24981200  0.59622800  1
  O  O25  1  0.52223600  0.00000000  0.34035200  1
  O  O26  1  0.65924700  0.00000000  0.10352400  1
  O  O27  1  0.00131900  0.00000000  0.31168000  1
  O  O28  1  0.00361400  0.00000000  0.80699400  1
  O  O29  1  0.58428900  0.75018800  0.59622800  1
  O  O30  1  0.73761800  0.22075600  0.34085700  1
  O  O31  1  0.73761800  0.77924400  0.34085700  1
  O  O32  1  0.16213500  0.00000000  0.10738600  1
  O  O33  1  0.82643300  0.00000000  0.59379800  1
  O  O34  1  0.25836000  0.21881600  0.84015600  1
  O  O35  1  0.25836000  0.78118400  0.84015600  1
  O  O36  1  0.32744000  0.00000000  0.60353400  1
  O  O37  1  0.42093850  0.25277650  0.10115600  1
  O  O38  1  0.48359100  0.00000000  0.83701100  1
  O  O39  1  0.42093850  0.74722350  0.10115600  1
  O  O40  1  0.08428900  0.74981200  0.59622800  1
  O  O41  1  0.02223600  0.50000000  0.34035200  1
  O  O42  1  0.15924700  0.50000000  0.10352400  1
  O  O43  1  0.50131900  0.50000000  0.31168000  1
  O  O44  1  0.50361400  0.50000000  0.80699400  1
  O  O45  1  0.08428900  0.25018800  0.59622800  1
  O  O46  1  0.23761800  0.72075600  0.34085700  1
  O  O47  1  0.23761800  0.27924400  0.34085700  1
  O  O48  1  0.66213500  0.50000000  0.10738600  1
  O  O49  1  0.32643300  0.50000000  0.59379800  1
  O  O50  1  0.75836000  0.71881600  0.84015600  1
  O  O51  1  0.75836000  0.28118400  0.84015600  1
  O  O52  1  0.82744000  0.50000000  0.60353400  1
  O  O53  1  0.92093850  0.75277650  0.10115600  1
  O  O54  1  0.98359100  0.50000000  0.83701100  1
  O  O55  1  0.92093850  0.24722350  0.10115600  1
