# generated using pymatgen
data_Sm3TaO7
_symmetry_space_group_name_H-M   'P 1'
_cell_length_a   7.66512800
_cell_length_b   10.80654600
_cell_length_c   7.65392600
_cell_angle_alpha   90.00000000
_cell_angle_beta   90.00000000
_cell_angle_gamma   90.00000000
_symmetry_Int_Tables_number   1
_chemical_formula_structural   Sm3TaO7
_chemical_formula_sum   'Sm12 Ta4 O28'
_cell_volume   634.00192576
_cell_formula_units_Z   4
loop_
 _symmetry_equiv_pos_site_id
 _symmetry_equiv_pos_as_xyz
  1  'x, y, z'
loop_
 _atom_site_type_symbol
 _atom_site_label
 _atom_site_symmetry_multiplicity
 _atom_site_fract_x
 _atom_site_fract_y
 _atom_site_fract_z
 _atom_site_occupancy
  Sm  Sm0  1  0.23269400  0.76794300  0.25393400  1
  Sm  Sm1  1  0.76730600  0.76794300  0.24606600  1
  Sm  Sm2  1  0.47693400  0.00000000  0.00000000  1
  Sm  Sm3  1  0.52306600  0.00000000  0.50000000  1
  Sm  Sm4  1  0.76730600  0.23205700  0.75393400  1
  Sm  Sm5  1  0.23269400  0.23205700  0.74606600  1
  Sm  Sm6  1  0.73269400  0.26794300  0.25393400  1
  Sm  Sm7  1  0.26730600  0.26794300  0.24606600  1
  Sm  Sm8  1  0.97693400  0.50000000  0.00000000  1
  Sm  Sm9  1  0.02306600  0.50000000  0.50000000  1
  Sm  Sm10  1  0.26730600  0.73205700  0.75393400  1
  Sm  Sm11  1  0.73269400  0.73205700  0.74606600  1
  Ta  Ta12  1  0.00226400  0.00000000  0.50000000  1
  Ta  Ta13  1  0.99773600  0.00000000  0.00000000  1
  Ta  Ta14  1  0.50226400  0.50000000  0.50000000  1
  Ta  Ta15  1  0.49773600  0.50000000  0.00000000  1
  O  O16  1  0.50000000  0.56101400  0.75000000  1
  O  O17  1  0.50000000  0.86367200  0.75000000  1
  O  O18  1  0.18470900  0.87444400  0.53530400  1
  O  O19  1  0.81529100  0.87444400  0.96469600  1
  O  O20  1  0.50000000  0.87048500  0.25000000  1
  O  O21  1  0.80081450  0.87815550  0.52701500  1
  O  O22  1  0.19918550  0.87815550  0.97298500  1
  O  O23  1  0.19918550  0.12184450  0.02701500  1
  O  O24  1  0.80081450  0.12184450  0.47298500  1
  O  O25  1  0.50000000  0.12951500  0.75000000  1
  O  O26  1  0.81529100  0.12555600  0.03530400  1
  O  O27  1  0.18470900  0.12555600  0.46469600  1
  O  O28  1  0.50000000  0.13632800  0.25000000  1
  O  O29  1  0.50000000  0.43898600  0.25000000  1
  O  O30  1  0.00000000  0.06101400  0.75000000  1
  O  O31  1  0.00000000  0.36367200  0.75000000  1
  O  O32  1  0.68470900  0.37444400  0.53530400  1
  O  O33  1  0.31529100  0.37444400  0.96469600  1
  O  O34  1  0.00000000  0.37048500  0.25000000  1
  O  O35  1  0.30081450  0.37815550  0.52701500  1
  O  O36  1  0.69918550  0.37815550  0.97298500  1
  O  O37  1  0.69918550  0.62184450  0.02701500  1
  O  O38  1  0.30081450  0.62184450  0.47298500  1
  O  O39  1  0.00000000  0.62951500  0.75000000  1
  O  O40  1  0.31529100  0.62555600  0.03530400  1
  O  O41  1  0.68470900  0.62555600  0.46469600  1
  O  O42  1  0.00000000  0.63632800  0.25000000  1
  O  O43  1  0.00000000  0.93898600  0.25000000  1
