# generated using pymatgen
data_Si(HgO2)2
_symmetry_space_group_name_H-M   'P 1'
_cell_length_a   6.60454200
_cell_length_b   11.22481800
_cell_length_c   11.37157600
_cell_angle_alpha   90.00000000
_cell_angle_beta   90.00000000
_cell_angle_gamma   90.00000000
_symmetry_Int_Tables_number   1
_chemical_formula_structural   Si(HgO2)2
_chemical_formula_sum   'Si8 Hg16 O32'
_cell_volume   843.02930688
_cell_formula_units_Z   8
loop_
 _symmetry_equiv_pos_site_id
 _symmetry_equiv_pos_as_xyz
  1  'x, y, z'
loop_
 _atom_site_type_symbol
 _atom_site_label
 _atom_site_symmetry_multiplicity
 _atom_site_fract_x
 _atom_site_fract_y
 _atom_site_fract_z
 _atom_site_occupancy
  Si  Si0  1  0.00000000  0.00000000  0.00000000  1
  Si  Si1  1  0.75000000  0.75000000  0.25000000  1
  Si  Si2  1  0.00000000  0.50000000  0.50000000  1
  Si  Si3  1  0.75000000  0.25000000  0.75000000  1
  Si  Si4  1  0.50000000  0.00000000  0.50000000  1
  Si  Si5  1  0.25000000  0.75000000  0.75000000  1
  Si  Si6  1  0.50000000  0.50000000  0.00000000  1
  Si  Si7  1  0.25000000  0.25000000  0.25000000  1
  Hg  Hg8  1  0.75000000  0.43490800  0.25000000  1
  Hg  Hg9  1  0.75000000  0.06509200  0.25000000  1
  Hg  Hg10  1  0.50000000  0.81509200  0.00000000  1
  Hg  Hg11  1  0.50000000  0.18490800  0.00000000  1
  Hg  Hg12  1  0.75000000  0.93490800  0.75000000  1
  Hg  Hg13  1  0.75000000  0.56509200  0.75000000  1
  Hg  Hg14  1  0.50000000  0.31509200  0.50000000  1
  Hg  Hg15  1  0.50000000  0.68490800  0.50000000  1
  Hg  Hg16  1  0.25000000  0.43490800  0.75000000  1
  Hg  Hg17  1  0.25000000  0.06509200  0.75000000  1
  Hg  Hg18  1  0.00000000  0.81509200  0.50000000  1
  Hg  Hg19  1  0.00000000  0.18490800  0.50000000  1
  Hg  Hg20  1  0.25000000  0.93490800  0.25000000  1
  Hg  Hg21  1  0.25000000  0.56509200  0.25000000  1
  Hg  Hg22  1  0.00000000  0.31509200  0.00000000  1
  Hg  Hg23  1  0.00000000  0.68490800  0.00000000  1
  O  O24  1  0.63996650  0.40858150  0.08042000  1
  O  O25  1  0.63996650  0.09141850  0.41958000  1
  O  O26  1  0.86003350  0.09141850  0.08042000  1
  O  O27  1  0.86003350  0.40858150  0.41958000  1
  O  O28  1  0.88996650  0.84141850  0.33042000  1
  O  O29  1  0.38996650  0.15858150  0.16958000  1
  O  O30  1  0.11003350  0.15858150  0.33042000  1
  O  O31  1  0.61003350  0.84141850  0.16958000  1
  O  O32  1  0.63996650  0.90858150  0.58042000  1
  O  O33  1  0.63996650  0.59141850  0.91958000  1
  O  O34  1  0.86003350  0.59141850  0.58042000  1
  O  O35  1  0.86003350  0.90858150  0.91958000  1
  O  O36  1  0.88996650  0.34141850  0.83042000  1
  O  O37  1  0.38996650  0.65858150  0.66958000  1
  O  O38  1  0.11003350  0.65858150  0.83042000  1
  O  O39  1  0.61003350  0.34141850  0.66958000  1
  O  O40  1  0.13996650  0.40858150  0.58042000  1
  O  O41  1  0.13996650  0.09141850  0.91958000  1
  O  O42  1  0.36003350  0.09141850  0.58042000  1
  O  O43  1  0.36003350  0.40858150  0.91958000  1
  O  O44  1  0.38996650  0.84141850  0.83042000  1
  O  O45  1  0.88996650  0.15858150  0.66958000  1
  O  O46  1  0.61003350  0.15858150  0.83042000  1
  O  O47  1  0.11003350  0.84141850  0.66958000  1
  O  O48  1  0.13996650  0.90858150  0.08042000  1
  O  O49  1  0.13996650  0.59141850  0.41958000  1
  O  O50  1  0.36003350  0.59141850  0.08042000  1
  O  O51  1  0.36003350  0.90858150  0.41958000  1
  O  O52  1  0.38996650  0.34141850  0.33042000  1
  O  O53  1  0.88996650  0.65858150  0.16958000  1
  O  O54  1  0.61003350  0.65858150  0.33042000  1
  O  O55  1  0.11003350  0.34141850  0.16958000  1
