# generated using pymatgen
data_TbFeGe2O7
_symmetry_space_group_name_H-M   'P 1'
_cell_length_a   10.87009000
_cell_length_b   8.63898600
_cell_length_c   6.77961024
_cell_angle_alpha   90.00000000
_cell_angle_beta   117.46556625
_cell_angle_gamma   90.00000000
_symmetry_Int_Tables_number   1
_chemical_formula_structural   TbFeGe2O7
_chemical_formula_sum   'Tb4 Fe4 Ge8 O28'
_cell_volume   564.89187857
_cell_formula_units_Z   4
loop_
 _symmetry_equiv_pos_site_id
 _symmetry_equiv_pos_as_xyz
  1  'x, y, z'
loop_
 _atom_site_type_symbol
 _atom_site_label
 _atom_site_symmetry_multiplicity
 _atom_site_fract_x
 _atom_site_fract_y
 _atom_site_fract_z
 _atom_site_occupancy
  Tb  Tb0  1  0.00000000  0.78904500  0.00000000  1
  Tb  Tb1  1  0.00000000  0.21095500  0.00000000  1
  Tb  Tb2  1  0.50000000  0.28904500  0.00000000  1
  Tb  Tb3  1  0.50000000  0.71095500  0.00000000  1
  Fe  Fe4  1  0.00000000  0.69690600  0.50000000  1
  Fe  Fe5  1  0.00000000  0.30309400  0.50000000  1
  Fe  Fe6  1  0.50000000  0.19690600  0.50000000  1
  Fe  Fe7  1  0.50000000  0.80309400  0.50000000  1
  Ge  Ge8  1  0.72085400  0.50000000  0.52027800  1
  Ge  Ge9  1  0.27914600  0.50000000  0.47972200  1
  Ge  Ge10  1  0.19834600  0.50000000  0.92257900  1
  Ge  Ge11  1  0.80165400  0.50000000  0.07742100  1
  Ge  Ge12  1  0.22085400  0.00000000  0.52027800  1
  Ge  Ge13  1  0.77914600  0.00000000  0.47972200  1
  Ge  Ge14  1  0.69834600  0.00000000  0.92257900  1
  Ge  Ge15  1  0.30165400  0.00000000  0.07742100  1
  O  O16  1  0.11203200  0.67881600  0.82756700  1
  O  O17  1  0.88796800  0.67881600  0.17243300  1
  O  O18  1  0.88796800  0.32118400  0.17243300  1
  O  O19  1  0.11203200  0.32118400  0.82756700  1
  O  O20  1  0.86773600  0.50000000  0.46588100  1
  O  O21  1  0.13226400  0.50000000  0.53411900  1
  O  O22  1  0.81786300  0.50000000  0.81874900  1
  O  O23  1  0.18213700  0.50000000  0.18125100  1
  O  O24  1  0.63056900  0.50000000  0.03408800  1
  O  O25  1  0.36943100  0.50000000  0.96591200  1
  O  O26  1  0.11205250  0.83587150  0.40543600  1
  O  O27  1  0.88794750  0.83587150  0.59456400  1
  O  O28  1  0.88794750  0.16412850  0.59456400  1
  O  O29  1  0.11205250  0.16412850  0.40543600  1
  O  O30  1  0.61203200  0.17881600  0.82756700  1
  O  O31  1  0.38796800  0.17881600  0.17243300  1
  O  O32  1  0.38796800  0.82118400  0.17243300  1
  O  O33  1  0.61203200  0.82118400  0.82756700  1
  O  O34  1  0.36773600  0.00000000  0.46588100  1
  O  O35  1  0.63226400  0.00000000  0.53411900  1
  O  O36  1  0.31786300  0.00000000  0.81874900  1
  O  O37  1  0.68213700  0.00000000  0.18125100  1
  O  O38  1  0.13056900  0.00000000  0.03408800  1
  O  O39  1  0.86943100  0.00000000  0.96591200  1
  O  O40  1  0.61205250  0.33587150  0.40543600  1
  O  O41  1  0.38794750  0.33587150  0.59456400  1
  O  O42  1  0.38794750  0.66412850  0.59456400  1
  O  O43  1  0.61205250  0.66412850  0.40543600  1
