# generated using pymatgen
data_Li2Fe2Ni(PO4)3
_symmetry_space_group_name_H-M   'P 1'
_cell_length_a   14.34434752
_cell_length_b   8.91204816
_cell_length_c   8.35191735
_cell_angle_alpha   90.00000000
_cell_angle_beta   121.14119682
_cell_angle_gamma   90.00000000
_symmetry_Int_Tables_number   1
_chemical_formula_structural   Li2Fe2Ni(PO4)3
_chemical_formula_sum   'Li8 Fe8 Ni4 P12 O48'
_cell_volume   913.82963190
_cell_formula_units_Z   4
loop_
 _symmetry_equiv_pos_site_id
 _symmetry_equiv_pos_as_xyz
  1  'x, y, z'
loop_
 _atom_site_type_symbol
 _atom_site_label
 _atom_site_symmetry_multiplicity
 _atom_site_fract_x
 _atom_site_fract_y
 _atom_site_fract_z
 _atom_site_occupancy
  Li  Li0  1  0.00000000  0.85808000  0.00000000  1
  Li  Li1  1  0.50000000  0.65218100  0.50000000  1
  Li  Li2  1  0.70039750  0.05014050  0.89947600  1
  Li  Li3  1  0.79960250  0.55014050  0.10052400  1
  Li  Li4  1  0.50000000  0.35808000  0.00000000  1
  Li  Li5  1  0.00000000  0.15218100  0.50000000  1
  Li  Li6  1  0.20039750  0.55014050  0.89947600  1
  Li  Li7  1  0.29960250  0.05014050  0.10052400  1
  Fe  Fe8  1  0.10583800  0.74776200  0.39697800  1
  Fe  Fe9  1  0.89416200  0.74776200  0.60302200  1
  Fe  Fe10  1  0.59669300  0.75087900  0.90192800  1
  Fe  Fe11  1  0.40330700  0.75087900  0.09807200  1
  Fe  Fe12  1  0.60583800  0.24776200  0.39697800  1
  Fe  Fe13  1  0.39416200  0.24776200  0.60302200  1
  Fe  Fe14  1  0.09669300  0.25087900  0.90192800  1
  Fe  Fe15  1  0.90330700  0.25087900  0.09807200  1
  Ni  Ni16  1  0.25308000  0.74860500  0.25587100  1
  Ni  Ni17  1  0.74692000  0.74860500  0.74412900  1
  Ni  Ni18  1  0.75308000  0.24860500  0.25587100  1
  Ni  Ni19  1  0.24692000  0.24860500  0.74412900  1
  P  P20  1  0.65571900  0.59658000  0.31128600  1
  P  P21  1  0.84428100  0.09658000  0.68871400  1
  P  P22  1  0.00000000  0.55807600  0.00000000  1
  P  P23  1  0.50000000  0.95401400  0.50000000  1
  P  P24  1  0.64619900  0.39822600  0.80280400  1
  P  P25  1  0.85380100  0.89822600  0.19719600  1
  P  P26  1  0.15571900  0.09658000  0.31128600  1
  P  P27  1  0.34428100  0.59658000  0.68871400  1
  P  P28  1  0.50000000  0.05807600  0.00000000  1
  P  P29  1  0.00000000  0.45401400  0.50000000  1
  P  P30  1  0.14619900  0.89822600  0.80280400  1
  P  P31  1  0.35380100  0.39822600  0.19719600  1
  O  O32  1  0.84909150  0.83650350  0.36293600  1
  O  O33  1  0.94486650  0.55354150  0.57542200  1
  O  O34  1  0.66855550  0.42076250  0.31367300  1
  O  O35  1  0.03631650  0.85638050  0.78172800  1
  O  O36  1  0.54486050  0.64208150  0.28293100  1
  O  O37  1  0.74112050  0.66463450  0.50591700  1
  O  O38  1  0.75887950  0.16463450  0.49408300  1
  O  O39  1  0.83144450  0.92076250  0.68632700  1
  O  O40  1  0.55513350  0.05354150  0.42457800  1
  O  O41  1  0.91165100  0.66925700  0.85038300  1
  O  O42  1  0.41033300  0.84658100  0.35066700  1
  O  O43  1  0.15090850  0.83650350  0.63706400  1
  O  O44  1  0.82596050  0.14567650  0.84580300  1
  O  O45  1  0.08834900  0.66925700  0.14961700  1
  O  O46  1  0.58966700  0.84658100  0.64933300  1
  O  O47  1  0.93645950  0.46773050  0.06641000  1
  O  O48  1  0.66908600  0.57091400  0.81242200  1
  O  O49  1  0.73452900  0.33407100  0.99885600  1
  O  O50  1  0.76547100  0.83407100  0.00114400  1
  O  O51  1  0.96368350  0.85638050  0.21827200  1
  O  O52  1  0.45513950  0.64208150  0.71706900  1
  O  O53  1  0.83091400  0.07091400  0.18757800  1
  O  O54  1  0.56354050  0.96773050  0.93359000  1
  O  O55  1  0.67403950  0.64567650  0.15419700  1
  O  O56  1  0.34909150  0.33650350  0.36293600  1
  O  O57  1  0.44486650  0.05354150  0.57542200  1
  O  O58  1  0.16855550  0.92076250  0.31367300  1
  O  O59  1  0.53631650  0.35638050  0.78172800  1
  O  O60  1  0.04486050  0.14208150  0.28293100  1
  O  O61  1  0.24112050  0.16463450  0.50591700  1
  O  O62  1  0.25887950  0.66463450  0.49408300  1
  O  O63  1  0.33144450  0.42076250  0.68632700  1
  O  O64  1  0.05513350  0.55354150  0.42457800  1
  O  O65  1  0.41165100  0.16925700  0.85038300  1
  O  O66  1  0.91033300  0.34658100  0.35066700  1
  O  O67  1  0.65090850  0.33650350  0.63706400  1
  O  O68  1  0.32596050  0.64567650  0.84580300  1
  O  O69  1  0.58834900  0.16925700  0.14961700  1
  O  O70  1  0.08966700  0.34658100  0.64933300  1
  O  O71  1  0.43645950  0.96773050  0.06641000  1
  O  O72  1  0.16908600  0.07091400  0.81242200  1
  O  O73  1  0.23452900  0.83407100  0.99885600  1
  O  O74  1  0.26547100  0.33407100  0.00114400  1
  O  O75  1  0.46368350  0.35638050  0.21827200  1
  O  O76  1  0.95513950  0.14208150  0.71706900  1
  O  O77  1  0.33091400  0.57091400  0.18757800  1
  O  O78  1  0.06354050  0.46773050  0.93359000  1
  O  O79  1  0.17403950  0.14567650  0.15419700  1
