# generated using pymatgen
data_SrV2P2(H4O7)2
_symmetry_space_group_name_H-M   'P 1'
_cell_length_a   9.10166200
_cell_length_b   9.10724400
_cell_length_c   13.13046363
_cell_angle_alpha   90.00000000
_cell_angle_beta   100.58254718
_cell_angle_gamma   90.00000000
_symmetry_Int_Tables_number   1
_chemical_formula_structural   SrV2P2(H4O7)2
_chemical_formula_sum   'Sr4 V8 P8 H32 O56'
_cell_volume   1069.88580967
_cell_formula_units_Z   4
loop_
 _symmetry_equiv_pos_site_id
 _symmetry_equiv_pos_as_xyz
  1  'x, y, z'
loop_
 _atom_site_type_symbol
 _atom_site_label
 _atom_site_symmetry_multiplicity
 _atom_site_fract_x
 _atom_site_fract_y
 _atom_site_fract_z
 _atom_site_occupancy
  Sr  Sr0  1  0.26166750  0.80624350  0.22084500  1
  Sr  Sr1  1  0.26166750  0.19375650  0.72084500  1
  Sr  Sr2  1  0.76166750  0.30624350  0.22084500  1
  Sr  Sr3  1  0.76166750  0.69375650  0.72084500  1
  V  V4  1  0.13691100  0.88956200  0.51876500  1
  V  V5  1  0.13691100  0.11043800  0.01876500  1
  V  V6  1  0.61743950  0.88017750  0.43460200  1
  V  V7  1  0.61743950  0.11982250  0.93460200  1
  V  V8  1  0.63691100  0.38956200  0.51876500  1
  V  V9  1  0.63691100  0.61043800  0.01876500  1
  V  V10  1  0.11743950  0.38017750  0.43460200  1
  V  V11  1  0.11743950  0.61982250  0.93460200  1
  P  P12  1  0.37247900  0.63881700  0.47485800  1
  P  P13  1  0.37247900  0.36118300  0.97485800  1
  P  P14  1  0.37634500  0.13558000  0.47673600  1
  P  P15  1  0.37634500  0.86442000  0.97673600  1
  P  P16  1  0.87247900  0.13881700  0.47485800  1
  P  P17  1  0.87247900  0.86118300  0.97485800  1
  P  P18  1  0.87634500  0.63558000  0.47673600  1
  P  P19  1  0.87634500  0.36442000  0.97673600  1
  H  H20  1  0.21565950  0.85419050  0.76783500  1
  H  H21  1  0.21565950  0.14580950  0.26783500  1
  H  H22  1  0.56363500  0.42660100  0.71786300  1
  H  H23  1  0.56363500  0.57339900  0.21786300  1
  H  H24  1  0.55782750  0.84480150  0.16774400  1
  H  H25  1  0.55782750  0.15519850  0.66774400  1
  H  H26  1  0.66487450  0.95512350  0.23632600  1
  H  H27  1  0.66487450  0.04487650  0.73632600  1
  H  H28  1  0.88262200  0.95479300  0.16972000  1
  H  H29  1  0.88262200  0.04520700  0.66972000  1
  H  H30  1  0.90594650  0.97988950  0.29150300  1
  H  H31  1  0.90594650  0.02011050  0.79150300  1
  H  H32  1  0.49921300  0.18965400  0.30569100  1
  H  H33  1  0.49921300  0.81034600  0.80569100  1
  H  H34  1  0.48643850  0.11339850  0.19942500  1
  H  H35  1  0.48643850  0.88660150  0.69942500  1
  H  H36  1  0.71565950  0.35419050  0.76783500  1
  H  H37  1  0.71565950  0.64580950  0.26783500  1
  H  H38  1  0.06363500  0.92660100  0.71786300  1
  H  H39  1  0.06363500  0.07339900  0.21786300  1
  H  H40  1  0.05782750  0.34480150  0.16774400  1
  H  H41  1  0.05782750  0.65519850  0.66774400  1
  H  H42  1  0.16487450  0.45512350  0.23632600  1
  H  H43  1  0.16487450  0.54487650  0.73632600  1
  H  H44  1  0.38262200  0.45479300  0.16972000  1
  H  H45  1  0.38262200  0.54520700  0.66972000  1
  H  H46  1  0.40594650  0.47988950  0.29150300  1
  H  H47  1  0.40594650  0.52011050  0.79150300  1
  H  H48  1  0.99921300  0.68965400  0.30569100  1
  H  H49  1  0.99921300  0.31034600  0.80569100  1
  H  H50  1  0.98643850  0.61339850  0.19942500  1
  H  H51  1  0.98643850  0.38660150  0.69942500  1
  O  O52  1  0.60742350  0.39229750  0.39117700  1
  O  O53  1  0.60742350  0.60770250  0.89117700  1
  O  O54  1  0.28955800  0.73008600  0.54554000  1
  O  O55  1  0.28955800  0.26991400  0.04554000  1
  O  O56  1  0.49651150  0.55285750  0.54751200  1
  O  O57  1  0.49651150  0.44714250  0.04751200  1
  O  O58  1  0.30084200  0.04374100  0.55280500  1
  O  O59  1  0.30084200  0.95625900  0.05280500  1
  O  O60  1  0.48492700  0.23869100  0.55028700  1
  O  O61  1  0.48492700  0.76130900  0.05028700  1
  O  O62  1  0.65476550  0.86204550  0.56095900  1
  O  O63  1  0.65476550  0.13795450  0.06095900  1
  O  O64  1  0.76435200  0.03227000  0.40503500  1
  O  O65  1  0.76435200  0.96773000  0.90503500  1
  O  O66  1  0.26086000  0.22461400  0.39875300  1
  O  O67  1  0.26086000  0.77538600  0.89875300  1
  O  O68  1  0.45955450  0.03903950  0.40880500  1
  O  O69  1  0.45955450  0.96096050  0.90880500  1
  O  O70  1  0.44044600  0.73790200  0.39738900  1
  O  O71  1  0.44044600  0.26209800  0.89738900  1
  O  O72  1  0.16933300  0.91697800  0.70853200  1
  O  O73  1  0.16933300  0.08302200  0.20853200  1
  O  O74  1  0.57138200  0.90001900  0.23480200  1
  O  O75  1  0.57138200  0.09998100  0.73480200  1
  O  O76  1  0.87483050  0.02779950  0.22382700  1
  O  O77  1  0.87483050  0.97220050  0.72382700  1
  O  O78  1  0.50766550  0.20878350  0.23359700  1
  O  O79  1  0.50766550  0.79121650  0.73359700  1
  O  O80  1  0.10742350  0.89229750  0.39117700  1
  O  O81  1  0.10742350  0.10770250  0.89117700  1
  O  O82  1  0.78955800  0.23008600  0.54554000  1
  O  O83  1  0.78955800  0.76991400  0.04554000  1
  O  O84  1  0.99651150  0.05285750  0.54751200  1
  O  O85  1  0.99651150  0.94714250  0.04751200  1
  O  O86  1  0.80084200  0.54374100  0.55280500  1
  O  O87  1  0.80084200  0.45625900  0.05280500  1
  O  O88  1  0.98492700  0.73869100  0.55028700  1
  O  O89  1  0.98492700  0.26130900  0.05028700  1
  O  O90  1  0.15476550  0.36204550  0.56095900  1
  O  O91  1  0.15476550  0.63795450  0.06095900  1
  O  O92  1  0.26435200  0.53227000  0.40503500  1
  O  O93  1  0.26435200  0.46773000  0.90503500  1
  O  O94  1  0.76086000  0.72461400  0.39875300  1
  O  O95  1  0.76086000  0.27538600  0.89875300  1
  O  O96  1  0.95955450  0.53903950  0.40880500  1
  O  O97  1  0.95955450  0.46096050  0.90880500  1
  O  O98  1  0.94044600  0.23790200  0.39738900  1
  O  O99  1  0.94044600  0.76209800  0.89738900  1
  O  O100  1  0.66933300  0.41697800  0.70853200  1
  O  O101  1  0.66933300  0.58302200  0.20853200  1
  O  O102  1  0.07138200  0.40001900  0.23480200  1
  O  O103  1  0.07138200  0.59998100  0.73480200  1
  O  O104  1  0.37483050  0.52779950  0.22382700  1
  O  O105  1  0.37483050  0.47220050  0.72382700  1
  O  O106  1  0.00766550  0.70878350  0.23359700  1
  O  O107  1  0.00766550  0.29121650  0.73359700  1
