# generated using pymatgen
data_SrCa2I6
_symmetry_space_group_name_H-M   'P 1'
_cell_length_a   13.76119932
_cell_length_b   13.76119932
_cell_length_c   7.22463000
_cell_angle_alpha   90.00000000
_cell_angle_beta   90.00000000
_cell_angle_gamma   120.00000000
_symmetry_Int_Tables_number   1
_chemical_formula_structural   SrCa2I6
_chemical_formula_sum   'Sr3 Ca6 I18'
_cell_volume   1184.83755810
_cell_formula_units_Z   3
loop_
 _symmetry_equiv_pos_site_id
 _symmetry_equiv_pos_as_xyz
  1  'x, y, z'
loop_
 _atom_site_type_symbol
 _atom_site_label
 _atom_site_symmetry_multiplicity
 _atom_site_fract_x
 _atom_site_fract_y
 _atom_site_fract_z
 _atom_site_occupancy
  Sr  Sr0  1  0.33333333  0.66666667  0.49705400  1
  Sr  Sr1  1  0.00000000  0.00000000  0.00000000  1
  Sr  Sr2  1  0.66666667  0.33333333  0.50294600  1
  Ca  Ca3  1  0.00000000  0.65034450  0.00000000  1
  Ca  Ca4  1  0.00000000  0.31613250  0.50000000  1
  Ca  Ca5  1  0.34965550  0.34965550  0.00000000  1
  Ca  Ca6  1  0.31613250  0.00000000  0.50000000  1
  Ca  Ca7  1  0.68386750  0.68386750  0.50000000  1
  Ca  Ca8  1  0.65034450  0.00000000  0.00000000  1
  I  I9  1  0.09869533  0.86934067  0.74907000  1
  I  I10  1  0.21996333  0.78353467  0.24823100  1
  I  I11  1  0.10460333  0.53666867  0.74914100  1
  I  I12  1  0.43206533  0.89539667  0.74914100  1
  I  I13  1  0.21646533  0.43642867  0.24823100  1
  I  I14  1  0.13065933  0.22935467  0.74907000  1
  I  I15  1  0.56357133  0.78003667  0.24823100  1
  I  I16  1  0.22935467  0.13065933  0.25093000  1
  I  I17  1  0.46333133  0.56793467  0.74914100  1
  I  I18  1  0.77064533  0.90130467  0.74907000  1
  I  I19  1  0.43642867  0.21646533  0.75176900  1
  I  I20  1  0.56793467  0.46333133  0.25085900  1
  I  I21  1  0.53666867  0.10460333  0.25085900  1
  I  I22  1  0.78003667  0.56357133  0.75176900  1
  I  I23  1  0.90130467  0.77064533  0.25093000  1
  I  I24  1  0.78353467  0.21996333  0.75176900  1
  I  I25  1  0.89539667  0.43206533  0.25085900  1
  I  I26  1  0.86934067  0.09869533  0.25093000  1
