# generated using pymatgen
data_FeOF
_symmetry_space_group_name_H-M   'P 1'
_cell_length_a   6.75991400
_cell_length_b   6.75433400
_cell_length_c   12.21737105
_cell_angle_alpha   90.00000000
_cell_angle_beta   90.00503674
_cell_angle_gamma   90.00000000
_symmetry_Int_Tables_number   1
_chemical_formula_structural   FeOF
_chemical_formula_sum   'Fe16 O16 F16'
_cell_volume   557.82948457
_cell_formula_units_Z   16
loop_
 _symmetry_equiv_pos_site_id
 _symmetry_equiv_pos_as_xyz
  1  'x, y, z'
loop_
 _atom_site_type_symbol
 _atom_site_label
 _atom_site_symmetry_multiplicity
 _atom_site_fract_x
 _atom_site_fract_y
 _atom_site_fract_z
 _atom_site_occupancy
  Fe  Fe0  1  0.03617000  0.99894100  0.12503600  1
  Fe  Fe1  1  0.96383000  0.99894100  0.87496400  1
  Fe  Fe2  1  0.03759000  0.98062600  0.62516000  1
  Fe  Fe3  1  0.96241000  0.98062600  0.37484000  1
  Fe  Fe4  1  0.50000000  0.96156100  0.00000000  1
  Fe  Fe5  1  0.50000000  0.01949400  0.50000000  1
  Fe  Fe6  1  0.49953650  0.02878650  0.24898500  1
  Fe  Fe7  1  0.50046350  0.02878650  0.75101500  1
  Fe  Fe8  1  0.53617000  0.49894100  0.12503600  1
  Fe  Fe9  1  0.46383000  0.49894100  0.87496400  1
  Fe  Fe10  1  0.53759000  0.48062600  0.62516000  1
  Fe  Fe11  1  0.46241000  0.48062600  0.37484000  1
  Fe  Fe12  1  0.00000000  0.46156100  0.00000000  1
  Fe  Fe13  1  0.00000000  0.51949400  0.50000000  1
  Fe  Fe14  1  0.99953650  0.52878650  0.24898500  1
  Fe  Fe15  1  0.00046350  0.52878650  0.75101500  1
  O  O16  1  0.50168550  0.31460250  0.75313100  1
  O  O17  1  0.50000000  0.30848200  0.50000000  1
  O  O18  1  0.49831450  0.31460250  0.24686900  1
  O  O19  1  0.67973750  0.99593150  0.87536000  1
  O  O20  1  0.67895150  0.00126550  0.37429000  1
  O  O21  1  0.32026250  0.99593150  0.12464000  1
  O  O22  1  0.32104850  0.00126550  0.62571000  1
  O  O23  1  0.50000000  0.67708800  0.00000000  1
  O  O24  1  0.00168550  0.81460250  0.75313100  1
  O  O25  1  0.00000000  0.80848200  0.50000000  1
  O  O26  1  0.99831450  0.81460250  0.24686900  1
  O  O27  1  0.17973750  0.49593150  0.87536000  1
  O  O28  1  0.17895150  0.50126550  0.37429000  1
  O  O29  1  0.82026250  0.49593150  0.12464000  1
  O  O30  1  0.82104850  0.50126550  0.62571000  1
  O  O31  1  0.00000000  0.17708800  0.00000000  1
  F  F32  1  0.50000000  0.29479800  0.00000000  1
  F  F33  1  0.70320350  0.99615850  0.12469800  1
  F  F34  1  0.70585250  0.00628550  0.62540500  1
  F  F35  1  0.29679650  0.99615850  0.87530200  1
  F  F36  1  0.29414750  0.00628550  0.37459500  1
  F  F37  1  0.50002450  0.69873450  0.74830000  1
  F  F38  1  0.50000000  0.69591700  0.50000000  1
  F  F39  1  0.49997550  0.69873450  0.25170000  1
  F  F40  1  0.00000000  0.79479800  0.00000000  1
  F  F41  1  0.20320350  0.49615850  0.12469800  1
  F  F42  1  0.20585250  0.50628550  0.62540500  1
  F  F43  1  0.79679650  0.49615850  0.87530200  1
  F  F44  1  0.79414750  0.50628550  0.37459500  1
  F  F45  1  0.00002450  0.19873450  0.74830000  1
  F  F46  1  0.00000000  0.19591700  0.50000000  1
  F  F47  1  0.99997550  0.19873450  0.25170000  1
