# generated using pymatgen
data_LiBi3(ClO2)2
_symmetry_space_group_name_H-M   'P 1'
_cell_length_a   5.51068000
_cell_length_b   12.43500400
_cell_length_c   10.97751800
_cell_angle_alpha   90.00000000
_cell_angle_beta   90.00000000
_cell_angle_gamma   90.00000000
_symmetry_Int_Tables_number   1
_chemical_formula_structural   LiBi3(ClO2)2
_chemical_formula_sum   'Li4 Bi12 Cl8 O16'
_cell_volume   752.23801985
_cell_formula_units_Z   4
loop_
 _symmetry_equiv_pos_site_id
 _symmetry_equiv_pos_as_xyz
  1  'x, y, z'
loop_
 _atom_site_type_symbol
 _atom_site_label
 _atom_site_symmetry_multiplicity
 _atom_site_fract_x
 _atom_site_fract_y
 _atom_site_fract_z
 _atom_site_occupancy
  Li  Li0  1  0.50000000  0.28841000  0.25000000  1
  Li  Li1  1  0.00000000  0.21159000  0.75000000  1
  Li  Li2  1  0.00000000  0.78841000  0.25000000  1
  Li  Li3  1  0.50000000  0.71159000  0.75000000  1
  Bi  Bi4  1  0.50000000  0.15717000  0.50636000  1
  Bi  Bi5  1  0.00000000  0.14560200  0.25000000  1
  Bi  Bi6  1  0.50000000  0.35439800  0.75000000  1
  Bi  Bi7  1  0.00000000  0.34283000  0.49364000  1
  Bi  Bi8  1  0.50000000  0.15717000  0.99364000  1
  Bi  Bi9  1  0.00000000  0.34283000  0.00636000  1
  Bi  Bi10  1  0.00000000  0.65717000  0.50636000  1
  Bi  Bi11  1  0.50000000  0.64560200  0.25000000  1
  Bi  Bi12  1  0.00000000  0.85439800  0.75000000  1
  Bi  Bi13  1  0.50000000  0.84283000  0.49364000  1
  Bi  Bi14  1  0.00000000  0.65717000  0.99364000  1
  Bi  Bi15  1  0.50000000  0.84283000  0.00636000  1
  Cl  Cl16  1  0.50000000  0.01363700  0.25000000  1
  Cl  Cl17  1  0.00000000  0.48636300  0.75000000  1
  Cl  Cl18  1  0.00000000  0.00000000  0.50000000  1
  Cl  Cl19  1  0.00000000  0.00000000  0.00000000  1
  Cl  Cl20  1  0.00000000  0.51363700  0.25000000  1
  Cl  Cl21  1  0.50000000  0.98636300  0.75000000  1
  Cl  Cl22  1  0.50000000  0.50000000  0.50000000  1
  Cl  Cl23  1  0.50000000  0.50000000  0.00000000  1
  O  O24  1  0.24622000  0.24227800  0.37630400  1
  O  O25  1  0.25378000  0.25772200  0.62369600  1
  O  O26  1  0.75378000  0.24227800  0.37630400  1
  O  O27  1  0.74622000  0.25772200  0.62369600  1
  O  O28  1  0.25378000  0.25772200  0.87630400  1
  O  O29  1  0.24622000  0.24227800  0.12369600  1
  O  O30  1  0.74622000  0.25772200  0.87630400  1
  O  O31  1  0.75378000  0.24227800  0.12369600  1
  O  O32  1  0.74622000  0.74227800  0.37630400  1
  O  O33  1  0.75378000  0.75772200  0.62369600  1
  O  O34  1  0.25378000  0.74227800  0.37630400  1
  O  O35  1  0.24622000  0.75772200  0.62369600  1
  O  O36  1  0.75378000  0.75772200  0.87630400  1
  O  O37  1  0.74622000  0.74227800  0.12369600  1
  O  O38  1  0.24622000  0.75772200  0.87630400  1
  O  O39  1  0.25378000  0.74227800  0.12369600  1
