# generated using pymatgen
data_LiMn(PO3)4
_symmetry_space_group_name_H-M   'P 1'
_cell_length_a   8.26709800
_cell_length_b   11.27208600
_cell_length_c   10.00334491
_cell_angle_alpha   90.00000000
_cell_angle_beta   91.62377472
_cell_angle_gamma   90.00000000
_symmetry_Int_Tables_number   1
_chemical_formula_structural   LiMn(PO3)4
_chemical_formula_sum   'Li4 Mn4 P16 O48'
_cell_volume   931.81177430
_cell_formula_units_Z   4
loop_
 _symmetry_equiv_pos_site_id
 _symmetry_equiv_pos_as_xyz
  1  'x, y, z'
loop_
 _atom_site_type_symbol
 _atom_site_label
 _atom_site_symmetry_multiplicity
 _atom_site_fract_x
 _atom_site_fract_y
 _atom_site_fract_z
 _atom_site_occupancy
  Li  Li0  1  0.50000000  0.35213600  0.25000000  1
  Li  Li1  1  0.50000000  0.64786400  0.75000000  1
  Li  Li2  1  0.00000000  0.85213600  0.25000000  1
  Li  Li3  1  0.00000000  0.14786400  0.75000000  1
  Mn  Mn4  1  0.50000000  0.61746900  0.25000000  1
  Mn  Mn5  1  0.50000000  0.38253100  0.75000000  1
  Mn  Mn6  1  0.00000000  0.11746900  0.25000000  1
  Mn  Mn7  1  0.00000000  0.88253100  0.75000000  1
  P  P8  1  0.52493700  0.19050800  0.97753500  1
  P  P9  1  0.52493700  0.80949200  0.47753500  1
  P  P10  1  0.75706000  0.97258200  0.04027800  1
  P  P11  1  0.24294000  0.97258200  0.45972200  1
  P  P12  1  0.75706000  0.02741800  0.54027800  1
  P  P13  1  0.24294000  0.02741800  0.95972200  1
  P  P14  1  0.47506300  0.19050800  0.52246500  1
  P  P15  1  0.47506300  0.80949200  0.02246500  1
  P  P16  1  0.02493700  0.69050800  0.97753500  1
  P  P17  1  0.02493700  0.30949200  0.47753500  1
  P  P18  1  0.25706000  0.47258200  0.04027800  1
  P  P19  1  0.74294000  0.47258200  0.45972200  1
  P  P20  1  0.25706000  0.52741800  0.54027800  1
  P  P21  1  0.74294000  0.52741800  0.95972200  1
  P  P22  1  0.97506300  0.69050800  0.52246500  1
  P  P23  1  0.97506300  0.30949200  0.02246500  1
  O  O24  1  0.47947850  0.25326850  0.10057100  1
  O  O25  1  0.59812400  0.73987000  0.36253700  1
  O  O26  1  0.85997550  0.99302850  0.16704100  1
  O  O27  1  0.47947850  0.74673150  0.60057100  1
  O  O28  1  0.16349200  0.06681700  0.08312800  1
  O  O29  1  0.59812400  0.26013000  0.86253700  1
  O  O30  1  0.34819050  0.08847050  0.48768000  1
  O  O31  1  0.62468700  0.88000600  0.09135100  1
  O  O32  1  0.37531300  0.88000600  0.40864900  1
  O  O33  1  0.65180950  0.08847050  0.01232000  1
  O  O34  1  0.85997550  0.00697150  0.66704100  1
  O  O35  1  0.83650800  0.06681700  0.41687200  1
  O  O36  1  0.16349200  0.93318300  0.58312800  1
  O  O37  1  0.14002450  0.99302850  0.33295900  1
  O  O38  1  0.34819050  0.91152950  0.98768000  1
  O  O39  1  0.62468700  0.11999400  0.59135100  1
  O  O40  1  0.37531300  0.11999400  0.90864900  1
  O  O41  1  0.65180950  0.91152950  0.51232000  1
  O  O42  1  0.40187600  0.73987000  0.13746300  1
  O  O43  1  0.83650800  0.93318300  0.91687200  1
  O  O44  1  0.52052150  0.25326850  0.39942900  1
  O  O45  1  0.14002450  0.00697150  0.83295900  1
  O  O46  1  0.40187600  0.26013000  0.63746300  1
  O  O47  1  0.52052150  0.74673150  0.89942900  1
  O  O48  1  0.97947850  0.75326850  0.10057100  1
  O  O49  1  0.09812400  0.23987000  0.36253700  1
  O  O50  1  0.35997550  0.49302850  0.16704100  1
  O  O51  1  0.97947850  0.24673150  0.60057100  1
  O  O52  1  0.66349200  0.56681700  0.08312800  1
  O  O53  1  0.09812400  0.76013000  0.86253700  1
  O  O54  1  0.84819050  0.58847050  0.48768000  1
  O  O55  1  0.12468700  0.38000600  0.09135100  1
  O  O56  1  0.87531300  0.38000600  0.40864900  1
  O  O57  1  0.15180950  0.58847050  0.01232000  1
  O  O58  1  0.35997550  0.50697150  0.66704100  1
  O  O59  1  0.33650800  0.56681700  0.41687200  1
  O  O60  1  0.66349200  0.43318300  0.58312800  1
  O  O61  1  0.64002450  0.49302850  0.33295900  1
  O  O62  1  0.84819050  0.41152950  0.98768000  1
  O  O63  1  0.12468700  0.61999400  0.59135100  1
  O  O64  1  0.87531300  0.61999400  0.90864900  1
  O  O65  1  0.15180950  0.41152950  0.51232000  1
  O  O66  1  0.90187600  0.23987000  0.13746300  1
  O  O67  1  0.33650800  0.43318300  0.91687200  1
  O  O68  1  0.02052150  0.75326850  0.39942900  1
  O  O69  1  0.64002450  0.50697150  0.83295900  1
  O  O70  1  0.90187600  0.76013000  0.63746300  1
  O  O71  1  0.02052150  0.24673150  0.89942900  1
