# generated using pymatgen
data_Li2AgF4
_symmetry_space_group_name_H-M   'P 1'
_cell_length_a   14.20979387
_cell_length_b   14.20979387
_cell_length_c   10.68936474
_cell_angle_alpha   90.00000000
_cell_angle_beta   90.00000000
_cell_angle_gamma   120.00000000
_symmetry_Int_Tables_number   1
_chemical_formula_structural   Li2AgF4
_chemical_formula_sum   'Li36 Ag18 F72'
_cell_volume   1869.20994869
_cell_formula_units_Z   18
loop_
 _symmetry_equiv_pos_site_id
 _symmetry_equiv_pos_as_xyz
  1  'x, y, z'
loop_
 _atom_site_type_symbol
 _atom_site_label
 _atom_site_symmetry_multiplicity
 _atom_site_fract_x
 _atom_site_fract_y
 _atom_site_fract_z
 _atom_site_occupancy
  Li  Li0  1  0.68596967  0.12736233  0.41290733  1
  Li  Li1  1  0.12736233  0.44139267  0.58709267  1
  Li  Li2  1  0.96638733  0.19410667  0.58334267  1
  Li  Li3  1  0.77228067  0.96638733  0.41665733  1
  Li  Li4  1  0.55860733  0.68596967  0.58709267  1
  Li  Li5  1  0.19410667  0.22771933  0.41665733  1
  Li  Li6  1  0.80589333  0.77228067  0.58334267  1
  Li  Li7  1  0.44139267  0.31403033  0.41290733  1
  Li  Li8  1  0.22771933  0.03361267  0.58334267  1
  Li  Li9  1  0.03361267  0.80589333  0.41665733  1
  Li  Li10  1  0.87263767  0.55860733  0.41290733  1
  Li  Li11  1  0.31403033  0.87263767  0.58709267  1
  Li  Li12  1  0.35263633  0.46069567  0.74624067  1
  Li  Li13  1  0.79402900  0.77472600  0.92042600  1
  Li  Li14  1  0.63305400  0.52744000  0.91667600  1
  Li  Li15  1  0.43894733  0.29972067  0.74999067  1
  Li  Li16  1  0.22527400  0.01930300  0.92042600  1
  Li  Li17  1  0.86077333  0.56105267  0.74999067  1
  Li  Li18  1  0.47256000  0.10561400  0.91667600  1
  Li  Li19  1  0.10805933  0.64736367  0.74624067  1
  Li  Li20  1  0.89438600  0.36694600  0.91667600  1
  Li  Li21  1  0.70027933  0.13922667  0.74999067  1
  Li  Li22  1  0.53930433  0.89194067  0.74624067  1
  Li  Li23  1  0.98069700  0.20597100  0.92042600  1
  Li  Li24  1  0.01930300  0.79402900  0.07957400  1
  Li  Li25  1  0.46069567  0.10805933  0.25375933  1
  Li  Li26  1  0.29972067  0.86077333  0.25000933  1
  Li  Li27  1  0.10561400  0.63305400  0.08332400  1
  Li  Li28  1  0.89194067  0.35263633  0.25375933  1
  Li  Li29  1  0.52744000  0.89438600  0.08332400  1
  Li  Li30  1  0.13922667  0.43894733  0.25000933  1
  Li  Li31  1  0.77472600  0.98069700  0.07957400  1
  Li  Li32  1  0.56105267  0.70027933  0.25000933  1
  Li  Li33  1  0.36694600  0.47256000  0.08332400  1
  Li  Li34  1  0.20597100  0.22527400  0.07957400  1
  Li  Li35  1  0.64736367  0.53930433  0.25375933  1
  Ag  Ag36  1  0.78663000  0.92782600  0.74467200  1
  Ag  Ag37  1  0.14119600  0.21337000  0.74467200  1
  Ag  Ag38  1  0.92782600  0.14119600  0.25532800  1
  Ag  Ag39  1  0.07217400  0.85880400  0.74467200  1
  Ag  Ag40  1  0.85880400  0.78663000  0.25532800  1
  Ag  Ag41  1  0.21337000  0.07217400  0.25532800  1
  Ag  Ag42  1  0.45329667  0.26115933  0.07800533  1
  Ag  Ag43  1  0.80786267  0.54670333  0.07800533  1
  Ag  Ag44  1  0.59449267  0.47452933  0.58866133  1
  Ag  Ag45  1  0.73884067  0.19213733  0.07800533  1
  Ag  Ag46  1  0.52547067  0.11996333  0.58866133  1
  Ag  Ag47  1  0.88003667  0.40550733  0.58866133  1
  Ag  Ag48  1  0.11996333  0.59449267  0.41133867  1
  Ag  Ag49  1  0.47452933  0.88003667  0.41133867  1
  Ag  Ag50  1  0.26115933  0.80786267  0.92199467  1
  Ag  Ag51  1  0.40550733  0.52547067  0.41133867  1
  Ag  Ag52  1  0.19213733  0.45329667  0.92199467  1
  Ag  Ag53  1  0.54670333  0.73884067  0.92199467  1
  F  F54  1  0.97629533  0.33032467  0.59147467  1
  F  F55  1  0.76831600  0.20638100  0.27537600  1
  F  F56  1  0.20638100  0.43806500  0.72462400  1
  F  F57  1  0.64597067  0.97629533  0.40852533  1
  F  F58  1  0.56193500  0.76831600  0.72462400  1
  F  F59  1  0.96648933  0.13718967  0.75237967  1
  F  F60  1  0.88374033  0.11271267  0.44941467  1
  F  F61  1  0.11271267  0.22897233  0.55058533  1
  F  F62  1  0.77102767  0.88374033  0.55058533  1
  F  F63  1  0.86281033  0.82929967  0.75237967  1
  F  F64  1  0.82929967  0.96648933  0.24762033  1
  F  F65  1  0.66967533  0.64597067  0.59147467  1
  F  F66  1  0.33032467  0.35402933  0.40852533  1
  F  F67  1  0.17070033  0.03351067  0.75237967  1
  F  F68  1  0.13718967  0.17070033  0.24762033  1
  F  F69  1  0.22897233  0.11625967  0.44941467  1
  F  F70  1  0.88728733  0.77102767  0.44941467  1
  F  F71  1  0.11625967  0.88728733  0.55058533  1
  F  F72  1  0.03351067  0.86281033  0.24762033  1
  F  F73  1  0.43806500  0.23168400  0.27537600  1
  F  F74  1  0.35402933  0.02370467  0.59147467  1
  F  F75  1  0.79361900  0.56193500  0.27537600  1
  F  F76  1  0.23168400  0.79361900  0.72462400  1
  F  F77  1  0.02370467  0.66967533  0.40852533  1
  F  F78  1  0.64296200  0.66365800  0.92480800  1
  F  F79  1  0.43498267  0.53971433  0.60870933  1
  F  F80  1  0.87304767  0.77139833  0.05795733  1
  F  F81  1  0.31263733  0.30962867  0.74185867  1
  F  F82  1  0.22860167  0.10164933  0.05795733  1
  F  F83  1  0.63315600  0.47052300  0.08571300  1
  F  F84  1  0.55040700  0.44604600  0.78274800  1
  F  F85  1  0.77937933  0.56230567  0.88391867  1
  F  F86  1  0.43769433  0.21707367  0.88391867  1
  F  F87  1  0.52947700  0.16263300  0.08571300  1
  F  F88  1  0.49596633  0.29982267  0.58095367  1
  F  F89  1  0.33634200  0.97930400  0.92480800  1
  F  F90  1  0.99699133  0.68736267  0.74185867  1
  F  F91  1  0.83736700  0.36684400  0.08571300  1
  F  F92  1  0.80385633  0.50403367  0.58095367  1
  F  F93  1  0.89563900  0.44959300  0.78274800  1
  F  F94  1  0.55395400  0.10436100  0.78274800  1
  F  F95  1  0.78292633  0.22062067  0.88391867  1
  F  F96  1  0.70017733  0.19614367  0.58095367  1
  F  F97  1  0.10473167  0.56501733  0.60870933  1
  F  F98  1  0.02069600  0.35703800  0.92480800  1
  F  F99  1  0.46028567  0.89526833  0.60870933  1
  F  F100  1  0.89835067  0.12695233  0.05795733  1
  F  F101  1  0.69037133  0.00300867  0.74185867  1
  F  F102  1  0.30962867  0.99699133  0.25814133  1
  F  F103  1  0.10164933  0.87304767  0.94204267  1
  F  F104  1  0.53971433  0.10473167  0.39129067  1
  F  F105  1  0.97930400  0.64296200  0.07519200  1
  F  F106  1  0.89526833  0.43498267  0.39129067  1
  F  F107  1  0.29982267  0.80385633  0.41904633  1
  F  F108  1  0.21707367  0.77937933  0.11608133  1
  F  F109  1  0.44604600  0.89563900  0.21725200  1
  F  F110  1  0.10436100  0.55040700  0.21725200  1
  F  F111  1  0.19614367  0.49596633  0.41904633  1
  F  F112  1  0.16263300  0.63315600  0.91428700  1
  F  F113  1  0.00300867  0.31263733  0.25814133  1
  F  F114  1  0.66365800  0.02069600  0.07519200  1
  F  F115  1  0.50403367  0.70017733  0.41904633  1
  F  F116  1  0.47052300  0.83736700  0.91428700  1
  F  F117  1  0.56230567  0.78292633  0.11608133  1
  F  F118  1  0.22062067  0.43769433  0.11608133  1
  F  F119  1  0.44959300  0.55395400  0.21725200  1
  F  F120  1  0.36684400  0.52947700  0.91428700  1
  F  F121  1  0.77139833  0.89835067  0.94204267  1
  F  F122  1  0.68736267  0.69037133  0.25814133  1
  F  F123  1  0.12695233  0.22860167  0.94204267  1
  F  F124  1  0.56501733  0.46028567  0.39129067  1
  F  F125  1  0.35703800  0.33634200  0.07519200  1
