# generated using pymatgen
data_Na2FePCO7
_symmetry_space_group_name_H-M   'P 1'
_cell_length_a   10.35602800
_cell_length_b   6.52654100
_cell_length_c   10.50723915
_cell_angle_alpha   90.00000000
_cell_angle_beta   120.16839620
_cell_angle_gamma   90.00000000
_symmetry_Int_Tables_number   1
_chemical_formula_structural   Na2FePCO7
_chemical_formula_sum   'Na8 Fe4 P4 C4 O28'
_cell_volume   613.98263651
_cell_formula_units_Z   4
loop_
 _symmetry_equiv_pos_site_id
 _symmetry_equiv_pos_as_xyz
  1  'x, y, z'
loop_
 _atom_site_type_symbol
 _atom_site_label
 _atom_site_symmetry_multiplicity
 _atom_site_fract_x
 _atom_site_fract_y
 _atom_site_fract_z
 _atom_site_occupancy
  Na  Na0  1  0.08015800  0.74204300  0.67172000  1
  Na  Na1  1  0.08015800  0.75795700  0.17172000  1
  Na  Na2  1  0.26349700  0.98716500  0.50852500  1
  Na  Na3  1  0.26349700  0.51283500  0.00852500  1
  Na  Na4  1  0.73650300  0.01283500  0.49147500  1
  Na  Na5  1  0.73650300  0.48716500  0.99147500  1
  Na  Na6  1  0.91984200  0.25795700  0.32828000  1
  Na  Na7  1  0.91984200  0.24204300  0.82828000  1
  Fe  Fe8  1  0.34606500  0.25340500  0.31480300  1
  Fe  Fe9  1  0.34606500  0.24659500  0.81480300  1
  Fe  Fe10  1  0.65393500  0.74659500  0.68519700  1
  Fe  Fe11  1  0.65393500  0.75340500  0.18519700  1
  P  P12  1  0.42434000  0.75033800  0.31694300  1
  P  P13  1  0.42434000  0.74966200  0.81694300  1
  P  P14  1  0.57566000  0.24966200  0.68305700  1
  P  P15  1  0.57566000  0.25033800  0.18305700  1
  C  C16  1  0.06518900  0.24840200  0.64794500  1
  C  C17  1  0.06518900  0.25159800  0.14794500  1
  C  C18  1  0.93481100  0.75159800  0.35205500  1
  C  C19  1  0.93481100  0.74840200  0.85205500  1
  O  O20  1  0.07506000  0.76155200  0.43505400  1
  O  O21  1  0.07506000  0.73844800  0.93505400  1
  O  O22  1  0.12909600  0.23240700  0.29168600  1
  O  O23  1  0.12909600  0.26759300  0.79168600  1
  O  O24  1  0.15801600  0.24023900  0.59742100  1
  O  O25  1  0.15801600  0.25976100  0.09742100  1
  O  O26  1  0.32527500  0.93818400  0.30214800  1
  O  O27  1  0.32344600  0.56113500  0.29034800  1
  O  O28  1  0.32344600  0.93886500  0.79034800  1
  O  O29  1  0.32527500  0.56181600  0.80214800  1
  O  O30  1  0.43106900  0.24817000  0.53041700  1
  O  O31  1  0.43106900  0.25183000  0.03041700  1
  O  O32  1  0.46885600  0.74950400  0.69528800  1
  O  O33  1  0.46885600  0.75049600  0.19528800  1
  O  O34  1  0.53114400  0.25049600  0.30471200  1
  O  O35  1  0.53114400  0.24950400  0.80471200  1
  O  O36  1  0.56893100  0.75183000  0.46958300  1
  O  O37  1  0.56893100  0.74817000  0.96958300  1
  O  O38  1  0.67655400  0.43886500  0.70965200  1
  O  O39  1  0.67472500  0.06181600  0.69785200  1
  O  O40  1  0.67655400  0.06113500  0.20965200  1
  O  O41  1  0.67472500  0.43818400  0.19785200  1
  O  O42  1  0.84198400  0.75976100  0.40257900  1
  O  O43  1  0.84198400  0.74023900  0.90257900  1
  O  O44  1  0.87090400  0.76759300  0.70831400  1
  O  O45  1  0.87090400  0.73240700  0.20831400  1
  O  O46  1  0.92494000  0.23844800  0.56494600  1
  O  O47  1  0.92494000  0.26155200  0.06494600  1
