# generated using pymatgen
data_CuH6Se2NClO6
_symmetry_space_group_name_H-M   'P 1'
_cell_length_a   7.42493700
_cell_length_b   9.06481900
_cell_length_c   12.27747800
_cell_angle_alpha   90.00000000
_cell_angle_beta   90.00000000
_cell_angle_gamma   90.00000000
_symmetry_Int_Tables_number   1
_chemical_formula_structural   CuH6Se2NClO6
_chemical_formula_sum   'Cu4 H24 Se8 N4 Cl4 O24'
_cell_volume   826.34437369
_cell_formula_units_Z   4
loop_
 _symmetry_equiv_pos_site_id
 _symmetry_equiv_pos_as_xyz
  1  'x, y, z'
loop_
 _atom_site_type_symbol
 _atom_site_label
 _atom_site_symmetry_multiplicity
 _atom_site_fract_x
 _atom_site_fract_y
 _atom_site_fract_z
 _atom_site_occupancy
  Cu  Cu0  1  0.50000000  0.50000000  0.00000000  1
  Cu  Cu1  1  0.00000000  0.00000000  0.50000000  1
  Cu  Cu2  1  0.50000000  0.50000000  0.50000000  1
  Cu  Cu3  1  0.00000000  0.00000000  0.00000000  1
  H  H4  1  0.38932600  0.94640400  0.07459200  1
  H  H5  1  0.11067400  0.44640400  0.42540800  1
  H  H6  1  0.61067400  0.05359600  0.57459200  1
  H  H7  1  0.88932600  0.55359600  0.92540800  1
  H  H8  1  0.61067400  0.05359600  0.92540800  1
  H  H9  1  0.88932600  0.55359600  0.57459200  1
  H  H10  1  0.38932600  0.94640400  0.42540800  1
  H  H11  1  0.11067400  0.44640400  0.07459200  1
  H  H12  1  0.31247300  0.71869700  0.25000000  1
  H  H13  1  0.18752700  0.21869700  0.25000000  1
  H  H14  1  0.68752700  0.28130300  0.75000000  1
  H  H15  1  0.81247300  0.78130300  0.75000000  1
  H  H16  1  0.17846400  0.57217100  0.25000000  1
  H  H17  1  0.32153600  0.07217100  0.25000000  1
  H  H18  1  0.82153600  0.42782900  0.75000000  1
  H  H19  1  0.67846400  0.92782900  0.75000000  1
  H  H20  1  0.12001100  0.72691800  0.31923400  1
  H  H21  1  0.37998900  0.22691800  0.18076600  1
  H  H22  1  0.87998900  0.27308200  0.81923400  1
  H  H23  1  0.62001100  0.77308200  0.68076600  1
  H  H24  1  0.87998900  0.27308200  0.68076600  1
  H  H25  1  0.62001100  0.77308200  0.81923400  1
  H  H26  1  0.12001100  0.72691800  0.18076600  1
  H  H27  1  0.37998900  0.22691800  0.31923400  1
  Se  Se28  1  0.65741400  0.80842500  0.07633000  1
  Se  Se29  1  0.84258600  0.30842500  0.42367000  1
  Se  Se30  1  0.34258600  0.19157500  0.57633000  1
  Se  Se31  1  0.15741400  0.69157500  0.92367000  1
  Se  Se32  1  0.34258600  0.19157500  0.92367000  1
  Se  Se33  1  0.15741400  0.69157500  0.57633000  1
  Se  Se34  1  0.65741400  0.80842500  0.42367000  1
  Se  Se35  1  0.84258600  0.30842500  0.07633000  1
  N  N36  1  0.18014900  0.68591600  0.25000000  1
  N  N37  1  0.31985100  0.18591600  0.25000000  1
  N  N38  1  0.81985100  0.31408400  0.75000000  1
  N  N39  1  0.68014900  0.81408400  0.75000000  1
  Cl  Cl40  1  0.54935200  0.52040800  0.25000000  1
  Cl  Cl41  1  0.95064800  0.02040800  0.25000000  1
  Cl  Cl42  1  0.45064800  0.47959200  0.75000000  1
  Cl  Cl43  1  0.04935200  0.97959200  0.75000000  1
  O  O44  1  0.55922200  0.70931800  0.97140500  1
  O  O45  1  0.94077800  0.20931800  0.52859500  1
  O  O46  1  0.44077800  0.29068200  0.47140500  1
  O  O47  1  0.05922200  0.79068200  0.02859500  1
  O  O48  1  0.44077800  0.29068200  0.02859500  1
  O  O49  1  0.05922200  0.79068200  0.47140500  1
  O  O50  1  0.55922200  0.70931800  0.52859500  1
  O  O51  1  0.94077800  0.20931800  0.97140500  1
  O  O52  1  0.73786000  0.95656900  0.00069300  1
  O  O53  1  0.76214000  0.45656900  0.49930700  1
  O  O54  1  0.26214000  0.04343100  0.50069300  1
  O  O55  1  0.23786000  0.54343100  0.99930700  1
  O  O56  1  0.26214000  0.04343100  0.99930700  1
  O  O57  1  0.23786000  0.54343100  0.50069300  1
  O  O58  1  0.73786000  0.95656900  0.49930700  1
  O  O59  1  0.76214000  0.45656900  0.00069300  1
  O  O60  1  0.46193500  0.89301500  0.13361500  1
  O  O61  1  0.03806500  0.39301500  0.36638500  1
  O  O62  1  0.53806500  0.10698500  0.63361500  1
  O  O63  1  0.96193500  0.60698500  0.86638500  1
  O  O64  1  0.53806500  0.10698500  0.86638500  1
  O  O65  1  0.96193500  0.60698500  0.63361500  1
  O  O66  1  0.46193500  0.89301500  0.36638500  1
  O  O67  1  0.03806500  0.39301500  0.13361500  1
