# generated using pymatgen
data_Na3Zn4P4H4NO16
_symmetry_space_group_name_H-M   'P 1'
_cell_length_a   8.32308800
_cell_length_b   10.49097300
_cell_length_c   17.58682600
_cell_angle_alpha   90.00000000
_cell_angle_beta   90.00000000
_cell_angle_gamma   90.00000000
_symmetry_Int_Tables_number   1
_chemical_formula_structural   Na3Zn4P4H4NO16
_chemical_formula_sum   'Na12 Zn16 P16 H16 N4 O64'
_cell_volume   1535.63401213
_cell_formula_units_Z   4
loop_
 _symmetry_equiv_pos_site_id
 _symmetry_equiv_pos_as_xyz
  1  'x, y, z'
loop_
 _atom_site_type_symbol
 _atom_site_label
 _atom_site_symmetry_multiplicity
 _atom_site_fract_x
 _atom_site_fract_y
 _atom_site_fract_z
 _atom_site_occupancy
  Na  Na0  1  0.00000000  0.02764800  0.25000000  1
  Na  Na1  1  0.00000000  0.97235200  0.75000000  1
  Na  Na2  1  0.01235900  0.68385700  0.49617100  1
  Na  Na3  1  0.01235900  0.31614300  0.99617100  1
  Na  Na4  1  0.48764100  0.18385700  0.49617100  1
  Na  Na5  1  0.48764100  0.81614300  0.99617100  1
  Na  Na6  1  0.50000000  0.52764800  0.25000000  1
  Na  Na7  1  0.50000000  0.47235200  0.75000000  1
  Na  Na8  1  0.51235900  0.18385700  0.00382900  1
  Na  Na9  1  0.51235900  0.81614300  0.50382900  1
  Na  Na10  1  0.98764100  0.31614300  0.50382900  1
  Na  Na11  1  0.98764100  0.68385700  0.00382900  1
  Zn  Zn12  1  0.17340600  0.05064100  0.42566000  1
  Zn  Zn13  1  0.17340600  0.94935900  0.92566000  1
  Zn  Zn14  1  0.19629400  0.32025000  0.16239400  1
  Zn  Zn15  1  0.19629400  0.67975000  0.66239400  1
  Zn  Zn16  1  0.30370600  0.82025000  0.16239400  1
  Zn  Zn17  1  0.30370600  0.17975000  0.66239400  1
  Zn  Zn18  1  0.32659400  0.55064100  0.42566000  1
  Zn  Zn19  1  0.32659400  0.44935900  0.92566000  1
  Zn  Zn20  1  0.67340600  0.55064100  0.07434000  1
  Zn  Zn21  1  0.67340600  0.44935900  0.57434000  1
  Zn  Zn22  1  0.69629400  0.17975000  0.83760600  1
  Zn  Zn23  1  0.69629400  0.82025000  0.33760600  1
  Zn  Zn24  1  0.80370600  0.32025000  0.33760600  1
  Zn  Zn25  1  0.80370600  0.67975000  0.83760600  1
  Zn  Zn26  1  0.82659400  0.05064100  0.07434000  1
  Zn  Zn27  1  0.82659400  0.94935900  0.57434000  1
  P  P28  1  0.20505500  0.31389000  0.34277700  1
  P  P29  1  0.20505500  0.68611000  0.84277700  1
  P  P30  1  0.21117400  0.06894600  0.08004000  1
  P  P31  1  0.21117400  0.93105400  0.58004000  1
  P  P32  1  0.28882600  0.56894600  0.08004000  1
  P  P33  1  0.28882600  0.43105400  0.58004000  1
  P  P34  1  0.29494500  0.18611000  0.84277700  1
  P  P35  1  0.29494500  0.81389000  0.34277700  1
  P  P36  1  0.70505500  0.18611000  0.65722300  1
  P  P37  1  0.70505500  0.81389000  0.15722300  1
  P  P38  1  0.71117400  0.43105400  0.91996000  1
  P  P39  1  0.71117400  0.56894600  0.41996000  1
  P  P40  1  0.78882600  0.06894600  0.41996000  1
  P  P41  1  0.78882600  0.93105400  0.91996000  1
  P  P42  1  0.79494500  0.31389000  0.15722300  1
  P  P43  1  0.79494500  0.68611000  0.65722300  1
  H  H44  1  0.02433800  0.52558600  0.29636500  1
  H  H45  1  0.02433800  0.47441400  0.79636500  1
  H  H46  1  0.10050300  0.63958800  0.23958100  1
  H  H47  1  0.10050300  0.36041200  0.73958100  1
  H  H48  1  0.39949700  0.13958800  0.23958100  1
  H  H49  1  0.39949700  0.86041200  0.73958100  1
  H  H50  1  0.47566200  0.02558600  0.29636500  1
  H  H51  1  0.47566200  0.97441400  0.79636500  1
  H  H52  1  0.52433800  0.02558600  0.20363500  1
  H  H53  1  0.52433800  0.97441400  0.70363500  1
  H  H54  1  0.60050300  0.13958800  0.26041900  1
  H  H55  1  0.60050300  0.86041200  0.76041900  1
  H  H56  1  0.89949700  0.63958800  0.26041900  1
  H  H57  1  0.89949700  0.36041200  0.76041900  1
  H  H58  1  0.97566200  0.47441400  0.70363500  1
  H  H59  1  0.97566200  0.52558600  0.20363500  1
  N  N60  1  0.00000000  0.58309400  0.25000000  1
  N  N61  1  0.00000000  0.41690600  0.75000000  1
  N  N62  1  0.50000000  0.08309400  0.25000000  1
  N  N63  1  0.50000000  0.91690600  0.75000000  1
  O  O64  1  0.03134700  0.36080200  0.36180500  1
  O  O65  1  0.03134700  0.63919800  0.86180500  1
  O  O66  1  0.04367900  0.10974000  0.05050200  1
  O  O67  1  0.04367900  0.89026000  0.55050200  1
  O  O68  1  0.18652900  0.06519200  0.83834000  1
  O  O69  1  0.18652900  0.93480800  0.33834000  1
  O  O70  1  0.19176600  0.69235900  0.09864400  1
  O  O71  1  0.19176600  0.30764100  0.59864400  1
  O  O72  1  0.19482000  0.01420800  0.65288900  1
  O  O73  1  0.19482000  0.98579200  0.15288900  1
  O  O74  1  0.19646100  0.49571200  0.01636900  1
  O  O75  1  0.19646100  0.50428800  0.51636900  1
  O  O76  1  0.20863600  0.24296400  0.26466600  1
  O  O77  1  0.20863600  0.75703600  0.76466600  1
  O  O78  1  0.23122500  0.72244100  0.40502100  1
  O  O79  1  0.23122500  0.27755900  0.90502100  1
  O  O80  1  0.26877500  0.22244100  0.40502100  1
  O  O81  1  0.26877500  0.77755900  0.90502100  1
  O  O82  1  0.29136400  0.25703600  0.76466600  1
  O  O83  1  0.29136400  0.74296400  0.26466600  1
  O  O84  1  0.30353900  0.00428800  0.51636900  1
  O  O85  1  0.30353900  0.99571200  0.01636900  1
  O  O86  1  0.30518000  0.48579200  0.15288900  1
  O  O87  1  0.30518000  0.51420800  0.65288900  1
  O  O88  1  0.30823400  0.19235900  0.09864400  1
  O  O89  1  0.30823400  0.80764100  0.59864400  1
  O  O90  1  0.31347100  0.43480800  0.33834000  1
  O  O91  1  0.31347100  0.56519200  0.83834000  1
  O  O92  1  0.45632100  0.60974000  0.05050200  1
  O  O93  1  0.45632100  0.39026000  0.55050200  1
  O  O94  1  0.46865300  0.13919800  0.86180500  1
  O  O95  1  0.46865300  0.86080200  0.36180500  1
  O  O96  1  0.53134700  0.13919800  0.63819500  1
  O  O97  1  0.53134700  0.86080200  0.13819500  1
  O  O98  1  0.54367900  0.39026000  0.94949800  1
  O  O99  1  0.54367900  0.60974000  0.44949800  1
  O  O100  1  0.68652900  0.43480800  0.16166000  1
  O  O101  1  0.68652900  0.56519200  0.66166000  1
  O  O102  1  0.69176600  0.19235900  0.40135600  1
  O  O103  1  0.69176600  0.80764100  0.90135600  1
  O  O104  1  0.69482000  0.48579200  0.34711100  1
  O  O105  1  0.69482000  0.51420800  0.84711100  1
  O  O106  1  0.69646100  0.00428800  0.98363100  1
  O  O107  1  0.69646100  0.99571200  0.48363100  1
  O  O108  1  0.70863600  0.25703600  0.73533400  1
  O  O109  1  0.70863600  0.74296400  0.23533400  1
  O  O110  1  0.73122500  0.22244100  0.09497900  1
  O  O111  1  0.73122500  0.77755900  0.59497900  1
  O  O112  1  0.76877500  0.27755900  0.59497900  1
  O  O113  1  0.76877500  0.72244100  0.09497900  1
  O  O114  1  0.79136400  0.24296400  0.23533400  1
  O  O115  1  0.79136400  0.75703600  0.73533400  1
  O  O116  1  0.80353900  0.49571200  0.48363100  1
  O  O117  1  0.80353900  0.50428800  0.98363100  1
  O  O118  1  0.80518000  0.01420800  0.84711100  1
  O  O119  1  0.80518000  0.98579200  0.34711100  1
  O  O120  1  0.80823400  0.69235900  0.40135600  1
  O  O121  1  0.80823400  0.30764100  0.90135600  1
  O  O122  1  0.81347100  0.06519200  0.66166000  1
  O  O123  1  0.81347100  0.93480800  0.16166000  1
  O  O124  1  0.95632100  0.10974000  0.44949800  1
  O  O125  1  0.95632100  0.89026000  0.94949800  1
  O  O126  1  0.96865300  0.63919800  0.63819500  1
  O  O127  1  0.96865300  0.36080200  0.13819500  1
