# generated using pymatgen
data_CaP3H10NO12
_symmetry_space_group_name_H-M   'P 1'
_cell_length_a   7.09737800
_cell_length_b   12.76578000
_cell_length_c   13.12913200
_cell_angle_alpha   90.00000000
_cell_angle_beta   90.00000000
_cell_angle_gamma   90.00000000
_symmetry_Int_Tables_number   1
_chemical_formula_structural   CaP3H10NO12
_chemical_formula_sum   'Ca4 P12 H40 N4 O48'
_cell_volume   1189.54617932
_cell_formula_units_Z   4
loop_
 _symmetry_equiv_pos_site_id
 _symmetry_equiv_pos_as_xyz
  1  'x, y, z'
loop_
 _atom_site_type_symbol
 _atom_site_label
 _atom_site_symmetry_multiplicity
 _atom_site_fract_x
 _atom_site_fract_y
 _atom_site_fract_z
 _atom_site_occupancy
  Ca  Ca0  1  0.15368500  0.74472700  0.31784100  1
  Ca  Ca1  1  0.15368500  0.25527300  0.68215900  1
  Ca  Ca2  1  0.84631500  0.75527300  0.81784100  1
  Ca  Ca3  1  0.84631500  0.24472700  0.18215900  1
  P  P4  1  0.67213600  0.65991600  0.34760500  1
  P  P5  1  0.67213600  0.34008400  0.65239500  1
  P  P6  1  0.32786400  0.84008400  0.84760500  1
  P  P7  1  0.32786400  0.15991600  0.15239500  1
  P  P8  1  0.93755400  0.51588600  0.67237300  1
  P  P9  1  0.93755400  0.48411400  0.32762700  1
  P  P10  1  0.06244600  0.98411400  0.17237300  1
  P  P11  1  0.06244600  0.01588600  0.82762700  1
  P  P12  1  0.86944100  0.70639900  0.54530200  1
  P  P13  1  0.86944100  0.29360100  0.45469800  1
  P  P14  1  0.13055900  0.79360100  0.04530200  1
  P  P15  1  0.13055900  0.20639900  0.95469800  1
  H  H16  1  0.73600200  0.97004400  0.94191600  1
  H  H17  1  0.73600200  0.02995600  0.05808400  1
  H  H18  1  0.26399800  0.52995600  0.44191600  1
  H  H19  1  0.26399800  0.47004400  0.55808400  1
  H  H20  1  0.57276400  0.06018300  0.96971900  1
  H  H21  1  0.57276400  0.93981700  0.03028100  1
  H  H22  1  0.42723600  0.43981700  0.46971900  1
  H  H23  1  0.42723600  0.56018300  0.53028100  1
  H  H24  1  0.91511500  0.99307200  0.56184200  1
  H  H25  1  0.91511500  0.00692800  0.43815800  1
  H  H26  1  0.08488500  0.50692800  0.06184200  1
  H  H27  1  0.08488500  0.49307200  0.93815800  1
  H  H28  1  0.08661500  0.93369100  0.49075200  1
  H  H29  1  0.08661500  0.06630900  0.50924800  1
  H  H30  1  0.91338500  0.56630900  0.99075200  1
  H  H31  1  0.91338500  0.43369100  0.00924800  1
  H  H32  1  0.55679300  0.59512600  0.96402500  1
  H  H33  1  0.55679300  0.40487400  0.03597500  1
  H  H34  1  0.44320700  0.90487400  0.46402500  1
  H  H35  1  0.44320700  0.09512600  0.53597500  1
  H  H36  1  0.64649800  0.69622200  0.00869500  1
  H  H37  1  0.64649800  0.30377800  0.99130500  1
  H  H38  1  0.35350200  0.80377800  0.50869500  1
  H  H39  1  0.35350200  0.19622200  0.49130500  1
  H  H40  1  0.30629300  0.26871200  0.33801600  1
  H  H41  1  0.30629300  0.73128800  0.66198400  1
  H  H42  1  0.69370700  0.23128800  0.83801600  1
  H  H43  1  0.69370700  0.76871200  0.16198400  1
  H  H44  1  0.51645100  0.73276400  0.62588500  1
  H  H45  1  0.51645100  0.26723600  0.37411500  1
  H  H46  1  0.48354900  0.76723600  0.12588500  1
  H  H47  1  0.48354900  0.23276400  0.87411500  1
  H  H48  1  0.41160400  0.56968100  0.84374700  1
  H  H49  1  0.41160400  0.43031900  0.15625300  1
  H  H50  1  0.58839600  0.93031900  0.34374700  1
  H  H51  1  0.58839600  0.06968100  0.65625300  1
  H  H52  1  0.20632400  0.44746700  0.19267900  1
  H  H53  1  0.20632400  0.55253300  0.80732100  1
  H  H54  1  0.79367600  0.05253300  0.69267900  1
  H  H55  1  0.79367600  0.94746700  0.30732100  1
  N  N56  1  0.34867400  0.50000000  0.50000000  1
  N  N57  1  0.65132600  0.00000000  0.00000000  1
  N  N58  1  0.99586800  0.50000000  0.00000000  1
  N  N59  1  0.00413200  0.00000000  0.50000000  1
  O  O60  1  0.46597600  0.33144200  0.67165400  1
  O  O61  1  0.46597600  0.66855800  0.32834600  1
  O  O62  1  0.53402400  0.16855800  0.17165400  1
  O  O63  1  0.53402400  0.83144200  0.82834600  1
  O  O64  1  0.80914500  0.27408400  0.71208600  1
  O  O65  1  0.80914500  0.72591600  0.28791400  1
  O  O66  1  0.19085500  0.22591600  0.21208600  1
  O  O67  1  0.19085500  0.77408400  0.78791400  1
  O  O68  1  0.72901500  0.53576300  0.33616600  1
  O  O69  1  0.72901500  0.46423700  0.66383400  1
  O  O70  1  0.27098500  0.96423700  0.83616600  1
  O  O71  1  0.27098500  0.03576300  0.16383400  1
  O  O72  1  0.30210900  0.82479300  0.97005000  1
  O  O73  1  0.30210900  0.17520700  0.02995000  1
  O  O74  1  0.69789100  0.67520700  0.47005000  1
  O  O75  1  0.69789100  0.32479300  0.52995000  1
  O  O76  1  0.08763600  0.56527400  0.34525700  1
  O  O77  1  0.08763600  0.43472600  0.65474300  1
  O  O78  1  0.91236400  0.93472600  0.84525700  1
  O  O79  1  0.91236400  0.06527400  0.15474300  1
  O  O80  1  0.05725000  0.92000600  0.26831800  1
  O  O81  1  0.05725000  0.07999400  0.73168200  1
  O  O82  1  0.94275000  0.57999400  0.76831800  1
  O  O83  1  0.94275000  0.42000600  0.23168200  1
  O  O84  1  0.95174200  0.59128200  0.57386400  1
  O  O85  1  0.95174200  0.40871800  0.42613600  1
  O  O86  1  0.04825800  0.90871800  0.07386400  1
  O  O87  1  0.04825800  0.09128200  0.92613600  1
  O  O88  1  0.78049400  0.75391000  0.63856000  1
  O  O89  1  0.78049400  0.24609000  0.36144000  1
  O  O90  1  0.21950600  0.74609000  0.13856000  1
  O  O91  1  0.21950600  0.25391000  0.86144000  1
  O  O92  1  0.01769800  0.76340500  0.48684600  1
  O  O93  1  0.01769800  0.23659500  0.51315400  1
  O  O94  1  0.98230200  0.73659500  0.98684600  1
  O  O95  1  0.98230200  0.26340500  0.01315400  1
  O  O96  1  0.65962600  0.35667100  0.04824400  1
  O  O97  1  0.65962600  0.64332900  0.95175600  1
  O  O98  1  0.34037400  0.14332900  0.54824400  1
  O  O99  1  0.34037400  0.85667100  0.45175600  1
  O  O100  1  0.61266400  0.78396800  0.10278900  1
  O  O101  1  0.61266400  0.21603200  0.89721100  1
  O  O102  1  0.38733600  0.71603200  0.60278900  1
  O  O103  1  0.38733600  0.28396800  0.39721100  1
  O  O104  1  0.69901500  0.02616900  0.64442000  1
  O  O105  1  0.69901500  0.97383100  0.35558000  1
  O  O106  1  0.30098500  0.47383100  0.14442000  1
  O  O107  1  0.30098500  0.52616900  0.85558000  1
