# generated using pymatgen
data_Rb3SbO3
_symmetry_space_group_name_H-M   'P 1'
_cell_length_a   8.13820800
_cell_length_b   11.18578200
_cell_length_c   7.82823515
_cell_angle_alpha   90.00000000
_cell_angle_beta   97.15102463
_cell_angle_gamma   90.00000000
_symmetry_Int_Tables_number   1
_chemical_formula_structural   Rb3SbO3
_chemical_formula_sum   'Rb12 Sb4 O12'
_cell_volume   707.07848113
_cell_formula_units_Z   4
loop_
 _symmetry_equiv_pos_site_id
 _symmetry_equiv_pos_as_xyz
  1  'x, y, z'
loop_
 _atom_site_type_symbol
 _atom_site_label
 _atom_site_symmetry_multiplicity
 _atom_site_fract_x
 _atom_site_fract_y
 _atom_site_fract_z
 _atom_site_occupancy
  Rb  Rb0  1  0.32265800  0.00000000  0.34664400  1
  Rb  Rb1  1  0.50000000  0.69366300  0.50000000  1
  Rb  Rb2  1  0.50000000  0.30633700  0.50000000  1
  Rb  Rb3  1  0.50000000  0.27854600  0.00000000  1
  Rb  Rb4  1  0.50000000  0.72145400  0.00000000  1
  Rb  Rb5  1  0.67734200  0.00000000  0.65335600  1
  Rb  Rb6  1  0.82265800  0.50000000  0.34664400  1
  Rb  Rb7  1  0.00000000  0.19366300  0.50000000  1
  Rb  Rb8  1  0.00000000  0.80633700  0.50000000  1
  Rb  Rb9  1  0.00000000  0.77854600  0.00000000  1
  Rb  Rb10  1  0.00000000  0.22145400  0.00000000  1
  Rb  Rb11  1  0.17734200  0.50000000  0.65335600  1
  Sb  Sb12  1  0.26213900  0.00000000  0.82836700  1
  Sb  Sb13  1  0.73786100  0.00000000  0.17163300  1
  Sb  Sb14  1  0.76213900  0.50000000  0.82836700  1
  Sb  Sb15  1  0.23786100  0.50000000  0.17163300  1
  O  O16  1  0.97843400  0.00000000  0.24512700  1
  O  O17  1  0.33853400  0.13650100  0.69924900  1
  O  O18  1  0.33853400  0.86349900  0.69924900  1
  O  O19  1  0.66146600  0.13650100  0.30075100  1
  O  O20  1  0.66146600  0.86349900  0.30075100  1
  O  O21  1  0.02156600  0.00000000  0.75487300  1
  O  O22  1  0.47843400  0.50000000  0.24512700  1
  O  O23  1  0.83853400  0.63650100  0.69924900  1
  O  O24  1  0.83853400  0.36349900  0.69924900  1
  O  O25  1  0.16146600  0.63650100  0.30075100  1
  O  O26  1  0.16146600  0.36349900  0.30075100  1
  O  O27  1  0.52156600  0.50000000  0.75487300  1
