# generated using pymatgen
data_Na2VO3
_symmetry_space_group_name_H-M   'P 1'
_cell_length_a   6.44498600
_cell_length_b   8.97229200
_cell_length_c   18.43231600
_cell_angle_alpha   90.00000000
_cell_angle_beta   90.00000000
_cell_angle_gamma   90.00000000
_symmetry_Int_Tables_number   1
_chemical_formula_structural   Na2VO3
_chemical_formula_sum   'Na32 V16 O48'
_cell_volume   1065.87256703
_cell_formula_units_Z   16
loop_
 _symmetry_equiv_pos_site_id
 _symmetry_equiv_pos_as_xyz
  1  'x, y, z'
loop_
 _atom_site_type_symbol
 _atom_site_label
 _atom_site_symmetry_multiplicity
 _atom_site_fract_x
 _atom_site_fract_y
 _atom_site_fract_z
 _atom_site_occupancy
  Na  Na0  1  0.75052100  0.24916100  0.99416500  1
  Na  Na1  1  0.99492900  0.00014400  0.92146200  1
  Na  Na2  1  0.74492900  0.25014400  0.82853800  1
  Na  Na3  1  0.00052100  0.99916100  0.75583500  1
  Na  Na4  1  0.99947900  0.99916100  0.24416500  1
  Na  Na5  1  0.25507100  0.25014400  0.17146200  1
  Na  Na6  1  0.00507100  0.00014400  0.07853800  1
  Na  Na7  1  0.24947900  0.24916100  0.00583500  1
  Na  Na8  1  0.75052100  0.74916100  0.49416500  1
  Na  Na9  1  0.99492900  0.50014400  0.42146200  1
  Na  Na10  1  0.74492900  0.75014400  0.32853800  1
  Na  Na11  1  0.00052100  0.49916100  0.25583500  1
  Na  Na12  1  0.99947900  0.49916100  0.74416500  1
  Na  Na13  1  0.25507100  0.75014400  0.67146200  1
  Na  Na14  1  0.00507100  0.50014400  0.57853800  1
  Na  Na15  1  0.24947900  0.74916100  0.50583500  1
  Na  Na16  1  0.25052100  0.74916100  0.99416500  1
  Na  Na17  1  0.49492900  0.50014400  0.92146200  1
  Na  Na18  1  0.24492900  0.75014400  0.82853800  1
  Na  Na19  1  0.50052100  0.49916100  0.75583500  1
  Na  Na20  1  0.49947900  0.49916100  0.24416500  1
  Na  Na21  1  0.75507100  0.75014400  0.17146200  1
  Na  Na22  1  0.50507100  0.50014400  0.07853800  1
  Na  Na23  1  0.74947900  0.74916100  0.00583500  1
  Na  Na24  1  0.25052100  0.24916100  0.49416500  1
  Na  Na25  1  0.49492900  0.00014400  0.42146200  1
  Na  Na26  1  0.24492900  0.25014400  0.32853800  1
  Na  Na27  1  0.50052100  0.99916100  0.25583500  1
  Na  Na28  1  0.49947900  0.99916100  0.74416500  1
  Na  Na29  1  0.75507100  0.25014400  0.67146200  1
  Na  Na30  1  0.50507100  0.00014400  0.57853800  1
  Na  Na31  1  0.74947900  0.24916100  0.50583500  1
  V  V32  1  0.48324200  0.00245300  0.91377400  1
  V  V33  1  0.73324200  0.75245300  0.83622600  1
  V  V34  1  0.26675800  0.75245300  0.16377400  1
  V  V35  1  0.51675800  0.00245300  0.08622600  1
  V  V36  1  0.48324200  0.50245300  0.41377400  1
  V  V37  1  0.73324200  0.25245300  0.33622600  1
  V  V38  1  0.26675800  0.25245300  0.66377400  1
  V  V39  1  0.51675800  0.50245300  0.58622600  1
  V  V40  1  0.98324200  0.50245300  0.91377400  1
  V  V41  1  0.23324200  0.25245300  0.83622600  1
  V  V42  1  0.76675800  0.25245300  0.16377400  1
  V  V43  1  0.01675800  0.50245300  0.08622600  1
  V  V44  1  0.98324200  0.00245300  0.41377400  1
  V  V45  1  0.23324200  0.75245300  0.33622600  1
  V  V46  1  0.76675800  0.75245300  0.66377400  1
  V  V47  1  0.01675800  0.00245300  0.58622600  1
  O  O48  1  0.51661500  0.77053550  0.90723450  1
  O  O49  1  0.46819900  0.22857650  0.90258850  1
  O  O50  1  0.71819900  0.97857650  0.84741150  1
  O  O51  1  0.26661500  0.02053550  0.84276550  1
  O  O52  1  0.55406400  0.74941500  0.75528400  1
  O  O53  1  0.44593600  0.74941500  0.24471600  1
  O  O54  1  0.73338500  0.02053550  0.15723450  1
  O  O55  1  0.28180100  0.97857650  0.15258850  1
  O  O56  1  0.53180100  0.22857650  0.09741150  1
  O  O57  1  0.48338500  0.77053550  0.09276550  1
  O  O58  1  0.69593600  0.99941500  0.00528400  1
  O  O59  1  0.30406400  0.99941500  0.99471600  1
  O  O60  1  0.51661500  0.27053550  0.40723450  1
  O  O61  1  0.46819900  0.72857650  0.40258850  1
  O  O62  1  0.71819900  0.47857650  0.34741150  1
  O  O63  1  0.26661500  0.52053550  0.34276550  1
  O  O64  1  0.55406400  0.24941500  0.25528400  1
  O  O65  1  0.44593600  0.24941500  0.74471600  1
  O  O66  1  0.73338500  0.52053550  0.65723450  1
  O  O67  1  0.28180100  0.47857650  0.65258850  1
  O  O68  1  0.53180100  0.72857650  0.59741150  1
  O  O69  1  0.48338500  0.27053550  0.59276550  1
  O  O70  1  0.69593600  0.49941500  0.50528400  1
  O  O71  1  0.30406400  0.49941500  0.49471600  1
  O  O72  1  0.01661500  0.27053550  0.90723450  1
  O  O73  1  0.96819900  0.72857650  0.90258850  1
  O  O74  1  0.21819900  0.47857650  0.84741150  1
  O  O75  1  0.76661500  0.52053550  0.84276550  1
  O  O76  1  0.05406400  0.24941500  0.75528400  1
  O  O77  1  0.94593600  0.24941500  0.24471600  1
  O  O78  1  0.23338500  0.52053550  0.15723450  1
  O  O79  1  0.78180100  0.47857650  0.15258850  1
  O  O80  1  0.03180100  0.72857650  0.09741150  1
  O  O81  1  0.98338500  0.27053550  0.09276550  1
  O  O82  1  0.19593600  0.49941500  0.00528400  1
  O  O83  1  0.80406400  0.49941500  0.99471600  1
  O  O84  1  0.01661500  0.77053550  0.40723450  1
  O  O85  1  0.96819900  0.22857650  0.40258850  1
  O  O86  1  0.21819900  0.97857650  0.34741150  1
  O  O87  1  0.76661500  0.02053550  0.34276550  1
  O  O88  1  0.05406400  0.74941500  0.25528400  1
  O  O89  1  0.94593600  0.74941500  0.74471600  1
  O  O90  1  0.23338500  0.02053550  0.65723450  1
  O  O91  1  0.78180100  0.97857650  0.65258850  1
  O  O92  1  0.03180100  0.22857650  0.59741150  1
  O  O93  1  0.98338500  0.77053550  0.59276550  1
  O  O94  1  0.19593600  0.99941500  0.50528400  1
  O  O95  1  0.80406400  0.99941500  0.49471600  1
