# generated using pymatgen
data_Hf2N2O
_symmetry_space_group_name_H-M   'P 1'
_cell_length_a   8.10978500
_cell_length_b   3.26584400
_cell_length_c   13.78789617
_cell_angle_alpha   90.00000000
_cell_angle_beta   98.60845275
_cell_angle_gamma   90.00000000
_symmetry_Int_Tables_number   1
_chemical_formula_structural   Hf2N2O
_chemical_formula_sum   'Hf12 N12 O6'
_cell_volume   361.06250054
_cell_formula_units_Z   6
loop_
 _symmetry_equiv_pos_site_id
 _symmetry_equiv_pos_as_xyz
  1  'x, y, z'
loop_
 _atom_site_type_symbol
 _atom_site_label
 _atom_site_symmetry_multiplicity
 _atom_site_fract_x
 _atom_site_fract_y
 _atom_site_fract_z
 _atom_site_occupancy
  Hf  Hf0  1  0.17924300  0.50000000  0.00660400  1
  Hf  Hf1  1  0.54407000  0.50000000  0.11863400  1
  Hf  Hf2  1  0.18108100  0.00000000  0.22182700  1
  Hf  Hf3  1  0.81917000  0.00000000  0.28385900  1
  Hf  Hf4  1  0.49132300  0.50000000  0.38797500  1
  Hf  Hf5  1  0.13308700  0.50000000  0.43398200  1
  Hf  Hf6  1  0.88496500  0.00000000  0.57504700  1
  Hf  Hf7  1  0.51695200  0.00000000  0.61609300  1
  Hf  Hf8  1  0.18461400  0.50000000  0.71988500  1
  Hf  Hf9  1  0.82245100  0.50000000  0.78159700  1
  Hf  Hf10  1  0.45289700  0.00000000  0.88019200  1
  Hf  Hf11  1  0.80932100  0.00000000  0.98225200  1
  N  N12  1  0.31781100  0.50000000  0.18056000  1
  N  N13  1  0.65120000  0.50000000  0.28283500  1
  N  N14  1  0.00708000  0.50000000  0.26721900  1
  N  N15  1  0.29130800  0.00000000  0.37321500  1
  N  N16  1  0.69917100  0.50000000  0.62762600  1
  N  N17  1  0.04464800  0.50000000  0.56929900  1
  N  N18  1  0.98942300  0.00000000  0.72890300  1
  N  N19  1  0.35175600  0.00000000  0.71494700  1
  N  N20  1  0.68080400  0.00000000  0.81818800  1
  N  N21  1  0.94162600  0.50000000  0.92936600  1
  N  N22  1  0.27793500  0.50000000  0.87323900  1
  N  N23  1  0.61604400  0.50000000  0.97561600  1
  O  O24  1  0.37702700  0.00000000  0.03283900  1
  O  O25  1  0.71582000  0.00000000  0.13129400  1
  O  O26  1  0.05996700  0.00000000  0.07164800  1
  O  O27  1  0.95688200  0.00000000  0.42402500  1
  O  O28  1  0.62211800  0.00000000  0.46025100  1
  O  O29  1  0.38020800  0.50000000  0.53098400  1
