# generated using pymatgen
data_KH3(SeO3)2
_symmetry_space_group_name_H-M   'P 1'
_cell_length_a   6.40290200
_cell_length_b   6.47790400
_cell_length_c   16.25214100
_cell_angle_alpha   90.00000000
_cell_angle_beta   90.00000000
_cell_angle_gamma   90.00000000
_symmetry_Int_Tables_number   1
_chemical_formula_structural   KH3(SeO3)2
_chemical_formula_sum   'K4 H12 Se8 O24'
_cell_volume   674.09630084
_cell_formula_units_Z   4
loop_
 _symmetry_equiv_pos_site_id
 _symmetry_equiv_pos_as_xyz
  1  'x, y, z'
loop_
 _atom_site_type_symbol
 _atom_site_label
 _atom_site_symmetry_multiplicity
 _atom_site_fract_x
 _atom_site_fract_y
 _atom_site_fract_z
 _atom_site_occupancy
  K  K0  1  0.81138700  0.75000000  0.50000000  1
  K  K1  1  0.68861300  0.25000000  0.00000000  1
  K  K2  1  0.18861300  0.25000000  0.50000000  1
  K  K3  1  0.31138700  0.75000000  0.00000000  1
  H  H4  1  0.55846300  0.96902600  0.17199100  1
  H  H5  1  0.94153700  0.46902600  0.32800900  1
  H  H6  1  0.94153700  0.03097400  0.67199100  1
  H  H7  1  0.55846300  0.53097400  0.82800900  1
  H  H8  1  0.44153700  0.03097400  0.82800900  1
  H  H9  1  0.05846300  0.53097400  0.67199100  1
  H  H10  1  0.05846300  0.96902600  0.32800900  1
  H  H11  1  0.44153700  0.46902600  0.17199100  1
  H  H12  1  0.87665700  0.75000000  0.00000000  1
  H  H13  1  0.62334300  0.25000000  0.50000000  1
  H  H14  1  0.12334300  0.25000000  0.00000000  1
  H  H15  1  0.37665700  0.75000000  0.50000000  1
  Se  Se16  1  0.80798700  0.70919400  0.15020100  1
  Se  Se17  1  0.69201300  0.20919400  0.34979900  1
  Se  Se18  1  0.69201300  0.29080600  0.65020100  1
  Se  Se19  1  0.80798700  0.79080600  0.84979900  1
  Se  Se20  1  0.19201300  0.29080600  0.84979900  1
  Se  Se21  1  0.30798700  0.79080600  0.65020100  1
  Se  Se22  1  0.30798700  0.70919400  0.34979900  1
  Se  Se23  1  0.19201300  0.20919400  0.15020100  1
  O  O24  1  0.60909200  0.56721900  0.11117900  1
  O  O25  1  0.89090800  0.06721900  0.38882100  1
  O  O26  1  0.89090800  0.43278100  0.61117900  1
  O  O27  1  0.60909200  0.93278100  0.88882100  1
  O  O28  1  0.39090800  0.43278100  0.88882100  1
  O  O29  1  0.10909200  0.93278100  0.61117900  1
  O  O30  1  0.10909200  0.56721900  0.38882100  1
  O  O31  1  0.39090800  0.06721900  0.11117900  1
  O  O32  1  0.88658500  0.85088500  0.06344500  1
  O  O33  1  0.61341500  0.35088500  0.43655500  1
  O  O34  1  0.61341500  0.14911500  0.56344500  1
  O  O35  1  0.88658500  0.64911500  0.93655500  1
  O  O36  1  0.11341500  0.14911500  0.93655500  1
  O  O37  1  0.38658500  0.64911500  0.56344500  1
  O  O38  1  0.38658500  0.85088500  0.43655500  1
  O  O39  1  0.11341500  0.35088500  0.06344500  1
  O  O40  1  0.67852900  0.90859100  0.20686500  1
  O  O41  1  0.82147100  0.40859100  0.29313500  1
  O  O42  1  0.82147100  0.09140900  0.70686500  1
  O  O43  1  0.67852900  0.59140900  0.79313500  1
  O  O44  1  0.32147100  0.09140900  0.79313500  1
  O  O45  1  0.17852900  0.59140900  0.70686500  1
  O  O46  1  0.17852900  0.90859100  0.29313500  1
  O  O47  1  0.32147100  0.40859100  0.20686500  1
