# generated using pymatgen
data_Li4Co5CuO12
_symmetry_space_group_name_H-M   'P 1'
_cell_length_a   4.93338400
_cell_length_b   8.51629800
_cell_length_c   9.92282370
_cell_angle_alpha   90.00000000
_cell_angle_beta   90.92771397
_cell_angle_gamma   90.00000000
_symmetry_Int_Tables_number   1
_chemical_formula_structural   Li4Co5CuO12
_chemical_formula_sum   'Li8 Co10 Cu2 O24'
_cell_volume   416.84453704
_cell_formula_units_Z   2
loop_
 _symmetry_equiv_pos_site_id
 _symmetry_equiv_pos_as_xyz
  1  'x, y, z'
loop_
 _atom_site_type_symbol
 _atom_site_label
 _atom_site_symmetry_multiplicity
 _atom_site_fract_x
 _atom_site_fract_y
 _atom_site_fract_z
 _atom_site_occupancy
  Li  Li0  1  0.41525300  0.24598200  0.74846100  1
  Li  Li1  1  0.58474700  0.24598200  0.25153900  1
  Li  Li2  1  0.41525300  0.75401800  0.74846100  1
  Li  Li3  1  0.58474700  0.75401800  0.25153900  1
  Li  Li4  1  0.91525300  0.74598200  0.74846100  1
  Li  Li5  1  0.08474700  0.74598200  0.25153900  1
  Li  Li6  1  0.91525300  0.25401800  0.74846100  1
  Li  Li7  1  0.08474700  0.25401800  0.25153900  1
  Co  Co8  1  0.50000000  0.33501700  0.50000000  1
  Co  Co9  1  0.50000000  0.83564000  0.00000000  1
  Co  Co10  1  0.50000000  0.16436000  0.00000000  1
  Co  Co11  1  0.50000000  0.66498300  0.50000000  1
  Co  Co12  1  0.50000000  0.00000000  0.50000000  1
  Co  Co13  1  0.00000000  0.83501700  0.50000000  1
  Co  Co14  1  0.00000000  0.33564000  0.00000000  1
  Co  Co15  1  0.00000000  0.66436000  0.00000000  1
  Co  Co16  1  0.00000000  0.16498300  0.50000000  1
  Co  Co17  1  0.00000000  0.50000000  0.50000000  1
  Cu  Cu18  1  0.00000000  0.00000000  0.00000000  1
  Cu  Cu19  1  0.50000000  0.50000000  0.00000000  1
  O  O20  1  0.33484100  0.32591000  0.10504600  1
  O  O21  1  0.66515900  0.32591000  0.89495400  1
  O  O22  1  0.33601850  0.16778750  0.39871500  1
  O  O23  1  0.33601850  0.83221250  0.39871500  1
  O  O24  1  0.66398150  0.16778750  0.60128500  1
  O  O25  1  0.17979200  0.00000000  0.59771500  1
  O  O26  1  0.66398150  0.83221250  0.60128500  1
  O  O27  1  0.33484100  0.67409000  0.10504600  1
  O  O28  1  0.33416600  0.00000000  0.09759200  1
  O  O29  1  0.66515900  0.67409000  0.89495400  1
  O  O30  1  0.66583400  0.00000000  0.90240800  1
  O  O31  1  0.82020800  0.00000000  0.40228500  1
  O  O32  1  0.83484100  0.82591000  0.10504600  1
  O  O33  1  0.16515900  0.82591000  0.89495400  1
  O  O34  1  0.83601850  0.66778750  0.39871500  1
  O  O35  1  0.83601850  0.33221250  0.39871500  1
  O  O36  1  0.16398150  0.66778750  0.60128500  1
  O  O37  1  0.67979200  0.50000000  0.59771500  1
  O  O38  1  0.16398150  0.33221250  0.60128500  1
  O  O39  1  0.83484100  0.17409000  0.10504600  1
  O  O40  1  0.83416600  0.50000000  0.09759200  1
  O  O41  1  0.16515900  0.17409000  0.89495400  1
  O  O42  1  0.16583400  0.50000000  0.90240800  1
  O  O43  1  0.32020800  0.50000000  0.40228500  1
