# generated using pymatgen
data_KVH4O7
_symmetry_space_group_name_H-M   'P 1'
_cell_length_a   6.57639300
_cell_length_b   7.72218475
_cell_length_c   7.75066289
_cell_angle_alpha   106.05439718
_cell_angle_beta   113.69883167
_cell_angle_gamma   84.59917858
_symmetry_Int_Tables_number   1
_chemical_formula_structural   KVH4O7
_chemical_formula_sum   'K2 V2 H8 O14'
_cell_volume   346.29641272
_cell_formula_units_Z   2
loop_
 _symmetry_equiv_pos_site_id
 _symmetry_equiv_pos_as_xyz
  1  'x, y, z'
loop_
 _atom_site_type_symbol
 _atom_site_label
 _atom_site_symmetry_multiplicity
 _atom_site_fract_x
 _atom_site_fract_y
 _atom_site_fract_z
 _atom_site_occupancy
  K  K0  1  0.97724800  0.00835100  0.98651500  1
  K  K1  1  0.79214900  0.59866600  0.42381000  1
  V  V2  1  0.46854900  0.77852500  0.90178700  1
  V  V3  1  0.29538300  0.95201500  0.54922500  1
  H  H4  1  0.36264100  0.30301300  0.63884300  1
  H  H5  1  0.52955200  0.19621200  0.51358400  1
  H  H6  1  0.35039500  0.49718500  0.05569400  1
  H  H7  1  0.42665100  0.29896900  0.06217500  1
  H  H8  1  0.61988300  0.09355000  0.30548200  1
  H  H9  1  0.83405600  0.13070500  0.51671300  1
  H  H10  1  0.70245400  0.43232400  0.83237000  1
  H  H11  1  0.94525300  0.44471600  0.96404700  1
  O  O12  1  0.52487800  0.02940200  0.94622000  1
  O  O13  1  0.43395700  0.99561700  0.07967100  1
  O  O14  1  0.27780400  0.57249000  0.74165900  1
  O  O15  1  0.24314900  0.65698400  0.92229700  1
  O  O16  1  0.48331400  0.75241300  0.63550100  1
  O  O17  1  0.60471800  0.89633700  0.62448700  1
  O  O18  1  0.10444100  0.89326100  0.65611300  1
  O  O19  1  0.09044500  0.08258000  0.65301200  1
  O  O20  1  0.71025500  0.70276300  0.02322400  1
  O  O21  1  0.17013700  0.87199800  0.31466000  1
  O  O22  1  0.38474400  0.19352100  0.54848200  1
  O  O23  1  0.41676200  0.41769800  0.14472200  1
  O  O24  1  0.69025200  0.17922600  0.43781100  1
  O  O25  1  0.83212900  0.35638100  0.86529600  1
