# generated using pymatgen
data_H5C3N5O
_symmetry_space_group_name_H-M   'P 1'
_cell_length_a   4.85722900
_cell_length_b   9.74905600
_cell_length_c   12.17822115
_cell_angle_alpha   90.00000000
_cell_angle_beta   106.09842237
_cell_angle_gamma   90.00000000
_symmetry_Int_Tables_number   1
_chemical_formula_structural   H5C3N5O
_chemical_formula_sum   'H20 C12 N20 O4'
_cell_volume   554.06666724
_cell_formula_units_Z   4
loop_
 _symmetry_equiv_pos_site_id
 _symmetry_equiv_pos_as_xyz
  1  'x, y, z'
loop_
 _atom_site_type_symbol
 _atom_site_label
 _atom_site_symmetry_multiplicity
 _atom_site_fract_x
 _atom_site_fract_y
 _atom_site_fract_z
 _atom_site_occupancy
  H  H0  1  0.52273100  0.58573400  0.23206300  1
  H  H1  1  0.49752600  0.40520300  0.21966600  1
  H  H2  1  0.08542300  0.34090300  0.57545300  1
  H  H3  1  0.50247400  0.90520300  0.28033400  1
  H  H4  1  0.47726900  0.08573400  0.26793700  1
  H  H5  1  0.95333500  0.12048000  0.53833400  1
  H  H6  1  0.15511900  0.95977500  0.89322100  1
  H  H7  1  0.84488100  0.45977500  0.60677900  1
  H  H8  1  0.04666500  0.62048000  0.96166600  1
  H  H9  1  0.08542300  0.15909700  0.07545300  1
  H  H10  1  0.91457700  0.84090300  0.92454700  1
  H  H11  1  0.95333500  0.37952000  0.03833400  1
  H  H12  1  0.15511900  0.54022500  0.39322100  1
  H  H13  1  0.84488100  0.04022500  0.10677900  1
  H  H14  1  0.04666500  0.87952000  0.46166600  1
  H  H15  1  0.52273100  0.91426600  0.73206300  1
  H  H16  1  0.49752600  0.09479700  0.71966600  1
  H  H17  1  0.91457700  0.65909700  0.42454700  1
  H  H18  1  0.50247400  0.59479700  0.78033400  1
  H  H19  1  0.47726900  0.41426600  0.76793700  1
  C  C20  1  0.25983400  0.50596400  0.87159500  1
  C  C21  1  0.26414700  0.75944700  0.88440900  1
  C  C22  1  0.20361400  0.27185300  0.87703900  1
  C  C23  1  0.79638600  0.77185300  0.62296100  1
  C  C24  1  0.25983400  0.99403600  0.37159500  1
  C  C25  1  0.26414700  0.74055300  0.38440900  1
  C  C26  1  0.73585300  0.25944700  0.61559100  1
  C  C27  1  0.74016600  0.00596400  0.62840500  1
  C  C28  1  0.20361400  0.22814700  0.37703900  1
  C  C29  1  0.79638600  0.72814700  0.12296100  1
  C  C30  1  0.73585300  0.24055300  0.11559100  1
  C  C31  1  0.74016600  0.49403600  0.12840500  1
  N  N32  1  0.56837600  0.49638700  0.19617200  1
  N  N33  1  0.24052800  0.15651000  0.85554300  1
  N  N34  1  0.18350600  0.62837100  0.91057100  1
  N  N35  1  0.43162400  0.99638700  0.30382800  1
  N  N36  1  0.14752400  0.39486000  0.90797800  1
  N  N37  1  0.89155900  0.36115000  0.58873100  1
  N  N38  1  0.10844100  0.86115000  0.91126900  1
  N  N39  1  0.85247600  0.89486000  0.59202200  1
  N  N40  1  0.81649400  0.12837100  0.58942900  1
  N  N41  1  0.24052800  0.34349000  0.35554300  1
  N  N42  1  0.75947200  0.65651000  0.64445700  1
  N  N43  1  0.18350600  0.87162900  0.41057100  1
  N  N44  1  0.14752400  0.10514000  0.40797800  1
  N  N45  1  0.89155900  0.13885000  0.08873100  1
  N  N46  1  0.10844100  0.63885000  0.41126900  1
  N  N47  1  0.85247600  0.60514000  0.09202200  1
  N  N48  1  0.56837600  0.00361300  0.69617200  1
  N  N49  1  0.81649400  0.37162900  0.08942900  1
  N  N50  1  0.75947200  0.84349000  0.14445700  1
  N  N51  1  0.43162400  0.50361300  0.80382800  1
  O  O52  1  0.53138500  0.22182800  0.15803900  1
  O  O53  1  0.46861500  0.72182800  0.34196100  1
  O  O54  1  0.53138500  0.27817200  0.65803900  1
  O  O55  1  0.46861500  0.77817200  0.84196100  1
