# generated using pymatgen
data_Li2AgF5
_symmetry_space_group_name_H-M   'P 1'
_cell_length_a   4.47297200
_cell_length_b   10.26490400
_cell_length_c   9.76911500
_cell_angle_alpha   90.00000000
_cell_angle_beta   90.00000000
_cell_angle_gamma   90.00000000
_symmetry_Int_Tables_number   1
_chemical_formula_structural   Li2AgF5
_chemical_formula_sum   'Li8 Ag4 F20'
_cell_volume   448.54528282
_cell_formula_units_Z   4
loop_
 _symmetry_equiv_pos_site_id
 _symmetry_equiv_pos_as_xyz
  1  'x, y, z'
loop_
 _atom_site_type_symbol
 _atom_site_label
 _atom_site_symmetry_multiplicity
 _atom_site_fract_x
 _atom_site_fract_y
 _atom_site_fract_z
 _atom_site_occupancy
  Li  Li0  1  0.00000000  0.13955600  0.92041500  1
  Li  Li1  1  0.00000000  0.13955600  0.57958500  1
  Li  Li2  1  0.50000000  0.36044400  0.42041500  1
  Li  Li3  1  0.50000000  0.36044400  0.07958500  1
  Li  Li4  1  0.50000000  0.63955600  0.92041500  1
  Li  Li5  1  0.50000000  0.63955600  0.57958500  1
  Li  Li6  1  0.00000000  0.86044400  0.42041500  1
  Li  Li7  1  0.00000000  0.86044400  0.07958500  1
  Ag  Ag8  1  0.00000000  0.19081100  0.25000000  1
  Ag  Ag9  1  0.50000000  0.30918900  0.75000000  1
  Ag  Ag10  1  0.50000000  0.69081100  0.25000000  1
  Ag  Ag11  1  0.00000000  0.80918900  0.75000000  1
  F  F12  1  0.00000000  0.31551700  0.40991600  1
  F  F13  1  0.00000000  0.31551700  0.09008400  1
  F  F14  1  0.00000000  0.05675900  0.39429800  1
  F  F15  1  0.00000000  0.05675900  0.10570200  1
  F  F16  1  0.00000000  0.21935100  0.75000000  1
  F  F17  1  0.50000000  0.28064900  0.25000000  1
  F  F18  1  0.50000000  0.44324100  0.89429800  1
  F  F19  1  0.50000000  0.44324100  0.60570200  1
  F  F20  1  0.50000000  0.18448300  0.59008400  1
  F  F21  1  0.50000000  0.18448300  0.90991600  1
  F  F22  1  0.50000000  0.81551700  0.40991600  1
  F  F23  1  0.50000000  0.81551700  0.09008400  1
  F  F24  1  0.50000000  0.55675900  0.39429800  1
  F  F25  1  0.50000000  0.55675900  0.10570200  1
  F  F26  1  0.50000000  0.71935100  0.75000000  1
  F  F27  1  0.00000000  0.78064900  0.25000000  1
  F  F28  1  0.00000000  0.94324100  0.89429800  1
  F  F29  1  0.00000000  0.94324100  0.60570200  1
  F  F30  1  0.00000000  0.68448300  0.59008400  1
  F  F31  1  0.00000000  0.68448300  0.90991600  1
