# generated using pymatgen
data_Dy2SiO5
_symmetry_space_group_name_H-M   'P 1'
_cell_length_a   14.54154400
_cell_length_b   6.81775000
_cell_length_c   10.52106354
_cell_angle_alpha   90.00000000
_cell_angle_beta   122.18281736
_cell_angle_gamma   90.00000000
_symmetry_Int_Tables_number   1
_chemical_formula_structural   Dy2SiO5
_chemical_formula_sum   'Dy16 Si8 O40'
_cell_volume   882.80084769
_cell_formula_units_Z   8
loop_
 _symmetry_equiv_pos_site_id
 _symmetry_equiv_pos_as_xyz
  1  'x, y, z'
loop_
 _atom_site_type_symbol
 _atom_site_label
 _atom_site_symmetry_multiplicity
 _atom_site_fract_x
 _atom_site_fract_y
 _atom_site_fract_z
 _atom_site_occupancy
  Dy  Dy0  1  0.85739650  0.38219150  0.16226200  1
  Dy  Dy1  1  0.03664000  0.74435200  0.46741000  1
  Dy  Dy2  1  0.96336000  0.74435200  0.03259000  1
  Dy  Dy3  1  0.85739650  0.61780850  0.66226200  1
  Dy  Dy4  1  0.14260350  0.38219150  0.33773800  1
  Dy  Dy5  1  0.03664000  0.25564800  0.96741000  1
  Dy  Dy6  1  0.96336000  0.25564800  0.53259000  1
  Dy  Dy7  1  0.14260350  0.61780850  0.83773800  1
  Dy  Dy8  1  0.35739650  0.88219150  0.16226200  1
  Dy  Dy9  1  0.53664000  0.24435200  0.46741000  1
  Dy  Dy10  1  0.46336000  0.24435200  0.03259000  1
  Dy  Dy11  1  0.35739650  0.11780850  0.66226200  1
  Dy  Dy12  1  0.64260350  0.88219150  0.33773800  1
  Dy  Dy13  1  0.53664000  0.75564800  0.96741000  1
  Dy  Dy14  1  0.46336000  0.75564800  0.53259000  1
  Dy  Dy15  1  0.64260350  0.11780850  0.83773800  1
  Si  Si16  1  0.68195200  0.40978000  0.30541200  1
  Si  Si17  1  0.18195200  0.09022000  0.80541200  1
  Si  Si18  1  0.81804800  0.90978000  0.19458800  1
  Si  Si19  1  0.31804800  0.59022000  0.69458800  1
  Si  Si20  1  0.18195200  0.90978000  0.30541200  1
  Si  Si21  1  0.68195200  0.59022000  0.80541200  1
  Si  Si22  1  0.31804800  0.40978000  0.19458800  1
  Si  Si23  1  0.81804800  0.09022000  0.69458800  1
  O  O24  1  0.20133350  0.07341050  0.43189000  1
  O  O25  1  0.59092800  0.49068300  0.13660300  1
  O  O26  1  0.79760000  0.35147000  0.32420500  1
  O  O27  1  0.20133350  0.92658950  0.93189000  1
  O  O28  1  0.09092800  0.00931700  0.63660300  1
  O  O29  1  0.87959350  0.71613850  0.17620200  1
  O  O30  1  0.29760000  0.14853000  0.82420500  1
  O  O31  1  0.01661300  0.40575400  0.39583100  1
  O  O32  1  0.98338700  0.40575400  0.10416900  1
  O  O33  1  0.87959350  0.28386150  0.67620200  1
  O  O34  1  0.12040650  0.71613850  0.32379800  1
  O  O35  1  0.01661300  0.59424600  0.89583100  1
  O  O36  1  0.98338700  0.59424600  0.60416900  1
  O  O37  1  0.70240000  0.85147000  0.17579500  1
  O  O38  1  0.12040650  0.28386150  0.82379800  1
  O  O39  1  0.90907200  0.99068300  0.36339700  1
  O  O40  1  0.79866650  0.07341050  0.06811000  1
  O  O41  1  0.20240000  0.64853000  0.67579500  1
  O  O42  1  0.40907200  0.50931700  0.86339700  1
  O  O43  1  0.79866650  0.92658950  0.56811000  1
  O  O44  1  0.70133350  0.57341050  0.43189000  1
  O  O45  1  0.09092800  0.99068300  0.13660300  1
  O  O46  1  0.29760000  0.85147000  0.32420500  1
  O  O47  1  0.70133350  0.42658950  0.93189000  1
  O  O48  1  0.59092800  0.50931700  0.63660300  1
  O  O49  1  0.37959350  0.21613850  0.17620200  1
  O  O50  1  0.79760000  0.64853000  0.82420500  1
  O  O51  1  0.51661300  0.90575400  0.39583100  1
  O  O52  1  0.48338700  0.90575400  0.10416900  1
  O  O53  1  0.37959350  0.78386150  0.67620200  1
  O  O54  1  0.62040650  0.21613850  0.32379800  1
  O  O55  1  0.51661300  0.09424600  0.89583100  1
  O  O56  1  0.48338700  0.09424600  0.60416900  1
  O  O57  1  0.20240000  0.35147000  0.17579500  1
  O  O58  1  0.62040650  0.78386150  0.82379800  1
  O  O59  1  0.40907200  0.49068300  0.36339700  1
  O  O60  1  0.29866650  0.57341050  0.06811000  1
  O  O61  1  0.70240000  0.14853000  0.67579500  1
  O  O62  1  0.90907200  0.00931700  0.86339700  1
  O  O63  1  0.29866650  0.42658950  0.56811000  1
