# generated using pymatgen
data_LiNbCoO4
_symmetry_space_group_name_H-M   'P 1'
_cell_length_a   6.16956350
_cell_length_b   6.16956350
_cell_length_c   8.49593100
_cell_angle_alpha   90.00000000
_cell_angle_beta   90.00000000
_cell_angle_gamma   90.00000000
_symmetry_Int_Tables_number   1
_chemical_formula_structural   LiNbCoO4
_chemical_formula_sum   'Li4 Nb4 Co4 O16'
_cell_volume   323.38498684
_cell_formula_units_Z   4
loop_
 _symmetry_equiv_pos_site_id
 _symmetry_equiv_pos_as_xyz
  1  'x, y, z'
loop_
 _atom_site_type_symbol
 _atom_site_label
 _atom_site_symmetry_multiplicity
 _atom_site_fract_x
 _atom_site_fract_y
 _atom_site_fract_z
 _atom_site_occupancy
  Li  Li0  1  0.00000000  0.22113300  0.00000000  1
  Li  Li1  1  0.00000000  0.77886700  0.50000000  1
  Li  Li2  1  0.22113300  0.00000000  0.25000000  1
  Li  Li3  1  0.77886700  0.00000000  0.75000000  1
  Nb  Nb4  1  0.21351600  0.50000000  0.25000000  1
  Nb  Nb5  1  0.50000000  0.21351600  0.00000000  1
  Nb  Nb6  1  0.50000000  0.78648400  0.50000000  1
  Nb  Nb7  1  0.78648400  0.50000000  0.75000000  1
  Co  Co8  1  0.74131850  0.25868150  0.37500000  1
  Co  Co9  1  0.74131850  0.74131850  0.12500000  1
  Co  Co10  1  0.25868150  0.25868150  0.62500000  1
  Co  Co11  1  0.25868150  0.74131850  0.87500000  1
  O  O12  1  0.01638700  0.26356900  0.25432600  1
  O  O13  1  0.01638700  0.73643100  0.24567400  1
  O  O14  1  0.26356900  0.01638700  0.99567400  1
  O  O15  1  0.26356900  0.98361300  0.50432600  1
  O  O16  1  0.73643100  0.01638700  0.00432600  1
  O  O17  1  0.73643100  0.98361300  0.49567400  1
  O  O18  1  0.98361300  0.26356900  0.74567400  1
  O  O19  1  0.98361300  0.73643100  0.75432600  1
  O  O20  1  0.26543000  0.48223900  0.01584900  1
  O  O21  1  0.26543000  0.51776100  0.48415100  1
  O  O22  1  0.48223900  0.26543000  0.23415100  1
  O  O23  1  0.48223900  0.73457000  0.26584900  1
  O  O24  1  0.51776100  0.26543000  0.76584900  1
  O  O25  1  0.51776100  0.73457000  0.73415100  1
  O  O26  1  0.73457000  0.51776100  0.51584900  1
  O  O27  1  0.73457000  0.48223900  0.98415100  1
