# generated using pymatgen
data_Na6NiO4
_symmetry_space_group_name_H-M   'P 1'
_cell_length_a   7.65728883
_cell_length_b   7.65728883
_cell_length_c   5.90829429
_cell_angle_alpha   90.00000000
_cell_angle_beta   90.00000000
_cell_angle_gamma   120.00000000
_symmetry_Int_Tables_number   1
_chemical_formula_structural   Na6NiO4
_chemical_formula_sum   'Na12 Ni2 O8'
_cell_volume   300.01488915
_cell_formula_units_Z   2
loop_
 _symmetry_equiv_pos_site_id
 _symmetry_equiv_pos_as_xyz
  1  'x, y, z'
loop_
 _atom_site_type_symbol
 _atom_site_label
 _atom_site_symmetry_multiplicity
 _atom_site_fract_x
 _atom_site_fract_y
 _atom_site_fract_z
 _atom_site_occupancy
  Na  Na0  1  0.14226400  0.85773600  0.46697600  1
  Na  Na1  1  0.14226400  0.28452800  0.46697600  1
  Na  Na2  1  0.28452800  0.14226400  0.96697600  1
  Na  Na3  1  0.71547200  0.85773600  0.46697600  1
  Na  Na4  1  0.85773600  0.71547200  0.96697600  1
  Na  Na5  1  0.85773600  0.14226400  0.96697600  1
  Na  Na6  1  0.07631450  0.53815725  0.13398100  1
  Na  Na7  1  0.46184275  0.92368550  0.13398100  1
  Na  Na8  1  0.46184275  0.53815725  0.13398100  1
  Na  Na9  1  0.53815725  0.46184275  0.63398100  1
  Na  Na10  1  0.53815725  0.07631450  0.63398100  1
  Na  Na11  1  0.92368550  0.46184275  0.63398100  1
  Ni  Ni12  1  0.33333333  0.66666667  0.74204400  1
  Ni  Ni13  1  0.66666667  0.33333333  0.24204400  1
  O  O14  1  0.33333333  0.66666667  0.40579500  1
  O  O15  1  0.66666667  0.33333333  0.90579500  1
  O  O16  1  0.18980800  0.81019200  0.85737200  1
  O  O17  1  0.18980800  0.37961600  0.85737200  1
  O  O18  1  0.62038400  0.81019200  0.85737200  1
  O  O19  1  0.37961600  0.18980800  0.35737200  1
  O  O20  1  0.81019200  0.62038400  0.35737200  1
  O  O21  1  0.81019200  0.18980800  0.35737200  1
