# generated using pymatgen
data_Ba2MgO3
_symmetry_space_group_name_H-M   'P 1'
_cell_length_a   6.00106200
_cell_length_b   11.57571200
_cell_length_c   12.74137867
_cell_angle_alpha   90.00000000
_cell_angle_beta   92.86418330
_cell_angle_gamma   90.00000000
_symmetry_Int_Tables_number   1
_chemical_formula_structural   Ba2MgO3
_chemical_formula_sum   'Ba16 Mg8 O24'
_cell_volume   883.99413835
_cell_formula_units_Z   8
loop_
 _symmetry_equiv_pos_site_id
 _symmetry_equiv_pos_as_xyz
  1  'x, y, z'
loop_
 _atom_site_type_symbol
 _atom_site_label
 _atom_site_symmetry_multiplicity
 _atom_site_fract_x
 _atom_site_fract_y
 _atom_site_fract_z
 _atom_site_occupancy
  Ba  Ba0  1  0.76022350  0.89175650  0.57508000  1
  Ba  Ba1  1  0.76222850  0.79287350  0.14981300  1
  Ba  Ba2  1  0.26222850  0.70712650  0.64981300  1
  Ba  Ba3  1  0.23977650  0.89175650  0.92492000  1
  Ba  Ba4  1  0.26022350  0.60824350  0.07508000  1
  Ba  Ba5  1  0.23777150  0.79287350  0.35018700  1
  Ba  Ba6  1  0.73777150  0.70712650  0.85018700  1
  Ba  Ba7  1  0.73977650  0.60824350  0.42492000  1
  Ba  Ba8  1  0.26022350  0.39175650  0.57508000  1
  Ba  Ba9  1  0.26222850  0.29287350  0.14981300  1
  Ba  Ba10  1  0.76222850  0.20712650  0.64981300  1
  Ba  Ba11  1  0.73977650  0.39175650  0.92492000  1
  Ba  Ba12  1  0.76022350  0.10824350  0.07508000  1
  Ba  Ba13  1  0.73777150  0.29287350  0.35018700  1
  Ba  Ba14  1  0.23777150  0.20712650  0.85018700  1
  Ba  Ba15  1  0.23977650  0.10824350  0.42492000  1
  Mg  Mg16  1  0.73425850  0.99620550  0.33404800  1
  Mg  Mg17  1  0.23425850  0.50379450  0.83404800  1
  Mg  Mg18  1  0.26574150  0.99620550  0.16595200  1
  Mg  Mg19  1  0.76574150  0.50379450  0.66595200  1
  Mg  Mg20  1  0.23425850  0.49620550  0.33404800  1
  Mg  Mg21  1  0.73425850  0.00379450  0.83404800  1
  Mg  Mg22  1  0.76574150  0.49620550  0.16595200  1
  Mg  Mg23  1  0.26574150  0.00379450  0.66595200  1
  O  O24  1  0.78116950  0.90123350  0.96246700  1
  O  O25  1  0.67639950  0.82866250  0.36735100  1
  O  O26  1  0.50000000  0.91257600  0.75000000  1
  O  O27  1  0.50000000  0.50202800  0.75000000  1
  O  O28  1  0.32360050  0.82866250  0.13264900  1
  O  O29  1  0.21883050  0.90123350  0.53753300  1
  O  O30  1  0.28116950  0.59876650  0.46246700  1
  O  O31  1  0.17639950  0.67133750  0.86735100  1
  O  O32  1  0.00000000  0.58742400  0.25000000  1
  O  O33  1  0.00000000  0.99797200  0.25000000  1
  O  O34  1  0.82360050  0.67133750  0.63264900  1
  O  O35  1  0.71883050  0.59876650  0.03753300  1
  O  O36  1  0.28116950  0.40123350  0.96246700  1
  O  O37  1  0.17639950  0.32866250  0.36735100  1
  O  O38  1  0.00000000  0.41257600  0.75000000  1
  O  O39  1  0.00000000  0.00202800  0.75000000  1
  O  O40  1  0.82360050  0.32866250  0.13264900  1
  O  O41  1  0.71883050  0.40123350  0.53753300  1
  O  O42  1  0.78116950  0.09876650  0.46246700  1
  O  O43  1  0.67639950  0.17133750  0.86735100  1
  O  O44  1  0.50000000  0.08742400  0.25000000  1
  O  O45  1  0.50000000  0.49797200  0.25000000  1
  O  O46  1  0.32360050  0.17133750  0.63264900  1
  O  O47  1  0.21883050  0.09876650  0.03753300  1
