# generated using pymatgen
data_V3P6WO24
_symmetry_space_group_name_H-M   'P 1'
_cell_length_a   8.61551987
_cell_length_b   8.61551987
_cell_length_c   21.78550068
_cell_angle_alpha   90.00000000
_cell_angle_beta   90.00000000
_cell_angle_gamma   120.00000000
_symmetry_Int_Tables_number   1
_chemical_formula_structural   V3P6WO24
_chemical_formula_sum   'V9 P18 W3 O72'
_cell_volume   1400.42918942
_cell_formula_units_Z   3
loop_
 _symmetry_equiv_pos_site_id
 _symmetry_equiv_pos_as_xyz
  1  'x, y, z'
loop_
 _atom_site_type_symbol
 _atom_site_label
 _atom_site_symmetry_multiplicity
 _atom_site_fract_x
 _atom_site_fract_y
 _atom_site_fract_z
 _atom_site_occupancy
  V  V0  1  0.00000000  0.00000000  0.14210500  1
  V  V1  1  0.33333333  0.66666667  0.02561767  1
  V  V2  1  0.33333333  0.66666667  0.30905567  1
  V  V3  1  0.66666667  0.33333333  0.47543833  1
  V  V4  1  0.00000000  0.00000000  0.35895100  1
  V  V5  1  0.00000000  0.00000000  0.64238900  1
  V  V6  1  0.33333333  0.66666667  0.80877167  1
  V  V7  1  0.66666667  0.33333333  0.69228433  1
  V  V8  1  0.66666667  0.33333333  0.97572233  1
  P  P9  1  0.95445867  0.33236033  0.08141533  1
  P  P10  1  0.37790167  0.04554133  0.08141533  1
  P  P11  1  0.66763967  0.62209833  0.08141533  1
  P  P12  1  0.00676767  0.72316733  0.25085833  1
  P  P13  1  0.27683267  0.28360033  0.25085833  1
  P  P14  1  0.71639967  0.99323233  0.25085833  1
  P  P15  1  0.62112533  0.66569367  0.41474867  1
  P  P16  1  0.04456833  0.37887467  0.41474867  1
  P  P17  1  0.33430633  0.95543167  0.41474867  1
  P  P18  1  0.67343433  0.05650067  0.58419167  1
  P  P19  1  0.94349933  0.61693367  0.58419167  1
  P  P20  1  0.38306633  0.32656567  0.58419167  1
  P  P21  1  0.28779200  0.99902700  0.74808200  1
  P  P22  1  0.71123500  0.71220800  0.74808200  1
  P  P23  1  0.00097300  0.28876500  0.74808200  1
  P  P24  1  0.34010100  0.38983400  0.91752500  1
  P  P25  1  0.61016600  0.95026700  0.91752500  1
  P  P26  1  0.04973300  0.65989900  0.91752500  1
  W  W27  1  0.66666667  0.33333333  0.19211433  1
  W  W28  1  0.33333333  0.66666667  0.52544767  1
  W  W29  1  0.00000000  0.00000000  0.85878100  1
  O  O30  1  0.83081267  0.03147533  0.30838133  1
  O  O31  1  0.96852467  0.79933733  0.30838133  1
  O  O32  1  0.97098333  0.16595467  0.09071267  1
  O  O33  1  0.20066267  0.16918733  0.30838133  1
  O  O34  1  0.13812100  0.50179500  0.07745200  1
  O  O35  1  0.86109967  0.35938233  0.14007933  1
  O  O36  1  0.19497133  0.02901667  0.09071267  1
  O  O37  1  0.36367400  0.86187900  0.07745200  1
  O  O38  1  0.49820500  0.63632600  0.07745200  1
  O  O39  1  0.02679867  0.82835833  0.19233633  1
  O  O40  1  0.83479067  0.52940933  0.24221633  1
  O  O41  1  0.17164167  0.19844033  0.19233633  1
  O  O42  1  0.49828267  0.13890033  0.14007933  1
  O  O43  1  0.83404533  0.80502867  0.09071267  1
  O  O44  1  0.64061767  0.50171733  0.14007933  1
  O  O45  1  0.16635000  0.69355600  0.25693700  1
  O  O46  1  0.30644400  0.47279400  0.25693700  1
  O  O47  1  0.47059067  0.30538133  0.24221633  1
  O  O48  1  0.80155967  0.97320133  0.19233633  1
  O  O49  1  0.52720600  0.83365000  0.25693700  1
  O  O50  1  0.46784900  0.16323300  0.02553600  1
  O  O51  1  0.69461867  0.16520933  0.24221633  1
  O  O52  1  0.69538400  0.53215100  0.02553600  1
  O  O53  1  0.83676700  0.30461600  0.02553600  1
  O  O54  1  0.49747933  0.36480867  0.64171467  1
  O  O55  1  0.63519133  0.13267067  0.64171467  1
  O  O56  1  0.63765000  0.49928800  0.42404600  1
  O  O57  1  0.86732933  0.50252067  0.64171467  1
  O  O58  1  0.80478767  0.83512833  0.41078533  1
  O  O59  1  0.52776633  0.69271567  0.47341267  1
  O  O60  1  0.86163800  0.36235000  0.42404600  1
  O  O61  1  0.03034067  0.19521233  0.41078533  1
  O  O62  1  0.16487167  0.96965933  0.41078533  1
  O  O63  1  0.69346533  0.16169167  0.52566967  1
  O  O64  1  0.50145733  0.86274267  0.57554967  1
  O  O65  1  0.83830833  0.53177367  0.52566967  1
  O  O66  1  0.16494933  0.47223367  0.47341267  1
  O  O67  1  0.50071200  0.13836200  0.42404600  1
  O  O68  1  0.30728433  0.83505067  0.47341267  1
  O  O69  1  0.83301667  0.02688933  0.59027033  1
  O  O70  1  0.97311067  0.80612733  0.59027033  1
  O  O71  1  0.13725733  0.63871467  0.57554967  1
  O  O72  1  0.46822633  0.30653467  0.52566967  1
  O  O73  1  0.19387267  0.16698333  0.59027033  1
  O  O74  1  0.13451567  0.49656633  0.35886933  1
  O  O75  1  0.36128533  0.49854267  0.57554967  1
  O  O76  1  0.36205067  0.86548433  0.35886933  1
  O  O77  1  0.50343367  0.63794933  0.35886933  1
  O  O78  1  0.16414600  0.69814200  0.97504800  1
  O  O79  1  0.30185800  0.46600400  0.97504800  1
  O  O80  1  0.30431667  0.83262133  0.75737933  1
  O  O81  1  0.53399600  0.83585400  0.97504800  1
  O  O82  1  0.47145433  0.16846167  0.74411867  1
  O  O83  1  0.19443300  0.02604900  0.80674600  1
  O  O84  1  0.52830467  0.69568333  0.75737933  1
  O  O85  1  0.69700733  0.52854567  0.74411867  1
  O  O86  1  0.83153833  0.30299267  0.74411867  1
  O  O87  1  0.36013200  0.49502500  0.85900300  1
  O  O88  1  0.16812400  0.19607600  0.90888300  1
  O  O89  1  0.50497500  0.86510700  0.85900300  1
  O  O90  1  0.83161600  0.80556700  0.80674600  1
  O  O91  1  0.16737867  0.47169533  0.75737933  1
  O  O92  1  0.97395100  0.16838400  0.80674600  1
  O  O93  1  0.49968333  0.36022267  0.92360367  1
  O  O94  1  0.63977733  0.13946067  0.92360367  1
  O  O95  1  0.80392400  0.97204800  0.90888300  1
  O  O96  1  0.13489300  0.63986800  0.85900300  1
  O  O97  1  0.86053933  0.50031667  0.92360367  1
  O  O98  1  0.80118233  0.82989967  0.69220267  1
  O  O99  1  0.02795200  0.83187600  0.90888300  1
  O  O100  1  0.02871733  0.19881767  0.69220267  1
  O  O101  1  0.17010033  0.97128267  0.69220267  1
