# generated using pymatgen
data_Ho2Zr2O7
_symmetry_space_group_name_H-M   'P 1'
_cell_length_a   7.85996700
_cell_length_b   5.51541000
_cell_length_c   13.78881731
_cell_angle_alpha   90.00000000
_cell_angle_beta   98.44868367
_cell_angle_gamma   90.00000000
_symmetry_Int_Tables_number   1
_chemical_formula_structural   Ho2Zr2O7
_chemical_formula_sum   'Ho8 Zr8 O28'
_cell_volume   591.27123855
_cell_formula_units_Z   4
loop_
 _symmetry_equiv_pos_site_id
 _symmetry_equiv_pos_as_xyz
  1  'x, y, z'
loop_
 _atom_site_type_symbol
 _atom_site_label
 _atom_site_symmetry_multiplicity
 _atom_site_fract_x
 _atom_site_fract_y
 _atom_site_fract_z
 _atom_site_occupancy
  Ho  Ho0  1  0.86260000  0.16978900  0.44097700  1
  Ho  Ho1  1  0.76346100  0.72136200  0.07312400  1
  Ho  Ho2  1  0.71323800  0.25779600  0.86588400  1
  Ho  Ho3  1  0.63803800  0.74184800  0.60092200  1
  Ho  Ho4  1  0.36196200  0.24184800  0.39907800  1
  Ho  Ho5  1  0.28676200  0.75779600  0.13411600  1
  Ho  Ho6  1  0.23653900  0.22136200  0.92687600  1
  Ho  Ho7  1  0.13740000  0.66978900  0.55902300  1
  Zr  Zr8  1  0.92548600  0.23383000  0.68036900  1
  Zr  Zr9  1  0.97258200  0.73710200  0.88189800  1
  Zr  Zr10  1  0.58949900  0.72249000  0.32683100  1
  Zr  Zr11  1  0.53179200  0.23569500  0.12411000  1
  Zr  Zr12  1  0.46820800  0.73569500  0.87589000  1
  Zr  Zr13  1  0.41050100  0.22249000  0.67316900  1
  Zr  Zr14  1  0.02741800  0.23710200  0.11810200  1
  Zr  Zr15  1  0.07451400  0.73383000  0.31963100  1
  O  O16  1  0.92194100  0.94534000  0.58243900  1
  O  O17  1  0.00324400  0.08245400  0.82649200  1
  O  O18  1  0.83001800  0.86682500  0.32445400  1
  O  O19  1  0.77815900  0.11436800  0.11630800  1
  O  O20  1  0.84772400  0.45530000  0.56472500  1
  O  O21  1  0.92333700  0.44870800  0.97807000  1
  O  O22  1  0.86001100  0.53340300  0.77003900  1
  O  O23  1  0.63459000  0.38790600  0.37945900  1
  O  O24  1  0.58449900  0.58707300  0.17270800  1
  O  O25  1  0.72887000  0.86851500  0.91721500  1
  O  O26  1  0.67623600  0.09373200  0.70156700  1
  O  O27  1  0.57984200  0.92481500  0.45336800  1
  O  O28  1  0.43737200  0.95313600  0.02305300  1
  O  O29  1  0.47335200  0.02602200  0.23350400  1
  O  O30  1  0.52664800  0.52602200  0.76649600  1
  O  O31  1  0.56262800  0.45313600  0.97694700  1
  O  O32  1  0.42015800  0.42481500  0.54663200  1
  O  O33  1  0.32376400  0.59373200  0.29843300  1
  O  O34  1  0.27113000  0.36851500  0.08278500  1
  O  O35  1  0.41550100  0.08707300  0.82729200  1
  O  O36  1  0.36541000  0.88790600  0.62054100  1
  O  O37  1  0.13998900  0.03340300  0.22996100  1
  O  O38  1  0.07666300  0.94870800  0.02193000  1
  O  O39  1  0.15227600  0.95530000  0.43527500  1
  O  O40  1  0.22184100  0.61436800  0.88369200  1
  O  O41  1  0.16998200  0.36682500  0.67554600  1
  O  O42  1  0.99675600  0.58245400  0.17350800  1
  O  O43  1  0.07805900  0.44534000  0.41756100  1
