# generated using pymatgen
data_HoBrO
_symmetry_space_group_name_H-M   'P 1'
_cell_length_a   3.82852759
_cell_length_b   3.82852759
_cell_length_c   30.07938220
_cell_angle_alpha   90.00000000
_cell_angle_beta   90.00000000
_cell_angle_gamma   120.00000000
_symmetry_Int_Tables_number   1
_chemical_formula_structural   HoBrO
_chemical_formula_sum   'Ho6 Br6 O6'
_cell_volume   381.82389792
_cell_formula_units_Z   6
loop_
 _symmetry_equiv_pos_site_id
 _symmetry_equiv_pos_as_xyz
  1  'x, y, z'
loop_
 _atom_site_type_symbol
 _atom_site_label
 _atom_site_symmetry_multiplicity
 _atom_site_fract_x
 _atom_site_fract_y
 _atom_site_fract_z
 _atom_site_occupancy
  Ho  Ho0  1  0.00000000  0.00000000  0.11976800  1
  Ho  Ho1  1  0.66666667  0.33333333  0.21356533  1
  Ho  Ho2  1  0.66666667  0.33333333  0.45310133  1
  Ho  Ho3  1  0.33333333  0.66666667  0.54689867  1
  Ho  Ho4  1  0.33333333  0.66666667  0.78643467  1
  Ho  Ho5  1  0.00000000  0.00000000  0.88023200  1
  Br  Br6  1  0.33333333  0.66666667  0.05561467  1
  Br  Br7  1  0.33333333  0.66666667  0.27771867  1
  Br  Br8  1  0.00000000  0.00000000  0.38894800  1
  Br  Br9  1  0.00000000  0.00000000  0.61105200  1
  Br  Br10  1  0.66666667  0.33333333  0.72228133  1
  Br  Br11  1  0.66666667  0.33333333  0.94438533  1
  O  O12  1  0.66666667  0.33333333  0.13834033  1
  O  O13  1  0.00000000  0.00000000  0.19499300  1
  O  O14  1  0.33333333  0.66666667  0.47167367  1
  O  O15  1  0.66666667  0.33333333  0.52832633  1
  O  O16  1  0.00000000  0.00000000  0.80500700  1
  O  O17  1  0.33333333  0.66666667  0.86165967  1
