# generated using pymatgen
data_Li10Mn2Fe3Ni3O16
_symmetry_space_group_name_H-M   'P 1'
_cell_length_a   10.29087800
_cell_length_b   5.98396600
_cell_length_c   9.78657612
_cell_angle_alpha   90.00000000
_cell_angle_beta   90.83695204
_cell_angle_gamma   90.00000000
_symmetry_Int_Tables_number   1
_chemical_formula_structural   Li10Mn2Fe3Ni3O16
_chemical_formula_sum   'Li20 Mn4 Fe6 Ni6 O32'
_cell_volume   602.59564455
_cell_formula_units_Z   2
loop_
 _symmetry_equiv_pos_site_id
 _symmetry_equiv_pos_as_xyz
  1  'x, y, z'
loop_
 _atom_site_type_symbol
 _atom_site_label
 _atom_site_symmetry_multiplicity
 _atom_site_fract_x
 _atom_site_fract_y
 _atom_site_fract_z
 _atom_site_occupancy
  Li  Li0  1  0.59637050  0.79567950  0.05123000  1
  Li  Li1  1  0.59637050  0.20432050  0.05123000  1
  Li  Li2  1  0.67237800  0.00000000  0.26693800  1
  Li  Li3  1  0.80387600  0.00000000  0.04829400  1
  Li  Li4  1  0.00423100  0.00000000  0.98057200  1
  Li  Li5  1  0.00447900  0.00000000  0.47608800  1
  Li  Li6  1  0.19864400  0.00000000  0.54500900  1
  Li  Li7  1  0.40339100  0.79228800  0.53940000  1
  Li  Li8  1  0.34266800  0.00000000  0.76775500  1
  Li  Li9  1  0.40339100  0.20771200  0.53940000  1
  Li  Li10  1  0.09637050  0.29567950  0.05123000  1
  Li  Li11  1  0.09637050  0.70432050  0.05123000  1
  Li  Li12  1  0.17237800  0.50000000  0.26693800  1
  Li  Li13  1  0.30387600  0.50000000  0.04829400  1
  Li  Li14  1  0.50423100  0.50000000  0.98057200  1
  Li  Li15  1  0.50447900  0.50000000  0.47608800  1
  Li  Li16  1  0.69864400  0.50000000  0.54500900  1
  Li  Li17  1  0.90339100  0.29228800  0.53940000  1
  Li  Li18  1  0.84266800  0.50000000  0.76775500  1
  Li  Li19  1  0.90339100  0.70771200  0.53940000  1
  Mn  Mn20  1  0.67338200  0.00000000  0.52151700  1
  Mn  Mn21  1  0.33920600  0.00000000  0.02393700  1
  Mn  Mn22  1  0.17338200  0.50000000  0.52151700  1
  Mn  Mn23  1  0.83920600  0.50000000  0.02393700  1
  Fe  Fe24  1  0.59121150  0.75602350  0.77837100  1
  Fe  Fe25  1  0.59121150  0.24397650  0.77837100  1
  Fe  Fe26  1  0.17752700  0.00000000  0.27608600  1
  Fe  Fe27  1  0.09121150  0.25602350  0.77837100  1
  Fe  Fe28  1  0.09121150  0.74397650  0.77837100  1
  Fe  Fe29  1  0.67752700  0.50000000  0.27608600  1
  Ni  Ni30  1  0.83923000  0.00000000  0.77834200  1
  Ni  Ni31  1  0.41837350  0.75320850  0.27942600  1
  Ni  Ni32  1  0.41837350  0.24679150  0.27942600  1
  Ni  Ni33  1  0.33923000  0.50000000  0.77834200  1
  Ni  Ni34  1  0.91837350  0.25320850  0.27942600  1
  Ni  Ni35  1  0.91837350  0.74679150  0.27942600  1
  O  O36  1  0.59317850  0.75552850  0.40766900  1
  O  O37  1  0.51826300  0.00000000  0.64844800  1
  O  O38  1  0.00712200  0.00000000  0.17287300  1
  O  O39  1  0.74656200  0.77056600  0.64907200  1
  O  O40  1  0.59317850  0.24447150  0.40766900  1
  O  O41  1  0.66931800  0.00000000  0.89629500  1
  O  O42  1  0.01299600  0.00000000  0.66748100  1
  O  O43  1  0.74656200  0.22943400  0.64907200  1
  O  O44  1  0.83198000  0.00000000  0.41417000  1
  O  O45  1  0.25125950  0.75458150  0.15759700  1
  O  O46  1  0.17741800  0.00000000  0.89882000  1
  O  O47  1  0.25125950  0.24541850  0.15759700  1
  O  O48  1  0.33380400  0.00000000  0.39836100  1
  O  O49  1  0.42869800  0.75618800  0.89845700  1
  O  O50  1  0.48738000  0.00000000  0.14791000  1
  O  O51  1  0.42869800  0.24381200  0.89845700  1
  O  O52  1  0.09317850  0.25552850  0.40766900  1
  O  O53  1  0.01826300  0.50000000  0.64844800  1
  O  O54  1  0.50712200  0.50000000  0.17287300  1
  O  O55  1  0.24656200  0.27056600  0.64907200  1
  O  O56  1  0.09317850  0.74447150  0.40766900  1
  O  O57  1  0.16931800  0.50000000  0.89629500  1
  O  O58  1  0.51299600  0.50000000  0.66748100  1
  O  O59  1  0.24656200  0.72943400  0.64907200  1
  O  O60  1  0.33198000  0.50000000  0.41417000  1
  O  O61  1  0.75125950  0.25458150  0.15759700  1
  O  O62  1  0.67741800  0.50000000  0.89882000  1
  O  O63  1  0.75125950  0.74541850  0.15759700  1
  O  O64  1  0.83380400  0.50000000  0.39836100  1
  O  O65  1  0.92869800  0.25618800  0.89845700  1
  O  O66  1  0.98738000  0.50000000  0.14791000  1
  O  O67  1  0.92869800  0.74381200  0.89845700  1
