# generated using pymatgen
data_LiSiBiO4
_symmetry_space_group_name_H-M   'P 1'
_cell_length_a   14.44277967
_cell_length_b   14.44277967
_cell_length_c   9.86260106
_cell_angle_alpha   90.00000000
_cell_angle_beta   90.00000000
_cell_angle_gamma   120.00000000
_symmetry_Int_Tables_number   1
_chemical_formula_structural   LiSiBiO4
_chemical_formula_sum   'Li18 Si18 Bi18 O72'
_cell_volume   1781.65524278
_cell_formula_units_Z   18
loop_
 _symmetry_equiv_pos_site_id
 _symmetry_equiv_pos_as_xyz
  1  'x, y, z'
loop_
 _atom_site_type_symbol
 _atom_site_label
 _atom_site_symmetry_multiplicity
 _atom_site_fract_x
 _atom_site_fract_y
 _atom_site_fract_z
 _atom_site_occupancy
  Li  Li0  1  0.76994467  0.80272733  0.75726833  1
  Li  Li1  1  0.98511633  0.79668967  0.24730467  1
  Li  Li2  1  0.81157333  0.01488367  0.24730467  1
  Li  Li3  1  0.19727267  0.96721733  0.75726833  1
  Li  Li4  1  0.03278267  0.23005533  0.75726833  1
  Li  Li5  1  0.20331033  0.18842667  0.24730467  1
  Li  Li6  1  0.43661133  0.13606067  0.09060167  1
  Li  Li7  1  0.65178300  0.13002300  0.58063800  1
  Li  Li8  1  0.47824000  0.34821700  0.58063800  1
  Li  Li9  1  0.86393933  0.30055067  0.09060167  1
  Li  Li10  1  0.69944933  0.56338867  0.09060167  1
  Li  Li11  1  0.86997700  0.52176000  0.58063800  1
  Li  Li12  1  0.10327800  0.46939400  0.42393500  1
  Li  Li13  1  0.31844967  0.46335633  0.91397133  1
  Li  Li14  1  0.14490667  0.68155033  0.91397133  1
  Li  Li15  1  0.53060600  0.63388400  0.42393500  1
  Li  Li16  1  0.36611600  0.89672200  0.42393500  1
  Li  Li17  1  0.53664367  0.85509333  0.91397133  1
  Si  Si18  1  0.67267767  0.53682633  0.41759933  1
  Si  Si19  1  0.96758133  0.77032767  0.58374467  1
  Si  Si20  1  0.80274633  0.03241867  0.58374467  1
  Si  Si21  1  0.86414867  0.32732233  0.41759933  1
  Si  Si22  1  0.22967233  0.19725367  0.58374467  1
  Si  Si23  1  0.46317367  0.13585133  0.41759933  1
  Si  Si24  1  0.33934433  0.87015967  0.75093267  1
  Si  Si25  1  0.63424800  0.10366100  0.91707800  1
  Si  Si26  1  0.46941300  0.36575200  0.91707800  1
  Si  Si27  1  0.53081533  0.66065567  0.75093267  1
  Si  Si28  1  0.89633900  0.53058700  0.91707800  1
  Si  Si29  1  0.12984033  0.46918467  0.75093267  1
  Si  Si30  1  0.00601100  0.20349300  0.08426600  1
  Si  Si31  1  0.30091467  0.43699433  0.25041133  1
  Si  Si32  1  0.13607967  0.69908533  0.25041133  1
  Si  Si33  1  0.19748200  0.99398900  0.08426600  1
  Si  Si34  1  0.56300567  0.86392033  0.25041133  1
  Si  Si35  1  0.79650700  0.80251800  0.08426600  1
  Bi  Bi36  1  0.54150433  0.85156967  0.56866967  1
  Bi  Bi37  1  0.78936900  0.82261100  0.42714000  1
  Bi  Bi38  1  0.14843033  0.68993467  0.56866967  1
  Bi  Bi39  1  0.17738900  0.96675800  0.42714000  1
  Bi  Bi40  1  0.03324200  0.21063100  0.42714000  1
  Bi  Bi41  1  0.31006533  0.45849567  0.56866967  1
  Bi  Bi42  1  0.20817100  0.18490300  0.90200300  1
  Bi  Bi43  1  0.45603567  0.15594433  0.76047333  1
  Bi  Bi44  1  0.81509700  0.02326800  0.90200300  1
  Bi  Bi45  1  0.84405567  0.30009133  0.76047333  1
  Bi  Bi46  1  0.69990867  0.54396433  0.76047333  1
  Bi  Bi47  1  0.97673200  0.79182900  0.90200300  1
  Bi  Bi48  1  0.87483767  0.51823633  0.23533633  1
  Bi  Bi49  1  0.12270233  0.48927767  0.09380667  1
  Bi  Bi50  1  0.48176367  0.35660133  0.23533633  1
  Bi  Bi51  1  0.51072233  0.63342467  0.09380667  1
  Bi  Bi52  1  0.36657533  0.87729767  0.09380667  1
  Bi  Bi53  1  0.64339867  0.12516233  0.23533633  1
  O  O54  1  0.38178867  0.84882433  0.60536433  1
  O  O55  1  0.56365033  0.78639867  0.76717167  1
  O  O56  1  0.67510433  0.65214667  0.41030967  1
  O  O57  1  0.68240767  0.01641433  0.55640033  1
  O  O58  1  0.80275633  0.87641667  0.21404867  1
  O  O59  1  0.78425700  0.91845700  0.64371000  1
  O  O60  1  0.98358567  0.66599333  0.55640033  1
  O  O61  1  0.94104533  0.81061667  0.43745767  1
  O  O62  1  0.87161933  0.74308767  0.69714367  1
  O  O63  1  0.87146833  0.12838067  0.69714367  1
  O  O64  1  0.86957133  0.05895467  0.43745767  1
  O  O65  1  0.21360133  0.77725167  0.76717167  1
  O  O66  1  0.46703567  0.61821133  0.60536433  1
  O  O67  1  0.08154300  0.86580000  0.64371000  1
  O  O68  1  0.12358333  0.92633967  0.21404867  1
  O  O69  1  0.07366033  0.19724367  0.21404867  1
  O  O70  1  0.13420000  0.21574300  0.64371000  1
  O  O71  1  0.97704233  0.32489567  0.41030967  1
  O  O72  1  0.18938333  0.13042867  0.43745767  1
  O  O73  1  0.25691233  0.12853167  0.69714367  1
  O  O74  1  0.34785333  0.02295767  0.41030967  1
  O  O75  1  0.33400667  0.31759233  0.55640033  1
  O  O76  1  0.15117567  0.53296433  0.60536433  1
  O  O77  1  0.22274833  0.43634967  0.76717167  1
  O  O78  1  0.04845533  0.18215767  0.93869767  1
  O  O79  1  0.23031700  0.11973200  0.10050500  1
  O  O80  1  0.34177100  0.98548000  0.74364300  1
  O  O81  1  0.34907433  0.34974767  0.88973367  1
  O  O82  1  0.46942300  0.20975000  0.54738200  1
  O  O83  1  0.45092367  0.25179033  0.97704333  1
  O  O84  1  0.65025233  0.99932667  0.88973367  1
  O  O85  1  0.60771200  0.14395000  0.77079100  1
  O  O86  1  0.53828600  0.07642100  0.03047700  1
  O  O87  1  0.53813500  0.46171400  0.03047700  1
  O  O88  1  0.53623800  0.39228800  0.77079100  1
  O  O89  1  0.88026800  0.11058500  0.10050500  1
  O  O90  1  0.13370233  0.95154467  0.93869767  1
  O  O91  1  0.74820967  0.19913333  0.97704333  1
  O  O92  1  0.79025000  0.25967300  0.54738200  1
  O  O93  1  0.74032700  0.53057700  0.54738200  1
  O  O94  1  0.80086667  0.54907633  0.97704333  1
  O  O95  1  0.64370900  0.65822900  0.74364300  1
  O  O96  1  0.85605000  0.46376200  0.77079100  1
  O  O97  1  0.92357900  0.46186500  0.03047700  1
  O  O98  1  0.01452000  0.35629100  0.74364300  1
  O  O99  1  0.00067333  0.65092567  0.88973367  1
  O  O100  1  0.81784233  0.86629767  0.93869767  1
  O  O101  1  0.88941500  0.76968300  0.10050500  1
  O  O102  1  0.71512200  0.51549100  0.27203100  1
  O  O103  1  0.89698367  0.45306533  0.43383833  1
  O  O104  1  0.00843767  0.31881333  0.07697633  1
  O  O105  1  0.01574100  0.68308100  0.22306700  1
  O  O106  1  0.13608967  0.54308333  0.88071533  1
  O  O107  1  0.11759033  0.58512367  0.31037667  1
  O  O108  1  0.31691900  0.33266000  0.22306700  1
  O  O109  1  0.27437867  0.47728333  0.10412433  1
  O  O110  1  0.20495267  0.40975433  0.36381033  1
  O  O111  1  0.20480167  0.79504733  0.36381033  1
  O  O112  1  0.20290467  0.72562133  0.10412433  1
  O  O113  1  0.54693467  0.44391833  0.43383833  1
  O  O114  1  0.80036900  0.28487800  0.27203100  1
  O  O115  1  0.41487633  0.53246667  0.31037667  1
  O  O116  1  0.45691667  0.59300633  0.88071533  1
  O  O117  1  0.40699367  0.86391033  0.88071533  1
  O  O118  1  0.46753333  0.88240967  0.31037667  1
  O  O119  1  0.31037567  0.99156233  0.07697633  1
  O  O120  1  0.52271667  0.79709533  0.10412433  1
  O  O121  1  0.59024567  0.79519833  0.36381033  1
  O  O122  1  0.68118667  0.68962433  0.07697633  1
  O  O123  1  0.66734000  0.98425900  0.22306700  1
  O  O124  1  0.48450900  0.19963100  0.27203100  1
  O  O125  1  0.55608167  0.10301633  0.43383833  1
