# generated using pymatgen
data_Bi7(O2F3)3
_symmetry_space_group_name_H-M   'P 1'
_cell_length_a   5.76017200
_cell_length_b   40.14849000
_cell_length_c   11.78279800
_cell_angle_alpha   90.00000000
_cell_angle_beta   90.00000000
_cell_angle_gamma   90.00000000
_symmetry_Int_Tables_number   1
_chemical_formula_structural   Bi7(O2F3)3
_chemical_formula_sum   'Bi56 O48 F72'
_cell_volume   2724.91588119
_cell_formula_units_Z   8
loop_
 _symmetry_equiv_pos_site_id
 _symmetry_equiv_pos_as_xyz
  1  'x, y, z'
loop_
 _atom_site_type_symbol
 _atom_site_label
 _atom_site_symmetry_multiplicity
 _atom_site_fract_x
 _atom_site_fract_y
 _atom_site_fract_z
 _atom_site_occupancy
  Bi  Bi0  1  0.23956900  0.53521500  0.10734500  1
  Bi  Bi1  1  0.23851000  0.96461700  0.10679800  1
  Bi  Bi2  1  0.20866050  0.82234250  0.10266600  1
  Bi  Bi3  1  0.23980850  0.67685550  0.10797500  1
  Bi  Bi4  1  0.80404650  0.75042950  0.11366100  1
  Bi  Bi5  1  0.78520800  0.60663900  0.10178800  1
  Bi  Bi6  1  0.77812200  0.89353000  0.10342600  1
  Bi  Bi7  1  0.28520800  0.89336100  0.89821200  1
  Bi  Bi8  1  0.27812200  0.60647000  0.89657400  1
  Bi  Bi9  1  0.30404650  0.74957050  0.88633900  1
  Bi  Bi10  1  0.70866050  0.67765750  0.89733400  1
  Bi  Bi11  1  0.73980850  0.82314450  0.89202500  1
  Bi  Bi12  1  0.73956900  0.96478500  0.89265500  1
  Bi  Bi13  1  0.73851000  0.53538300  0.89320200  1
  Bi  Bi14  1  0.23851000  0.53538300  0.60679800  1
  Bi  Bi15  1  0.23956900  0.96478500  0.60734500  1
  Bi  Bi16  1  0.23980850  0.82314450  0.60797500  1
  Bi  Bi17  1  0.20866050  0.67765750  0.60266600  1
  Bi  Bi18  1  0.80404650  0.74957050  0.61366100  1
  Bi  Bi19  1  0.78520800  0.89336100  0.60178800  1
  Bi  Bi20  1  0.77812200  0.60647000  0.60342600  1
  Bi  Bi21  1  0.27812200  0.89353000  0.39657400  1
  Bi  Bi22  1  0.28520800  0.60663900  0.39821200  1
  Bi  Bi23  1  0.30404650  0.75042950  0.38633900  1
  Bi  Bi24  1  0.73980850  0.67685550  0.39202500  1
  Bi  Bi25  1  0.70866050  0.82234250  0.39733400  1
  Bi  Bi26  1  0.73956900  0.53521500  0.39265500  1
  Bi  Bi27  1  0.73851000  0.96461700  0.39320200  1
  Bi  Bi28  1  0.73956900  0.03521500  0.10734500  1
  Bi  Bi29  1  0.73851000  0.46461700  0.10679800  1
  Bi  Bi30  1  0.70866050  0.32234250  0.10266600  1
  Bi  Bi31  1  0.73980850  0.17685550  0.10797500  1
  Bi  Bi32  1  0.30404650  0.25042950  0.11366100  1
  Bi  Bi33  1  0.28520800  0.10663900  0.10178800  1
  Bi  Bi34  1  0.27812200  0.39353000  0.10342600  1
  Bi  Bi35  1  0.78520800  0.39336100  0.89821200  1
  Bi  Bi36  1  0.77812200  0.10647000  0.89657400  1
  Bi  Bi37  1  0.80404650  0.24957050  0.88633900  1
  Bi  Bi38  1  0.20866050  0.17765750  0.89733400  1
  Bi  Bi39  1  0.23980850  0.32314450  0.89202500  1
  Bi  Bi40  1  0.23956900  0.46478500  0.89265500  1
  Bi  Bi41  1  0.23851000  0.03538300  0.89320200  1
  Bi  Bi42  1  0.73851000  0.03538300  0.60679800  1
  Bi  Bi43  1  0.73956900  0.46478500  0.60734500  1
  Bi  Bi44  1  0.73980850  0.32314450  0.60797500  1
  Bi  Bi45  1  0.70866050  0.17765750  0.60266600  1
  Bi  Bi46  1  0.30404650  0.24957050  0.61366100  1
  Bi  Bi47  1  0.28520800  0.39336100  0.60178800  1
  Bi  Bi48  1  0.27812200  0.10647000  0.60342600  1
  Bi  Bi49  1  0.77812200  0.39353000  0.39657400  1
  Bi  Bi50  1  0.78520800  0.10663900  0.39821200  1
  Bi  Bi51  1  0.80404650  0.25042950  0.38633900  1
  Bi  Bi52  1  0.23980850  0.17685550  0.39202500  1
  Bi  Bi53  1  0.20866050  0.32234250  0.39733400  1
  Bi  Bi54  1  0.23956900  0.03521500  0.39265500  1
  Bi  Bi55  1  0.23851000  0.46461700  0.39320200  1
  O  O56  1  0.51629250  0.71594450  0.01100800  1
  O  O57  1  0.51967900  0.57252000  0.00433000  1
  O  O58  1  0.52009800  0.92797100  0.00585500  1
  O  O59  1  0.49499700  0.64366300  0.01117700  1
  O  O60  1  0.49787750  0.85466350  0.00598300  1
  O  O61  1  0.49168600  0.00000000  0.00000000  1
  O  O62  1  0.99106100  0.00000000  0.00000000  1
  O  O63  1  0.99787750  0.64533650  0.99401700  1
  O  O64  1  0.99499700  0.85633700  0.98882300  1
  O  O65  1  0.01967900  0.92748000  0.99567000  1
  O  O66  1  0.02009800  0.57202900  0.99414500  1
  O  O67  1  0.01629250  0.78405550  0.98899200  1
  O  O68  1  0.51629250  0.78405550  0.51100800  1
  O  O69  1  0.52009800  0.57202900  0.50585500  1
  O  O70  1  0.51967900  0.92748000  0.50433000  1
  O  O71  1  0.49787750  0.64533650  0.50598300  1
  O  O72  1  0.49499700  0.85633700  0.51117700  1
  O  O73  1  0.49106100  0.00000000  0.50000000  1
  O  O74  1  0.99168600  0.00000000  0.50000000  1
  O  O75  1  0.99499700  0.64366300  0.48882300  1
  O  O76  1  0.99787750  0.85466350  0.49401700  1
  O  O77  1  0.01967900  0.57252000  0.49567000  1
  O  O78  1  0.02009800  0.92797100  0.49414500  1
  O  O79  1  0.01629250  0.71594450  0.48899200  1
  O  O80  1  0.01629250  0.21594450  0.01100800  1
  O  O81  1  0.01967900  0.07252000  0.00433000  1
  O  O82  1  0.02009800  0.42797100  0.00585500  1
  O  O83  1  0.99499700  0.14366300  0.01117700  1
  O  O84  1  0.99787750  0.35466350  0.00598300  1
  O  O85  1  0.99168600  0.50000000  0.00000000  1
  O  O86  1  0.49106100  0.50000000  0.00000000  1
  O  O87  1  0.49787750  0.14533650  0.99401700  1
  O  O88  1  0.49499700  0.35633700  0.98882300  1
  O  O89  1  0.51967900  0.42748000  0.99567000  1
  O  O90  1  0.52009800  0.07202900  0.99414500  1
  O  O91  1  0.51629250  0.28405550  0.98899200  1
  O  O92  1  0.01629250  0.28405550  0.51100800  1
  O  O93  1  0.02009800  0.07202900  0.50585500  1
  O  O94  1  0.01967900  0.42748000  0.50433000  1
  O  O95  1  0.99787750  0.14533650  0.50598300  1
  O  O96  1  0.99499700  0.35633700  0.51117700  1
  O  O97  1  0.99106100  0.50000000  0.50000000  1
  O  O98  1  0.49168600  0.50000000  0.50000000  1
  O  O99  1  0.49499700  0.14366300  0.48882300  1
  O  O100  1  0.49787750  0.35466350  0.49401700  1
  O  O101  1  0.51967900  0.07252000  0.49567000  1
  O  O102  1  0.52009800  0.42797100  0.49414500  1
  O  O103  1  0.51629250  0.21594450  0.48899200  1
  F  F104  1  0.56470550  0.50010150  0.24955400  1
  F  F105  1  0.06470550  0.50010150  0.25044600  1
  F  F106  1  0.92906550  0.56430750  0.22681600  1
  F  F107  1  0.92422100  0.93565500  0.22770600  1
  F  F108  1  0.13804100  0.63016200  0.21305400  1
  F  F109  1  0.11656400  0.87045400  0.20859300  1
  F  F110  1  0.86671500  0.69334000  0.18957100  1
  F  F111  1  0.84798850  0.80687350  0.19284200  1
  F  F112  1  0.17493400  0.74949200  0.18876800  1
  F  F113  1  0.51758500  0.78510900  0.01723000  1
  F  F114  1  0.01758500  0.71489100  0.98277000  1
  F  F115  1  0.67493400  0.75050800  0.81123200  1
  F  F116  1  0.34798850  0.69312650  0.80715800  1
  F  F117  1  0.36671500  0.80666000  0.81042900  1
  F  F118  1  0.61656400  0.62954600  0.79140700  1
  F  F119  1  0.63804100  0.86983800  0.78694600  1
  F  F120  1  0.42422100  0.56434500  0.77229400  1
  F  F121  1  0.42906550  0.93569250  0.77318400  1
  F  F122  1  0.06470550  0.99989850  0.75044600  1
  F  F123  1  0.56470550  0.99989850  0.74955400  1
  F  F124  1  0.92906550  0.93569250  0.72681600  1
  F  F125  1  0.92422100  0.56434500  0.72770600  1
  F  F126  1  0.11656400  0.62954600  0.70859300  1
  F  F127  1  0.13804100  0.86983800  0.71305400  1
  F  F128  1  0.86671500  0.80666000  0.68957100  1
  F  F129  1  0.84798850  0.69312650  0.69284200  1
  F  F130  1  0.17493400  0.75050800  0.68876800  1
  F  F131  1  0.51758500  0.71489100  0.51723000  1
  F  F132  1  0.01758500  0.78510900  0.48277000  1
  F  F133  1  0.67493400  0.74949200  0.31123200  1
  F  F134  1  0.34798850  0.80687350  0.30715800  1
  F  F135  1  0.36671500  0.69334000  0.31042900  1
  F  F136  1  0.63804100  0.63016200  0.28694600  1
  F  F137  1  0.61656400  0.87045400  0.29140700  1
  F  F138  1  0.42422100  0.93565500  0.27229400  1
  F  F139  1  0.42906550  0.56430750  0.27318400  1
  F  F140  1  0.06470550  0.00010150  0.24955400  1
  F  F141  1  0.56470550  0.00010150  0.25044600  1
  F  F142  1  0.42906550  0.06430750  0.22681600  1
  F  F143  1  0.42422100  0.43565500  0.22770600  1
  F  F144  1  0.63804100  0.13016200  0.21305400  1
  F  F145  1  0.61656400  0.37045400  0.20859300  1
  F  F146  1  0.36671500  0.19334000  0.18957100  1
  F  F147  1  0.34798850  0.30687350  0.19284200  1
  F  F148  1  0.67493400  0.24949200  0.18876800  1
  F  F149  1  0.01758500  0.28510900  0.01723000  1
  F  F150  1  0.51758500  0.21489100  0.98277000  1
  F  F151  1  0.17493400  0.25050800  0.81123200  1
  F  F152  1  0.84798850  0.19312650  0.80715800  1
  F  F153  1  0.86671500  0.30666000  0.81042900  1
  F  F154  1  0.11656400  0.12954600  0.79140700  1
  F  F155  1  0.13804100  0.36983800  0.78694600  1
  F  F156  1  0.92422100  0.06434500  0.77229400  1
  F  F157  1  0.92906550  0.43569250  0.77318400  1
  F  F158  1  0.56470550  0.49989850  0.75044600  1
  F  F159  1  0.06470550  0.49989850  0.74955400  1
  F  F160  1  0.42906550  0.43569250  0.72681600  1
  F  F161  1  0.42422100  0.06434500  0.72770600  1
  F  F162  1  0.61656400  0.12954600  0.70859300  1
  F  F163  1  0.63804100  0.36983800  0.71305400  1
  F  F164  1  0.36671500  0.30666000  0.68957100  1
  F  F165  1  0.34798850  0.19312650  0.69284200  1
  F  F166  1  0.67493400  0.25050800  0.68876800  1
  F  F167  1  0.01758500  0.21489100  0.51723000  1
  F  F168  1  0.51758500  0.28510900  0.48277000  1
  F  F169  1  0.17493400  0.24949200  0.31123200  1
  F  F170  1  0.84798850  0.30687350  0.30715800  1
  F  F171  1  0.86671500  0.19334000  0.31042900  1
  F  F172  1  0.13804100  0.13016200  0.28694600  1
  F  F173  1  0.11656400  0.37045400  0.29140700  1
  F  F174  1  0.92422100  0.43565500  0.27229400  1
  F  F175  1  0.92906550  0.06430750  0.27318400  1
