# generated using pymatgen
data_Li2VCoO4
_symmetry_space_group_name_H-M   'P 1'
_cell_length_a   5.94878321
_cell_length_b   5.96664847
_cell_length_c   8.36453647
_cell_angle_alpha   90.00000000
_cell_angle_beta   90.00000000
_cell_angle_gamma   90.00000000
_symmetry_Int_Tables_number   1
_chemical_formula_structural   Li2VCoO4
_chemical_formula_sum   'Li8 V4 Co4 O16'
_cell_volume   296.89335201
_cell_formula_units_Z   4
loop_
 _symmetry_equiv_pos_site_id
 _symmetry_equiv_pos_as_xyz
  1  'x, y, z'
loop_
 _atom_site_type_symbol
 _atom_site_label
 _atom_site_symmetry_multiplicity
 _atom_site_fract_x
 _atom_site_fract_y
 _atom_site_fract_z
 _atom_site_occupancy
  Li  Li0  1  0.25000000  0.75000000  0.75000000  1
  Li  Li1  1  0.25000000  0.25000000  0.25000000  1
  Li  Li2  1  0.50000000  0.00000000  0.00000000  1
  Li  Li3  1  0.00000000  0.00000000  0.50000000  1
  Li  Li4  1  0.75000000  0.25000000  0.25000000  1
  Li  Li5  1  0.75000000  0.75000000  0.75000000  1
  Li  Li6  1  0.00000000  0.50000000  0.50000000  1
  Li  Li7  1  0.50000000  0.50000000  0.00000000  1
  V  V8  1  0.75000000  0.25000000  0.75000000  1
  V  V9  1  0.25000000  0.25000000  0.75000000  1
  V  V10  1  0.25000000  0.75000000  0.25000000  1
  V  V11  1  0.75000000  0.75000000  0.25000000  1
  Co  Co12  1  0.00000000  0.50000000  0.00000000  1
  Co  Co13  1  0.00000000  0.00000000  0.00000000  1
  Co  Co14  1  0.50000000  0.00000000  0.50000000  1
  Co  Co15  1  0.50000000  0.50000000  0.50000000  1
  O  O16  1  0.00000000  0.01779850  0.74724650  1
  O  O17  1  0.00000000  0.48220150  0.74724650  1
  O  O18  1  0.50000000  0.01779850  0.75275350  1
  O  O19  1  0.50000000  0.48220150  0.75275350  1
  O  O20  1  0.25442450  0.75000000  0.47776150  1
  O  O21  1  0.24557550  0.25000000  0.97776150  1
  O  O22  1  0.25442450  0.25000000  0.52223850  1
  O  O23  1  0.24557550  0.75000000  0.02223850  1
  O  O24  1  0.50000000  0.51779850  0.24724650  1
  O  O25  1  0.50000000  0.98220150  0.24724650  1
  O  O26  1  0.00000000  0.51779850  0.25275350  1
  O  O27  1  0.00000000  0.98220150  0.25275350  1
  O  O28  1  0.75442450  0.25000000  0.97776150  1
  O  O29  1  0.74557550  0.75000000  0.47776150  1
  O  O30  1  0.75442450  0.75000000  0.02223850  1
  O  O31  1  0.74557550  0.25000000  0.52223850  1
