# generated using pymatgen
data_Li2TiV3O8
_symmetry_space_group_name_H-M   'P 1'
_cell_length_a   10.42564611
_cell_length_b   5.93375249
_cell_length_c   6.02797870
_cell_angle_alpha   90.00000000
_cell_angle_beta   124.57097666
_cell_angle_gamma   90.00000000
_symmetry_Int_Tables_number   1
_chemical_formula_structural   Li2TiV3O8
_chemical_formula_sum   'Li4 Ti2 V6 O16'
_cell_volume   307.06306950
_cell_formula_units_Z   2
loop_
 _symmetry_equiv_pos_site_id
 _symmetry_equiv_pos_as_xyz
  1  'x, y, z'
loop_
 _atom_site_type_symbol
 _atom_site_label
 _atom_site_symmetry_multiplicity
 _atom_site_fract_x
 _atom_site_fract_y
 _atom_site_fract_z
 _atom_site_occupancy
  Li  Li0  1  0.75000000  0.75000000  0.00000000  1
  Li  Li1  1  0.75000000  0.25000000  0.00000000  1
  Li  Li2  1  0.25000000  0.25000000  0.00000000  1
  Li  Li3  1  0.25000000  0.75000000  0.00000000  1
  Ti  Ti4  1  0.00000000  0.00000000  0.50000000  1
  Ti  Ti5  1  0.50000000  0.50000000  0.50000000  1
  V  V6  1  0.50000000  0.00000000  0.50000000  1
  V  V7  1  0.75000000  0.75000000  0.50000000  1
  V  V8  1  0.75000000  0.25000000  0.50000000  1
  V  V9  1  0.00000000  0.50000000  0.50000000  1
  V  V10  1  0.25000000  0.25000000  0.50000000  1
  V  V11  1  0.25000000  0.75000000  0.50000000  1
  O  O12  1  0.73204100  0.00000000  0.71446850  1
  O  O13  1  0.76795900  0.50000000  0.28553150  1
  O  O14  1  0.72931250  0.50000000  0.71345650  1
  O  O15  1  0.77068750  0.00000000  0.28654350  1
  O  O16  1  0.99373150  0.74461350  0.70330700  1
  O  O17  1  0.99373150  0.25538650  0.70330700  1
  O  O18  1  0.50626850  0.24461350  0.29669300  1
  O  O19  1  0.50626850  0.75538650  0.29669300  1
  O  O20  1  0.23204100  0.50000000  0.71446850  1
  O  O21  1  0.26795900  0.00000000  0.28553150  1
  O  O22  1  0.22931250  0.00000000  0.71345650  1
  O  O23  1  0.27068750  0.50000000  0.28654350  1
  O  O24  1  0.49373150  0.24461350  0.70330700  1
  O  O25  1  0.49373150  0.75538650  0.70330700  1
  O  O26  1  0.00626850  0.74461350  0.29669300  1
  O  O27  1  0.00626850  0.25538650  0.29669300  1
