# generated using pymatgen
data_Co3(OF2)2
_symmetry_space_group_name_H-M   'P 1'
_cell_length_a   4.53382500
_cell_length_b   4.61806500
_cell_length_c   9.38088600
_cell_angle_alpha   90.00000000
_cell_angle_beta   90.00000000
_cell_angle_gamma   90.00000000
_symmetry_Int_Tables_number   1
_chemical_formula_structural   Co3(OF2)2
_chemical_formula_sum   'Co6 O4 F8'
_cell_volume   196.41228701
_cell_formula_units_Z   2
loop_
 _symmetry_equiv_pos_site_id
 _symmetry_equiv_pos_as_xyz
  1  'x, y, z'
loop_
 _atom_site_type_symbol
 _atom_site_label
 _atom_site_symmetry_multiplicity
 _atom_site_fract_x
 _atom_site_fract_y
 _atom_site_fract_z
 _atom_site_occupancy
  Co  Co0  1  0.99523400  0.71636800  0.17329600  1
  Co  Co1  1  0.99523400  0.71636800  0.82670400  1
  Co  Co2  1  0.02805900  0.74539900  0.50000000  1
  Co  Co3  1  0.52805900  0.25460100  0.00000000  1
  Co  Co4  1  0.49523400  0.28363200  0.32670400  1
  Co  Co5  1  0.49523400  0.28363200  0.67329600  1
  O  O6  1  0.19629200  0.55654200  0.33060100  1
  O  O7  1  0.19629200  0.55654200  0.66939900  1
  O  O8  1  0.69629200  0.44345800  0.83060100  1
  O  O9  1  0.69629200  0.44345800  0.16939900  1
  F  F10  1  0.19556500  0.52856400  0.00000000  1
  F  F11  1  0.69556500  0.47143600  0.50000000  1
  F  F12  1  0.30761300  0.08429600  0.50000000  1
  F  F13  1  0.29282000  0.03276000  0.16217200  1
  F  F14  1  0.29282000  0.03276000  0.83782800  1
  F  F15  1  0.80761300  0.91570400  0.00000000  1
  F  F16  1  0.79282000  0.96724000  0.33782800  1
  F  F17  1  0.79282000  0.96724000  0.66217200  1
