# generated using pymatgen
data_Li3Cr(CO3)3
_symmetry_space_group_name_H-M   'P 1'
_cell_length_a   7.08767800
_cell_length_b   9.70987000
_cell_length_c   9.48975600
_cell_angle_alpha   90.00000000
_cell_angle_beta   90.00000000
_cell_angle_gamma   90.00000000
_symmetry_Int_Tables_number   1
_chemical_formula_structural   Li3Cr(CO3)3
_chemical_formula_sum   'Li12 Cr4 C12 O36'
_cell_volume   653.08910732
_cell_formula_units_Z   4
loop_
 _symmetry_equiv_pos_site_id
 _symmetry_equiv_pos_as_xyz
  1  'x, y, z'
loop_
 _atom_site_type_symbol
 _atom_site_label
 _atom_site_symmetry_multiplicity
 _atom_site_fract_x
 _atom_site_fract_y
 _atom_site_fract_z
 _atom_site_occupancy
  Li  Li0  1  0.05064800  0.00000000  0.00000000  1
  Li  Li1  1  0.37990600  0.98490300  0.25000000  1
  Li  Li2  1  0.51256350  0.68506350  0.25000000  1
  Li  Li3  1  0.05064800  0.00000000  0.50000000  1
  Li  Li4  1  0.51256350  0.31493650  0.75000000  1
  Li  Li5  1  0.37990600  0.01509700  0.75000000  1
  Li  Li6  1  0.55064800  0.50000000  0.00000000  1
  Li  Li7  1  0.87990600  0.48490300  0.25000000  1
  Li  Li8  1  0.01256350  0.18506350  0.25000000  1
  Li  Li9  1  0.55064800  0.50000000  0.50000000  1
  Li  Li10  1  0.01256350  0.81493650  0.75000000  1
  Li  Li11  1  0.87990600  0.51509700  0.75000000  1
  Cr  Cr12  1  0.54572150  0.26456550  0.25000000  1
  Cr  Cr13  1  0.54572150  0.73543450  0.75000000  1
  Cr  Cr14  1  0.04572150  0.76456550  0.25000000  1
  Cr  Cr15  1  0.04572150  0.23543450  0.75000000  1
  C  C16  1  0.34241800  0.21671100  0.98360700  1
  C  C17  1  0.73589750  0.96703850  0.25000000  1
  C  C18  1  0.34241800  0.21671100  0.51639300  1
  C  C19  1  0.34241800  0.78328900  0.48360700  1
  C  C20  1  0.73589750  0.03296150  0.75000000  1
  C  C21  1  0.34241800  0.78328900  0.01639300  1
  C  C22  1  0.84241800  0.71671100  0.98360700  1
  C  C23  1  0.23589750  0.46703850  0.25000000  1
  C  C24  1  0.84241800  0.71671100  0.51639300  1
  C  C25  1  0.84241800  0.28328900  0.48360700  1
  C  C26  1  0.23589750  0.53296150  0.75000000  1
  C  C27  1  0.84241800  0.28328900  0.01639300  1
  O  O28  1  0.42282500  0.32564800  0.94385000  1
  O  O29  1  0.36367850  0.16916850  0.11206200  1
  O  O30  1  0.23381150  0.85645250  0.10274800  1
  O  O31  1  0.68460500  0.09362200  0.25000000  1
  O  O32  1  0.92108750  0.94670250  0.25000000  1
  O  O33  1  0.61526400  0.87094500  0.25000000  1
  O  O34  1  0.23381150  0.85645250  0.39725200  1
  O  O35  1  0.36367850  0.16916850  0.38793800  1
  O  O36  1  0.42282500  0.32564800  0.55615000  1
  O  O37  1  0.42282500  0.67435200  0.44385000  1
  O  O38  1  0.36367850  0.83083150  0.61206200  1
  O  O39  1  0.23381150  0.14354750  0.60274800  1
  O  O40  1  0.61526400  0.12905500  0.75000000  1
  O  O41  1  0.68460500  0.90637800  0.75000000  1
  O  O42  1  0.92108750  0.05329750  0.75000000  1
  O  O43  1  0.23381150  0.14354750  0.89725200  1
  O  O44  1  0.36367850  0.83083150  0.88793800  1
  O  O45  1  0.42282500  0.67435200  0.05615000  1
  O  O46  1  0.92282500  0.82564800  0.94385000  1
  O  O47  1  0.86367850  0.66916850  0.11206200  1
  O  O48  1  0.73381150  0.35645250  0.10274800  1
  O  O49  1  0.18460500  0.59362200  0.25000000  1
  O  O50  1  0.42108750  0.44670250  0.25000000  1
  O  O51  1  0.11526400  0.37094500  0.25000000  1
  O  O52  1  0.73381150  0.35645250  0.39725200  1
  O  O53  1  0.86367850  0.66916850  0.38793800  1
  O  O54  1  0.92282500  0.82564800  0.55615000  1
  O  O55  1  0.92282500  0.17435200  0.44385000  1
  O  O56  1  0.86367850  0.33083150  0.61206200  1
  O  O57  1  0.73381150  0.64354750  0.60274800  1
  O  O58  1  0.11526400  0.62905500  0.75000000  1
  O  O59  1  0.18460500  0.40637800  0.75000000  1
  O  O60  1  0.42108750  0.55329750  0.75000000  1
  O  O61  1  0.73381150  0.64354750  0.89725200  1
  O  O62  1  0.86367850  0.33083150  0.88793800  1
  O  O63  1  0.92282500  0.17435200  0.05615000  1
