# generated using pymatgen
data_Li3Fe2F7
_symmetry_space_group_name_H-M   'P 1'
_cell_length_a   10.70401200
_cell_length_b   5.12944000
_cell_length_c   10.33745398
_cell_angle_alpha   90.00000000
_cell_angle_beta   100.97259869
_cell_angle_gamma   90.00000000
_symmetry_Int_Tables_number   1
_chemical_formula_structural   Li3Fe2F7
_chemical_formula_sum   'Li12 Fe8 F28'
_cell_volume   557.20759587
_cell_formula_units_Z   4
loop_
 _symmetry_equiv_pos_site_id
 _symmetry_equiv_pos_as_xyz
  1  'x, y, z'
loop_
 _atom_site_type_symbol
 _atom_site_label
 _atom_site_symmetry_multiplicity
 _atom_site_fract_x
 _atom_site_fract_y
 _atom_site_fract_z
 _atom_site_occupancy
  Li  Li0  1  0.55739100  0.24809900  0.13293900  1
  Li  Li1  1  0.55739100  0.75190100  0.63293900  1
  Li  Li2  1  0.75000000  0.25000000  0.50000000  1
  Li  Li3  1  0.75000000  0.75000000  0.00000000  1
  Li  Li4  1  0.94260900  0.74809900  0.36706100  1
  Li  Li5  1  0.94260900  0.25190100  0.86706100  1
  Li  Li6  1  0.05739100  0.74809900  0.13293900  1
  Li  Li7  1  0.05739100  0.25190100  0.63293900  1
  Li  Li8  1  0.25000000  0.75000000  0.50000000  1
  Li  Li9  1  0.25000000  0.25000000  0.00000000  1
  Li  Li10  1  0.44260900  0.24809900  0.36706100  1
  Li  Li11  1  0.44260900  0.75190100  0.86706100  1
  Fe  Fe12  1  0.66686400  0.75348200  0.34506300  1
  Fe  Fe13  1  0.66686400  0.24651800  0.84506300  1
  Fe  Fe14  1  0.83313600  0.25348200  0.15493700  1
  Fe  Fe15  1  0.83313600  0.74651800  0.65493700  1
  Fe  Fe16  1  0.16686400  0.25348200  0.34506300  1
  Fe  Fe17  1  0.16686400  0.74651800  0.84506300  1
  Fe  Fe18  1  0.33313600  0.75348200  0.15493700  1
  Fe  Fe19  1  0.33313600  0.24651800  0.65493700  1
  F  F20  1  0.65846000  0.07222000  0.03096800  1
  F  F21  1  0.70395800  0.53252200  0.17837100  1
  F  F22  1  0.59270000  0.42677500  0.39759700  1
  F  F23  1  0.65846000  0.92778000  0.53096800  1
  F  F24  1  0.70395800  0.46747800  0.67837100  1
  F  F25  1  0.59270000  0.57322500  0.89759700  1
  F  F26  1  0.90730000  0.92677500  0.10240300  1
  F  F27  1  0.79604200  0.03252200  0.32162900  1
  F  F28  1  0.84154000  0.57222000  0.46903200  1
  F  F29  1  0.90730000  0.07322500  0.60240300  1
  F  F30  1  0.00000000  0.46686700  0.25000000  1
  F  F31  1  0.79604200  0.96747800  0.82162900  1
  F  F32  1  0.84154000  0.42778000  0.96903200  1
  F  F33  1  0.00000000  0.53313300  0.75000000  1
  F  F34  1  0.15846000  0.57222000  0.03096800  1
  F  F35  1  0.20395800  0.03252200  0.17837100  1
  F  F36  1  0.09270000  0.92677500  0.39759700  1
  F  F37  1  0.15846000  0.42778000  0.53096800  1
  F  F38  1  0.20395800  0.96747800  0.67837100  1
  F  F39  1  0.09270000  0.07322500  0.89759700  1
  F  F40  1  0.40730000  0.42677500  0.10240300  1
  F  F41  1  0.29604200  0.53252200  0.32162900  1
  F  F42  1  0.34154000  0.07222000  0.46903200  1
  F  F43  1  0.40730000  0.57322500  0.60240300  1
  F  F44  1  0.50000000  0.96686700  0.25000000  1
  F  F45  1  0.29604200  0.46747800  0.82162900  1
  F  F46  1  0.34154000  0.92778000  0.96903200  1
  F  F47  1  0.50000000  0.03313300  0.75000000  1
