# generated using pymatgen
data_KLi2Mn2O4
_symmetry_space_group_name_H-M   'P 1'
_cell_length_a   3.26071569
_cell_length_b   12.74926000
_cell_length_c   5.47574100
_cell_angle_alpha   90.00000000
_cell_angle_beta   93.08256111
_cell_angle_gamma   90.00000000
_symmetry_Int_Tables_number   1
_chemical_formula_structural   KLi2Mn2O4
_chemical_formula_sum   'K2 Li4 Mn4 O8'
_cell_volume   227.30655885
_cell_formula_units_Z   2
loop_
 _symmetry_equiv_pos_site_id
 _symmetry_equiv_pos_as_xyz
  1  'x, y, z'
loop_
 _atom_site_type_symbol
 _atom_site_label
 _atom_site_symmetry_multiplicity
 _atom_site_fract_x
 _atom_site_fract_y
 _atom_site_fract_z
 _atom_site_occupancy
  K  K0  1  0.94958500  0.25000000  0.84279550  1
  K  K1  1  0.05041500  0.75000000  0.15720450  1
  Li  Li2  1  0.52505400  0.64250200  0.64864350  1
  Li  Li3  1  0.52505400  0.85749800  0.64864350  1
  Li  Li4  1  0.47494600  0.35749800  0.35135650  1
  Li  Li5  1  0.47494600  0.14250200  0.35135650  1
  Mn  Mn6  1  0.00000000  0.00000000  0.50000000  1
  Mn  Mn7  1  0.50000000  0.50000000  0.00000000  1
  Mn  Mn8  1  0.00000000  0.50000000  0.50000000  1
  Mn  Mn9  1  0.50000000  0.00000000  0.00000000  1
  O  O10  1  0.03169900  0.59760500  0.78922050  1
  O  O11  1  0.03169900  0.90239500  0.78922050  1
  O  O12  1  0.96830100  0.09760500  0.21077950  1
  O  O13  1  0.96830100  0.40239500  0.21077950  1
  O  O14  1  0.57140400  0.58932200  0.33640450  1
  O  O15  1  0.57140400  0.91067800  0.33640450  1
  O  O16  1  0.42859600  0.41067800  0.66359550  1
  O  O17  1  0.42859600  0.08932200  0.66359550  1
