# generated using pymatgen
data_Na2Ti2O5
_symmetry_space_group_name_H-M   'P 1'
_cell_length_a   5.42743500
_cell_length_b   8.86482700
_cell_length_c   11.95519500
_cell_angle_alpha   90.00000000
_cell_angle_beta   90.00000000
_cell_angle_gamma   90.00000000
_symmetry_Int_Tables_number   1
_chemical_formula_structural   Na2Ti2O5
_chemical_formula_sum   'Na8 Ti8 O20'
_cell_volume   575.20355278
_cell_formula_units_Z   4
loop_
 _symmetry_equiv_pos_site_id
 _symmetry_equiv_pos_as_xyz
  1  'x, y, z'
loop_
 _atom_site_type_symbol
 _atom_site_label
 _atom_site_symmetry_multiplicity
 _atom_site_fract_x
 _atom_site_fract_y
 _atom_site_fract_z
 _atom_site_occupancy
  Na  Na0  1  0.45842600  0.93400300  0.77256700  1
  Na  Na1  1  0.37615400  0.81046300  0.30462700  1
  Na  Na2  1  0.87615400  0.68953700  0.80462700  1
  Na  Na3  1  0.95842600  0.56599700  0.27256700  1
  Na  Na4  1  0.45842600  0.43400300  0.72743300  1
  Na  Na5  1  0.37615400  0.31046300  0.19537300  1
  Na  Na6  1  0.87615400  0.18953700  0.69537300  1
  Na  Na7  1  0.95842600  0.06599700  0.22743300  1
  Ti  Ti8  1  0.48656400  0.95174300  0.07051200  1
  Ti  Ti9  1  0.84947300  0.89348400  0.48206200  1
  Ti  Ti10  1  0.34947300  0.60651600  0.98206200  1
  Ti  Ti11  1  0.98656400  0.54825700  0.57051200  1
  Ti  Ti12  1  0.48656400  0.45174300  0.42948800  1
  Ti  Ti13  1  0.84947300  0.39348400  0.01793800  1
  Ti  Ti14  1  0.34947300  0.10651600  0.51793800  1
  Ti  Ti15  1  0.98656400  0.04825700  0.92948800  1
  O  O16  1  0.88877200  0.95511500  0.80805000  1
  O  O17  1  0.82601800  0.97732600  0.05638400  1
  O  O18  1  0.50985100  0.92875500  0.47703100  1
  O  O19  1  0.94219600  0.83675800  0.34714000  1
  O  O20  1  0.91337600  0.74977000  0.59172700  1
  O  O21  1  0.41337600  0.75023000  0.09172700  1
  O  O22  1  0.44219600  0.66324200  0.84714000  1
  O  O23  1  0.00985100  0.57124500  0.97703100  1
  O  O24  1  0.32601800  0.52267400  0.55638400  1
  O  O25  1  0.38877200  0.54488500  0.30805000  1
  O  O26  1  0.88877200  0.45511500  0.69195000  1
  O  O27  1  0.82601800  0.47732600  0.44361600  1
  O  O28  1  0.50985100  0.42875500  0.02296900  1
  O  O29  1  0.94219600  0.33675800  0.15286000  1
  O  O30  1  0.91337600  0.24977000  0.90827300  1
  O  O31  1  0.41337600  0.25023000  0.40827300  1
  O  O32  1  0.44219600  0.16324200  0.65286000  1
  O  O33  1  0.00985100  0.07124500  0.52296900  1
  O  O34  1  0.32601800  0.02267400  0.94361600  1
  O  O35  1  0.38877200  0.04488500  0.19195000  1
