# generated using pymatgen
data_Lu2B4O9
_symmetry_space_group_name_H-M   'P 1'
_cell_length_a   6.12642000
_cell_length_b   6.36865562
_cell_length_c   7.41135341
_cell_angle_alpha   102.74725222
_cell_angle_beta   97.30106995
_cell_angle_gamma   102.36141307
_symmetry_Int_Tables_number   1
_chemical_formula_structural   Lu2B4O9
_chemical_formula_sum   'Lu4 B8 O18'
_cell_volume   270.85264033
_cell_formula_units_Z   2
loop_
 _symmetry_equiv_pos_site_id
 _symmetry_equiv_pos_as_xyz
  1  'x, y, z'
loop_
 _atom_site_type_symbol
 _atom_site_label
 _atom_site_symmetry_multiplicity
 _atom_site_fract_x
 _atom_site_fract_y
 _atom_site_fract_z
 _atom_site_occupancy
  Lu  Lu0  1  0.11264900  0.32288300  0.63928400  1
  Lu  Lu1  1  0.44879000  0.91053600  0.71054700  1
  Lu  Lu2  1  0.55121000  0.08946400  0.28945300  1
  Lu  Lu3  1  0.88735100  0.67711700  0.36071600  1
  B  B4  1  0.00549800  0.85733100  0.80814800  1
  B  B5  1  0.26719300  0.66691300  0.01844100  1
  B  B6  1  0.37340300  0.64346200  0.35069500  1
  B  B7  1  0.33854300  0.31490100  0.07201800  1
  B  B8  1  0.66145700  0.68509900  0.92798200  1
  B  B9  1  0.62659700  0.35653800  0.64930500  1
  B  B10  1  0.73280700  0.33308700  0.98155900  1
  B  B11  1  0.99450200  0.14266900  0.19185200  1
  O  O12  1  0.07222100  0.95973400  0.67237400  1
  O  O13  1  0.13901200  0.71712600  0.85331500  1
  O  O14  1  0.22468900  0.42573200  0.95503400  1
  O  O15  1  0.21723800  0.59538900  0.48055600  1
  O  O16  1  0.23366300  0.73766900  0.21320700  1
  O  O17  1  0.18913700  0.12775100  0.12307100  1
  O  O18  1  0.41788900  0.17997600  0.55122700  1
  O  O19  1  0.49513200  0.20483500  0.97624100  1
  O  O20  1  0.53743200  0.53831900  0.74692800  1
  O  O21  1  0.46256800  0.46168100  0.25307200  1
  O  O22  1  0.50486800  0.79516500  0.02375900  1
  O  O23  1  0.58211100  0.82002400  0.44877300  1
  O  O24  1  0.81086300  0.87224900  0.87692900  1
  O  O25  1  0.76633700  0.26233100  0.78679300  1
  O  O26  1  0.78276200  0.40461100  0.51944400  1
  O  O27  1  0.77531100  0.57426800  0.04496600  1
  O  O28  1  0.86098800  0.28287400  0.14668500  1
  O  O29  1  0.92777900  0.04026600  0.32762600  1
