# generated using pymatgen
data_BaLaBr5
_symmetry_space_group_name_H-M   'P 1'
_cell_length_a   7.69273500
_cell_length_b   15.71730700
_cell_length_c   16.23097600
_cell_angle_alpha   90.00000000
_cell_angle_beta   90.00000000
_cell_angle_gamma   90.00000000
_symmetry_Int_Tables_number   1
_chemical_formula_structural   BaLaBr5
_chemical_formula_sum   'Ba8 La8 Br40'
_cell_volume   1962.47233776
_cell_formula_units_Z   8
loop_
 _symmetry_equiv_pos_site_id
 _symmetry_equiv_pos_as_xyz
  1  'x, y, z'
loop_
 _atom_site_type_symbol
 _atom_site_label
 _atom_site_symmetry_multiplicity
 _atom_site_fract_x
 _atom_site_fract_y
 _atom_site_fract_z
 _atom_site_occupancy
  Ba  Ba0  1  0.75000000  0.52140000  0.10512800  1
  Ba  Ba1  1  0.25000000  0.81099300  0.09284500  1
  Ba  Ba2  1  0.75000000  0.31099300  0.40715500  1
  Ba  Ba3  1  0.25000000  0.02140000  0.39487200  1
  Ba  Ba4  1  0.75000000  0.97860000  0.60512800  1
  Ba  Ba5  1  0.25000000  0.68900700  0.59284500  1
  Ba  Ba6  1  0.75000000  0.18900700  0.90715500  1
  Ba  Ba7  1  0.25000000  0.47860000  0.89487200  1
  La  La8  1  0.25000000  0.21050400  0.10248500  1
  La  La9  1  0.75000000  0.03714800  0.22120300  1
  La  La10  1  0.25000000  0.53714800  0.27879700  1
  La  La11  1  0.75000000  0.71050400  0.39751500  1
  La  La12  1  0.25000000  0.28949600  0.60248500  1
  La  La13  1  0.75000000  0.46285200  0.72120300  1
  La  La14  1  0.25000000  0.96285200  0.77879700  1
  La  La15  1  0.75000000  0.78949600  0.89751500  1
  Br  Br16  1  0.99035600  0.32640700  0.02777900  1
  Br  Br17  1  0.50964400  0.32640700  0.02777900  1
  Br  Br18  1  0.75000000  0.83871100  0.07566600  1
  Br  Br19  1  0.97901500  0.07797600  0.07636100  1
  Br  Br20  1  0.52098500  0.07797600  0.07636100  1
  Br  Br21  1  0.25000000  0.51891500  0.09349300  1
  Br  Br22  1  0.98715800  0.67269900  0.22264300  1
  Br  Br23  1  0.51284200  0.67269900  0.22264300  1
  Br  Br24  1  0.97589300  0.40951100  0.24824800  1
  Br  Br25  1  0.52410700  0.40951100  0.24824800  1
  Br  Br26  1  0.47589300  0.90951100  0.25175200  1
  Br  Br27  1  0.02410700  0.90951100  0.25175200  1
  Br  Br28  1  0.48715800  0.17269900  0.27735700  1
  Br  Br29  1  0.01284200  0.17269900  0.27735700  1
  Br  Br30  1  0.75000000  0.01891500  0.40650700  1
  Br  Br31  1  0.47901500  0.57797600  0.42363900  1
  Br  Br32  1  0.02098500  0.57797600  0.42363900  1
  Br  Br33  1  0.25000000  0.33871100  0.42433400  1
  Br  Br34  1  0.49035600  0.82640700  0.47222100  1
  Br  Br35  1  0.00964400  0.82640700  0.47222100  1
  Br  Br36  1  0.99035600  0.17359300  0.52777900  1
  Br  Br37  1  0.50964400  0.17359300  0.52777900  1
  Br  Br38  1  0.75000000  0.66128900  0.57566600  1
  Br  Br39  1  0.97901500  0.42202400  0.57636100  1
  Br  Br40  1  0.52098500  0.42202400  0.57636100  1
  Br  Br41  1  0.25000000  0.98108500  0.59349300  1
  Br  Br42  1  0.98715800  0.82730100  0.72264300  1
  Br  Br43  1  0.51284200  0.82730100  0.72264300  1
  Br  Br44  1  0.97589300  0.09048900  0.74824800  1
  Br  Br45  1  0.52410700  0.09048900  0.74824800  1
  Br  Br46  1  0.47589300  0.59048900  0.75175200  1
  Br  Br47  1  0.02410700  0.59048900  0.75175200  1
  Br  Br48  1  0.48715800  0.32730100  0.77735700  1
  Br  Br49  1  0.01284200  0.32730100  0.77735700  1
  Br  Br50  1  0.75000000  0.48108500  0.90650700  1
  Br  Br51  1  0.47901500  0.92202400  0.92363900  1
  Br  Br52  1  0.02098500  0.92202400  0.92363900  1
  Br  Br53  1  0.25000000  0.16128900  0.92433400  1
  Br  Br54  1  0.49035600  0.67359300  0.97222100  1
  Br  Br55  1  0.00964400  0.67359300  0.97222100  1
