# generated using pymatgen
data_BeH6(NF2)2
_symmetry_space_group_name_H-M   'P 1'
_cell_length_a   5.42899600
_cell_length_b   7.85415500
_cell_length_c   9.94740967
_cell_angle_alpha   90.00000000
_cell_angle_beta   90.54236315
_cell_angle_gamma   90.00000000
_symmetry_Int_Tables_number   1
_chemical_formula_structural   BeH6(NF2)2
_chemical_formula_sum   'Be4 H24 N8 F16'
_cell_volume   424.14029641
_cell_formula_units_Z   4
loop_
 _symmetry_equiv_pos_site_id
 _symmetry_equiv_pos_as_xyz
  1  'x, y, z'
loop_
 _atom_site_type_symbol
 _atom_site_label
 _atom_site_symmetry_multiplicity
 _atom_site_fract_x
 _atom_site_fract_y
 _atom_site_fract_z
 _atom_site_occupancy
  Be  Be0  1  0.77325500  0.71170000  0.07414600  1
  Be  Be1  1  0.77325500  0.78830000  0.57414600  1
  Be  Be2  1  0.22674500  0.21170000  0.42585400  1
  Be  Be3  1  0.22674500  0.28830000  0.92585400  1
  H  H4  1  0.94733000  0.07595400  0.24482500  1
  H  H5  1  0.80982700  0.34325400  0.16084900  1
  H  H6  1  0.79677200  0.19464000  0.03457400  1
  H  H7  1  0.94733000  0.42404600  0.74482500  1
  H  H8  1  0.80982700  0.15674600  0.66084900  1
  H  H9  1  0.79677200  0.30536000  0.53457400  1
  H  H10  1  0.67718200  0.13504800  0.31375500  1
  H  H11  1  0.67095400  0.98321600  0.18787300  1
  H  H12  1  0.67718200  0.36495200  0.81375500  1
  H  H13  1  0.53267900  0.26363000  0.11845300  1
  H  H14  1  0.67095400  0.51678400  0.68787300  1
  H  H15  1  0.46732100  0.76363000  0.38154700  1
  H  H16  1  0.53267900  0.23637000  0.61845300  1
  H  H17  1  0.32904600  0.48321600  0.31212700  1
  H  H18  1  0.46732100  0.73637000  0.88154700  1
  H  H19  1  0.32281800  0.63504800  0.18624500  1
  H  H20  1  0.32904600  0.01678400  0.81212700  1
  H  H21  1  0.32281800  0.86495200  0.68624500  1
  H  H22  1  0.20322800  0.69464000  0.46542600  1
  H  H23  1  0.19017300  0.84325400  0.33915100  1
  H  H24  1  0.05267000  0.57595400  0.25517500  1
  H  H25  1  0.20322800  0.80536000  0.96542600  1
  H  H26  1  0.19017300  0.65674600  0.83915100  1
  H  H27  1  0.05267000  0.92404600  0.75517500  1
  N  N28  1  0.72228400  0.23107200  0.12858300  1
  N  N29  1  0.72228400  0.26892800  0.62858300  1
  N  N30  1  0.75702600  0.09609900  0.22498000  1
  N  N31  1  0.75702600  0.40390100  0.72498000  1
  N  N32  1  0.24297400  0.59609900  0.27502000  1
  N  N33  1  0.24297400  0.90390100  0.77502000  1
  N  N34  1  0.27771600  0.73107200  0.37141700  1
  N  N35  1  0.27771600  0.76892800  0.87141700  1
  F  F36  1  0.01459900  0.81798200  0.08914600  1
  F  F37  1  0.01459900  0.68201800  0.58914600  1
  F  F38  1  0.78913500  0.55918200  0.17810000  1
  F  F39  1  0.72968900  0.84995700  0.42706400  1
  F  F40  1  0.78913500  0.94081800  0.67810000  1
  F  F41  1  0.54789800  0.82431300  0.11755500  1
  F  F42  1  0.72968900  0.65004300  0.92706400  1
  F  F43  1  0.54789800  0.67568700  0.61755500  1
  F  F44  1  0.45210200  0.32431300  0.38244500  1
  F  F45  1  0.27031100  0.34995700  0.07293600  1
  F  F46  1  0.45210200  0.17568700  0.88244500  1
  F  F47  1  0.21086500  0.05918200  0.32190000  1
  F  F48  1  0.27031100  0.15004300  0.57293600  1
  F  F49  1  0.21086500  0.44081800  0.82190000  1
  F  F50  1  0.98540100  0.31798200  0.41085400  1
  F  F51  1  0.98540100  0.18201800  0.91085400  1
