# generated using pymatgen
data_Li2MnCr3O8
_symmetry_space_group_name_H-M   'P 1'
_cell_length_a   5.91263432
_cell_length_b   5.91263432
_cell_length_c   14.67042436
_cell_angle_alpha   90.00000000
_cell_angle_beta   90.00000000
_cell_angle_gamma   120.00000000
_symmetry_Int_Tables_number   1
_chemical_formula_structural   Li2MnCr3O8
_chemical_formula_sum   'Li6 Mn3 Cr9 O24'
_cell_volume   444.15581126
_cell_formula_units_Z   3
loop_
 _symmetry_equiv_pos_site_id
 _symmetry_equiv_pos_as_xyz
  1  'x, y, z'
loop_
 _atom_site_type_symbol
 _atom_site_label
 _atom_site_symmetry_multiplicity
 _atom_site_fract_x
 _atom_site_fract_y
 _atom_site_fract_z
 _atom_site_occupancy
  Li  Li0  1  0.00000000  0.00000000  0.12334000  1
  Li  Li1  1  0.33333333  0.66666667  0.16620167  1
  Li  Li2  1  0.66666667  0.33333333  0.45667333  1
  Li  Li3  1  0.00000000  0.00000000  0.49953500  1
  Li  Li4  1  0.33333333  0.66666667  0.79000667  1
  Li  Li5  1  0.66666667  0.33333333  0.83286833  1
  Mn  Mn6  1  0.66666667  0.33333333  0.21317433  1
  Mn  Mn7  1  0.33333333  0.66666667  0.54650767  1
  Mn  Mn8  1  0.00000000  0.00000000  0.87984100  1
  Cr  Cr9  1  0.49732500  0.99465000  0.00130800  1
  Cr  Cr10  1  0.49732500  0.50267500  0.00130800  1
  Cr  Cr11  1  0.00535000  0.50267500  0.00130800  1
  Cr  Cr12  1  0.16399167  0.32798333  0.33464133  1
  Cr  Cr13  1  0.16399167  0.83600833  0.33464133  1
  Cr  Cr14  1  0.67201667  0.83600833  0.33464133  1
  Cr  Cr15  1  0.83065833  0.66131667  0.66797467  1
  Cr  Cr16  1  0.83065833  0.16934167  0.66797467  1
  Cr  Cr17  1  0.33868333  0.16934167  0.66797467  1
  O  O18  1  0.00000000  0.00000000  0.26058500  1
  O  O19  1  0.63981667  0.81990833  0.06862733  1
  O  O20  1  0.18009167  0.81990833  0.06862733  1
  O  O21  1  0.18009167  0.36018333  0.06862733  1
  O  O22  1  0.48360033  0.96720067  0.26220267  1
  O  O23  1  0.48360033  0.51639967  0.26220267  1
  O  O24  1  0.03279933  0.51639967  0.26220267  1
  O  O25  1  0.66666667  0.33333333  0.07361933  1
  O  O26  1  0.66666667  0.33333333  0.59391833  1
  O  O27  1  0.30648333  0.15324167  0.40196067  1
  O  O28  1  0.84675833  0.15324167  0.40196067  1
  O  O29  1  0.84675833  0.69351667  0.40196067  1
  O  O30  1  0.15026700  0.30053400  0.59553600  1
  O  O31  1  0.15026700  0.84973300  0.59553600  1
  O  O32  1  0.69946600  0.84973300  0.59553600  1
  O  O33  1  0.33333333  0.66666667  0.40695267  1
  O  O34  1  0.33333333  0.66666667  0.92725167  1
  O  O35  1  0.97315000  0.48657500  0.73529400  1
  O  O36  1  0.51342500  0.48657500  0.73529400  1
  O  O37  1  0.51342500  0.02685000  0.73529400  1
  O  O38  1  0.81693367  0.63386733  0.92886933  1
  O  O39  1  0.81693367  0.18306633  0.92886933  1
  O  O40  1  0.36613267  0.18306633  0.92886933  1
  O  O41  1  0.00000000  0.00000000  0.74028600  1
