# generated using pymatgen
data_Mg3(AsO4)2
_symmetry_space_group_name_H-M   'P 1'
_cell_length_a   6.38598100
_cell_length_b   11.56852200
_cell_length_c   9.16533605
_cell_angle_alpha   90.00000000
_cell_angle_beta   99.75182607
_cell_angle_gamma   90.00000000
_symmetry_Int_Tables_number   1
_chemical_formula_structural   Mg3(AsO4)2
_chemical_formula_sum   'Mg12 As8 O32'
_cell_volume   667.31800914
_cell_formula_units_Z   4
loop_
 _symmetry_equiv_pos_site_id
 _symmetry_equiv_pos_as_xyz
  1  'x, y, z'
loop_
 _atom_site_type_symbol
 _atom_site_label
 _atom_site_symmetry_multiplicity
 _atom_site_fract_x
 _atom_site_fract_y
 _atom_site_fract_z
 _atom_site_occupancy
  Mg  Mg0  1  0.61464900  0.38838500  0.08109400  1
  Mg  Mg1  1  0.11464900  0.11161500  0.08109400  1
  Mg  Mg2  1  0.66121900  0.08379300  0.26405300  1
  Mg  Mg3  1  0.63220900  0.70179900  0.36230000  1
  Mg  Mg4  1  0.16121900  0.41620700  0.26405300  1
  Mg  Mg5  1  0.13220900  0.79820100  0.36230000  1
  Mg  Mg6  1  0.86779100  0.20179900  0.63770000  1
  Mg  Mg7  1  0.83878100  0.58379300  0.73594700  1
  Mg  Mg8  1  0.36779100  0.29820100  0.63770000  1
  Mg  Mg9  1  0.33878100  0.91620700  0.73594700  1
  Mg  Mg10  1  0.88535100  0.88838500  0.91890600  1
  Mg  Mg11  1  0.38535100  0.61161500  0.91890600  1
  As  As12  1  0.89208200  0.63494700  0.08822100  1
  As  As13  1  0.39208200  0.86505300  0.08822100  1
  As  As14  1  0.68735700  0.41972200  0.39742600  1
  As  As15  1  0.18735700  0.08027800  0.39742600  1
  As  As16  1  0.81264300  0.91972200  0.60257400  1
  As  As17  1  0.31264300  0.58027800  0.60257400  1
  As  As18  1  0.60791800  0.13494700  0.91177900  1
  As  As19  1  0.10791800  0.36505300  0.91177900  1
  O  O20  1  0.60457700  0.21102600  0.07356800  1
  O  O21  1  0.65039800  0.56511500  0.07229400  1
  O  O22  1  0.10457700  0.28897400  0.07356800  1
  O  O23  1  0.61758500  0.94581300  0.12881800  1
  O  O24  1  0.15039800  0.93488500  0.07229400  1
  O  O25  1  0.88067700  0.72619300  0.23544900  1
  O  O26  1  0.11758500  0.55418700  0.12881800  1
  O  O27  1  0.96538200  0.08627200  0.26281700  1
  O  O28  1  0.38067700  0.77380700  0.23544900  1
  O  O29  1  0.86715900  0.38407800  0.28491800  1
  O  O30  1  0.46538200  0.41372800  0.26281700  1
  O  O31  1  0.36715900  0.11592200  0.28491800  1
  O  O32  1  0.73478400  0.55428400  0.47846000  1
  O  O33  1  0.83435600  0.81610800  0.47344500  1
  O  O34  1  0.23478400  0.94571600  0.47846000  1
  O  O35  1  0.33435600  0.68389200  0.47344500  1
  O  O36  1  0.66564400  0.31610800  0.52655500  1
  O  O37  1  0.76521600  0.05428400  0.52154000  1
  O  O38  1  0.16564400  0.18389200  0.52655500  1
  O  O39  1  0.26521600  0.44571600  0.52154000  1
  O  O40  1  0.63284100  0.88407800  0.71508200  1
  O  O41  1  0.53461800  0.58627200  0.73718300  1
  O  O42  1  0.13284100  0.61592200  0.71508200  1
  O  O43  1  0.61932300  0.22619300  0.76455100  1
  O  O44  1  0.03461800  0.91372800  0.73718300  1
  O  O45  1  0.88241500  0.44581300  0.87118200  1
  O  O46  1  0.11932300  0.27380700  0.76455100  1
  O  O47  1  0.84960200  0.06511500  0.92770600  1
  O  O48  1  0.38241500  0.05418700  0.87118200  1
  O  O49  1  0.89542300  0.71102600  0.92643200  1
  O  O50  1  0.34960200  0.43488500  0.92770600  1
  O  O51  1  0.39542300  0.78897400  0.92643200  1
