# generated using pymatgen
data_Li3MnFe2(BO3)3
_symmetry_space_group_name_H-M   'P 1'
_cell_length_a   8.25182500
_cell_length_b   3.14540600
_cell_length_c   14.31751398
_cell_angle_alpha   90.00000000
_cell_angle_beta   90.02122153
_cell_angle_gamma   90.00000000
_symmetry_Int_Tables_number   1
_chemical_formula_structural   Li3MnFe2(BO3)3
_chemical_formula_sum   'Li6 Mn2 Fe4 B6 O18'
_cell_volume   371.61591595
_cell_formula_units_Z   2
loop_
 _symmetry_equiv_pos_site_id
 _symmetry_equiv_pos_as_xyz
  1  'x, y, z'
loop_
 _atom_site_type_symbol
 _atom_site_label
 _atom_site_symmetry_multiplicity
 _atom_site_fract_x
 _atom_site_fract_y
 _atom_site_fract_z
 _atom_site_occupancy
  Li  Li0  1  0.29291800  0.50000000  0.00895800  1
  Li  Li1  1  0.34138200  0.50000000  0.64278000  1
  Li  Li2  1  0.36704800  0.50000000  0.34803700  1
  Li  Li3  1  0.79412800  0.50000000  0.50690400  1
  Li  Li4  1  0.83982400  0.50000000  0.14208400  1
  Li  Li5  1  0.86551200  0.50000000  0.85008200  1
  Mn  Mn6  1  0.13503000  0.00000000  0.49396900  1
  Mn  Mn7  1  0.67423800  0.00000000  0.68568400  1
  Fe  Fe8  1  0.17589500  0.00000000  0.18352500  1
  Fe  Fe9  1  0.18761000  0.00000000  0.82066100  1
  Fe  Fe10  1  0.63594700  0.00000000  0.99619100  1
  Fe  Fe11  1  0.68672100  0.00000000  0.32049400  1
  B  B12  1  0.99928900  0.50000000  0.33136000  1
  B  B13  1  0.99952300  0.00000000  0.00013000  1
  B  B14  1  0.00122500  0.50000000  0.66809300  1
  B  B15  1  0.49797100  0.50000000  0.83479200  1
  B  B16  1  0.50218000  0.00000000  0.49993200  1
  B  B17  1  0.50011100  0.50000000  0.16640900  1
  O  O18  1  0.01092800  0.50000000  0.57092100  1
  O  O19  1  0.01754500  0.50000000  0.23463500  1
  O  O20  1  0.13735400  0.50000000  0.38822500  1
  O  O21  1  0.14220100  0.50000000  0.72154000  1
  O  O22  1  0.15147500  0.00000000  0.04255900  1
  O  O23  1  0.34371700  0.50000000  0.87431800  1
  O  O24  1  0.34799400  0.50000000  0.20861200  1
  O  O25  1  0.36502600  0.00000000  0.55649900  1
  O  O26  1  0.48557200  0.00000000  0.40247300  1
  O  O27  1  0.51226500  0.50000000  0.06957000  1
  O  O28  1  0.51424900  0.50000000  0.73775100  1
  O  O29  1  0.63530000  0.50000000  0.89140700  1
  O  O30  1  0.63934300  0.50000000  0.22122700  1
  O  O31  1  0.65568200  0.00000000  0.53931700  1
  O  O32  1  0.84616200  0.50000000  0.37155200  1
  O  O33  1  0.85131700  0.50000000  0.71141500  1
  O  O34  1  0.85999700  0.00000000  0.05469200  1
  O  O35  1  0.98732200  0.00000000  0.90320000  1
