# generated using pymatgen
data_Sb2OF8
_symmetry_space_group_name_H-M   'P 1'
_cell_length_a   9.24858100
_cell_length_b   5.54724000
_cell_length_c   15.62123821
_cell_angle_alpha   90.00000000
_cell_angle_beta   104.28440818
_cell_angle_gamma   90.00000000
_symmetry_Int_Tables_number   1
_chemical_formula_structural   Sb2OF8
_chemical_formula_sum   'Sb8 O4 F32'
_cell_volume   776.65555121
_cell_formula_units_Z   4
loop_
 _symmetry_equiv_pos_site_id
 _symmetry_equiv_pos_as_xyz
  1  'x, y, z'
loop_
 _atom_site_type_symbol
 _atom_site_label
 _atom_site_symmetry_multiplicity
 _atom_site_fract_x
 _atom_site_fract_y
 _atom_site_fract_z
 _atom_site_occupancy
  Sb  Sb0  1  0.90062800  0.19524100  0.62517200  1
  Sb  Sb1  1  0.90062800  0.80475900  0.12517200  1
  Sb  Sb2  1  0.53464700  0.93129300  0.65661200  1
  Sb  Sb3  1  0.46535300  0.93129300  0.84338800  1
  Sb  Sb4  1  0.53464700  0.06870700  0.15661200  1
  Sb  Sb5  1  0.46535300  0.06870700  0.34338800  1
  Sb  Sb6  1  0.09937200  0.19524100  0.87482800  1
  Sb  Sb7  1  0.09937200  0.80475900  0.37482800  1
  O  O8  1  0.71390800  0.05387900  0.64581600  1
  O  O9  1  0.71390800  0.94612100  0.14581600  1
  O  O10  1  0.28609200  0.05387900  0.85418400  1
  O  O11  1  0.28609200  0.94612100  0.35418400  1
  F  F12  1  0.00000000  0.05229600  0.75000000  1
  F  F13  1  0.93808200  0.88812900  0.58281200  1
  F  F14  1  0.79842000  0.32105300  0.51433600  1
  F  F15  1  0.85909800  0.46706900  0.68846100  1
  F  F16  1  0.90649400  0.30353700  0.87689800  1
  F  F17  1  0.00000000  0.94770400  0.25000000  1
  F  F18  1  0.93808200  0.11187100  0.08281200  1
  F  F19  1  0.79842000  0.67894700  0.01433600  1
  F  F20  1  0.85909800  0.53293100  0.18846100  1
  F  F21  1  0.90649400  0.69646300  0.37689800  1
  F  F22  1  0.63267400  0.80683200  0.78408400  1
  F  F23  1  0.51997900  0.62283700  0.60647300  1
  F  F24  1  0.60759800  0.09412400  0.93043800  1
  F  F25  1  0.50000000  0.18592200  0.75000000  1
  F  F26  1  0.63267400  0.19316800  0.28408400  1
  F  F27  1  0.39240200  0.09412400  0.56956200  1
  F  F28  1  0.51997900  0.37716300  0.10647300  1
  F  F29  1  0.48002100  0.62283700  0.89352700  1
  F  F30  1  0.60759800  0.90587600  0.43043800  1
  F  F31  1  0.36732600  0.80683200  0.71591600  1
  F  F32  1  0.50000000  0.81407800  0.25000000  1
  F  F33  1  0.39240200  0.90587600  0.06956200  1
  F  F34  1  0.48002100  0.37716300  0.39352700  1
  F  F35  1  0.36732600  0.19316800  0.21591600  1
  F  F36  1  0.09350600  0.30353700  0.62310200  1
  F  F37  1  0.14090200  0.46706900  0.81153900  1
  F  F38  1  0.20158000  0.32105300  0.98566400  1
  F  F39  1  0.06191800  0.88812900  0.91718800  1
  F  F40  1  0.09350600  0.69646300  0.12310200  1
  F  F41  1  0.14090200  0.53293100  0.31153900  1
  F  F42  1  0.20158000  0.67894700  0.48566400  1
  F  F43  1  0.06191800  0.11187100  0.41718800  1
