# generated using pymatgen
data_BaH9IO5
_symmetry_space_group_name_H-M   'P 1'
_cell_length_a   6.37295600
_cell_length_b   8.17279099
_cell_length_c   8.17308738
_cell_angle_alpha   89.91337857
_cell_angle_beta   89.80758097
_cell_angle_gamma   73.14908634
_symmetry_Int_Tables_number   1
_chemical_formula_structural   BaH9IO5
_chemical_formula_sum   'Ba2 H18 I2 O10'
_cell_volume   407.41323969
_cell_formula_units_Z   2
loop_
 _symmetry_equiv_pos_site_id
 _symmetry_equiv_pos_as_xyz
  1  'x, y, z'
loop_
 _atom_site_type_symbol
 _atom_site_label
 _atom_site_symmetry_multiplicity
 _atom_site_fract_x
 _atom_site_fract_y
 _atom_site_fract_z
 _atom_site_occupancy
  Ba  Ba0  1  0.67239400  0.22282800  0.46696300  1
  Ba  Ba1  1  0.32760600  0.77717200  0.53303700  1
  H  H2  1  0.98849100  0.91125500  0.22445200  1
  H  H3  1  0.85966200  0.81612800  0.33489900  1
  H  H4  1  0.79624100  0.82228600  0.65700300  1
  H  H5  1  0.96948000  0.33291100  0.20765800  1
  H  H6  1  0.81843200  0.55956500  0.66638200  1
  H  H7  1  0.82232300  0.55036800  0.32797700  1
  H  H8  1  0.62870700  0.95854900  0.76721500  1
  H  H9  1  0.65468400  0.68292400  0.21025400  1
  H  H10  1  0.66043600  0.48390500  0.77502900  1
  H  H11  1  0.33956400  0.51609500  0.22497100  1
  H  H12  1  0.34531600  0.31707600  0.78974600  1
  H  H13  1  0.37129300  0.04145100  0.23278500  1
  H  H14  1  0.17767700  0.44963200  0.67202300  1
  H  H15  1  0.18156800  0.44043500  0.33361800  1
  H  H16  1  0.03052000  0.66708900  0.79234200  1
  H  H17  1  0.20375900  0.17771400  0.34299700  1
  H  H18  1  0.14033800  0.18387200  0.66510100  1
  H  H19  1  0.01150900  0.08874500  0.77554800  1
  I  I20  1  0.66740800  0.21416900  0.99934500  1
  I  I21  1  0.33259200  0.78583100  0.00065500  1
  O  O22  1  0.93919900  0.90585900  0.33798600  1
  O  O23  1  0.99067300  0.35363600  0.32387300  1
  O  O24  1  0.65879200  0.92395200  0.65243000  1
  O  O25  1  0.71803300  0.67154100  0.32144700  1
  O  O26  1  0.68462700  0.51203100  0.66108000  1
  O  O27  1  0.31537300  0.48796900  0.33892000  1
  O  O28  1  0.28196700  0.32845900  0.67855300  1
  O  O29  1  0.34120800  0.07604800  0.34757000  1
  O  O30  1  0.00932700  0.64636400  0.67612700  1
  O  O31  1  0.06080100  0.09414100  0.66201400  1
