# generated using pymatgen
data_Co3OF5
_symmetry_space_group_name_H-M   'P 1'
_cell_length_a   9.11567200
_cell_length_b   6.80495600
_cell_length_c   7.28140538
_cell_angle_alpha   90.00000000
_cell_angle_beta   109.90869101
_cell_angle_gamma   90.00000000
_symmetry_Int_Tables_number   1
_chemical_formula_structural   Co3OF5
_chemical_formula_sum   'Co12 O4 F20'
_cell_volume   424.68441279
_cell_formula_units_Z   4
loop_
 _symmetry_equiv_pos_site_id
 _symmetry_equiv_pos_as_xyz
  1  'x, y, z'
loop_
 _atom_site_type_symbol
 _atom_site_label
 _atom_site_symmetry_multiplicity
 _atom_site_fract_x
 _atom_site_fract_y
 _atom_site_fract_z
 _atom_site_occupancy
  Co  Co0  1  0.82259500  0.50000000  0.85069200  1
  Co  Co1  1  0.83579600  0.50000000  0.32111900  1
  Co  Co2  1  0.16420400  0.50000000  0.67888100  1
  Co  Co3  1  0.17740500  0.50000000  0.14930800  1
  Co  Co4  1  0.00000000  0.00000000  0.50000000  1
  Co  Co5  1  0.00000000  0.00000000  0.00000000  1
  Co  Co6  1  0.32259500  0.00000000  0.85069200  1
  Co  Co7  1  0.33579600  0.00000000  0.32111900  1
  Co  Co8  1  0.66420400  0.00000000  0.67888100  1
  Co  Co9  1  0.67740500  0.00000000  0.14930800  1
  Co  Co10  1  0.50000000  0.50000000  0.50000000  1
  Co  Co11  1  0.50000000  0.50000000  0.00000000  1
  O  O12  1  0.26970000  0.50000000  0.97067000  1
  O  O13  1  0.73030000  0.50000000  0.02933000  1
  O  O14  1  0.76970000  0.00000000  0.97067000  1
  O  O15  1  0.23030000  0.00000000  0.02933000  1
  F  F16  1  0.83092650  0.19597950  0.33415400  1
  F  F17  1  0.16907350  0.19597950  0.66584600  1
  F  F18  1  0.92826100  0.50000000  0.63551400  1
  F  F19  1  0.60145000  0.50000000  0.29804900  1
  F  F20  1  0.07173900  0.50000000  0.36448600  1
  F  F21  1  0.39855000  0.50000000  0.70195100  1
  F  F22  1  0.83092650  0.80402050  0.33415400  1
  F  F23  1  0.16907350  0.80402050  0.66584600  1
  F  F24  1  0.00000000  0.30963900  0.00000000  1
  F  F25  1  0.00000000  0.69036100  0.00000000  1
  F  F26  1  0.33092650  0.69597950  0.33415400  1
  F  F27  1  0.66907350  0.69597950  0.66584600  1
  F  F28  1  0.42826100  0.00000000  0.63551400  1
  F  F29  1  0.10145000  0.00000000  0.29804900  1
  F  F30  1  0.57173900  0.00000000  0.36448600  1
  F  F31  1  0.89855000  0.00000000  0.70195100  1
  F  F32  1  0.33092650  0.30402050  0.33415400  1
  F  F33  1  0.66907350  0.30402050  0.66584600  1
  F  F34  1  0.50000000  0.80963900  0.00000000  1
  F  F35  1  0.50000000  0.19036100  0.00000000  1
