# generated using pymatgen
data_La2WO6
_symmetry_space_group_name_H-M   'P 1'
_cell_length_a   17.06194800
_cell_length_b   11.70452600
_cell_length_c   5.68092462
_cell_angle_alpha   90.00000000
_cell_angle_beta   107.18131213
_cell_angle_gamma   90.00000000
_symmetry_Int_Tables_number   1
_chemical_formula_structural   La2WO6
_chemical_formula_sum   'La16 W8 O48'
_cell_volume   1083.86510708
_cell_formula_units_Z   8
loop_
 _symmetry_equiv_pos_site_id
 _symmetry_equiv_pos_as_xyz
  1  'x, y, z'
loop_
 _atom_site_type_symbol
 _atom_site_label
 _atom_site_symmetry_multiplicity
 _atom_site_fract_x
 _atom_site_fract_y
 _atom_site_fract_z
 _atom_site_occupancy
  La  La0  1  0.82527500  0.88483800  0.61161000  1
  La  La1  1  0.82527500  0.11516200  0.11161000  1
  La  La2  1  0.50000000  0.13096300  0.75000000  1
  La  La3  1  0.50000000  0.61073100  0.75000000  1
  La  La4  1  0.50000000  0.38926900  0.25000000  1
  La  La5  1  0.50000000  0.86903700  0.25000000  1
  La  La6  1  0.17472500  0.88483800  0.88839000  1
  La  La7  1  0.17472500  0.11516200  0.38839000  1
  La  La8  1  0.32527500  0.38483800  0.61161000  1
  La  La9  1  0.32527500  0.61516200  0.11161000  1
  La  La10  1  0.00000000  0.63096300  0.75000000  1
  La  La11  1  0.00000000  0.11073100  0.75000000  1
  La  La12  1  0.00000000  0.88926900  0.25000000  1
  La  La13  1  0.00000000  0.36903700  0.25000000  1
  La  La14  1  0.67472500  0.38483800  0.88839000  1
  La  La15  1  0.67472500  0.61516200  0.38839000  1
  W  W16  1  0.65207900  0.85174000  0.93598500  1
  W  W17  1  0.65207900  0.14826000  0.43598500  1
  W  W18  1  0.34792100  0.85174000  0.56401500  1
  W  W19  1  0.34792100  0.14826000  0.06401500  1
  W  W20  1  0.15207900  0.35174000  0.93598500  1
  W  W21  1  0.15207900  0.64826000  0.43598500  1
  W  W22  1  0.84792100  0.35174000  0.56401500  1
  W  W23  1  0.84792100  0.64826000  0.06401500  1
  O  O24  1  0.90715950  0.01371650  0.92228300  1
  O  O25  1  0.90715950  0.98628350  0.42228300  1
  O  O26  1  0.73032700  0.20294400  0.72261500  1
  O  O27  1  0.72813900  0.94598600  0.85414500  1
  O  O28  1  0.73032700  0.79705600  0.22261500  1
  O  O29  1  0.72813900  0.05401400  0.35414500  1
  O  O30  1  0.60551400  0.77842900  0.63308000  1
  O  O31  1  0.60551400  0.22157100  0.13308000  1
  O  O32  1  0.58033650  0.96239550  0.97674000  1
  O  O33  1  0.57855500  0.25851900  0.57978700  1
  O  O34  1  0.58033650  0.03760450  0.47674000  1
  O  O35  1  0.57855500  0.74148100  0.07978700  1
  O  O36  1  0.42144500  0.25851900  0.92021300  1
  O  O37  1  0.41966350  0.96239550  0.52326000  1
  O  O38  1  0.42144500  0.74148100  0.42021300  1
  O  O39  1  0.41966350  0.03760450  0.02326000  1
  O  O40  1  0.39448600  0.77842900  0.86692000  1
  O  O41  1  0.39448600  0.22157100  0.36692000  1
  O  O42  1  0.27186100  0.94598600  0.64585500  1
  O  O43  1  0.26967300  0.20294400  0.77738500  1
  O  O44  1  0.27186100  0.05401400  0.14585500  1
  O  O45  1  0.26967300  0.79705600  0.27738500  1
  O  O46  1  0.09284050  0.01371650  0.57771700  1
  O  O47  1  0.09284050  0.98628350  0.07771700  1
  O  O48  1  0.40715950  0.51371650  0.92228300  1
  O  O49  1  0.40715950  0.48628350  0.42228300  1
  O  O50  1  0.23032700  0.70294400  0.72261500  1
  O  O51  1  0.22813900  0.44598600  0.85414500  1
  O  O52  1  0.23032700  0.29705600  0.22261500  1
  O  O53  1  0.22813900  0.55401400  0.35414500  1
  O  O54  1  0.10551400  0.27842900  0.63308000  1
  O  O55  1  0.10551400  0.72157100  0.13308000  1
  O  O56  1  0.08033650  0.46239550  0.97674000  1
  O  O57  1  0.07855500  0.75851900  0.57978700  1
  O  O58  1  0.08033650  0.53760450  0.47674000  1
  O  O59  1  0.07855500  0.24148100  0.07978700  1
  O  O60  1  0.92144500  0.75851900  0.92021300  1
  O  O61  1  0.91966350  0.46239550  0.52326000  1
  O  O62  1  0.92144500  0.24148100  0.42021300  1
  O  O63  1  0.91966350  0.53760450  0.02326000  1
  O  O64  1  0.89448600  0.27842900  0.86692000  1
  O  O65  1  0.89448600  0.72157100  0.36692000  1
  O  O66  1  0.77186100  0.44598600  0.64585500  1
  O  O67  1  0.76967300  0.70294400  0.77738500  1
  O  O68  1  0.77186100  0.55401400  0.14585500  1
  O  O69  1  0.76967300  0.29705600  0.27738500  1
  O  O70  1  0.59284050  0.51371650  0.57771700  1
  O  O71  1  0.59284050  0.48628350  0.07771700  1
