# generated using pymatgen
data_Be2P2O7
_symmetry_space_group_name_H-M   'P 1'
_cell_length_a   6.65796800
_cell_length_b   7.41579800
_cell_length_c   8.89111981
_cell_angle_alpha   90.00000000
_cell_angle_beta   110.63598701
_cell_angle_gamma   90.00000000
_symmetry_Int_Tables_number   1
_chemical_formula_structural   Be2P2O7
_chemical_formula_sum   'Be8 P8 O28'
_cell_volume   410.82503545
_cell_formula_units_Z   4
loop_
 _symmetry_equiv_pos_site_id
 _symmetry_equiv_pos_as_xyz
  1  'x, y, z'
loop_
 _atom_site_type_symbol
 _atom_site_label
 _atom_site_symmetry_multiplicity
 _atom_site_fract_x
 _atom_site_fract_y
 _atom_site_fract_z
 _atom_site_occupancy
  Be  Be0  1  0.44048300  0.83196400  0.52740100  1
  Be  Be1  1  0.55951700  0.83196400  0.97259900  1
  Be  Be2  1  0.44048300  0.16803600  0.02740100  1
  Be  Be3  1  0.55951700  0.16803600  0.47259900  1
  Be  Be4  1  0.94048300  0.33196400  0.52740100  1
  Be  Be5  1  0.05951700  0.33196400  0.97259900  1
  Be  Be6  1  0.94048300  0.66803600  0.02740100  1
  Be  Be7  1  0.05951700  0.66803600  0.47259900  1
  P  P8  1  0.80335550  0.00907850  0.79579600  1
  P  P9  1  0.80335550  0.99092150  0.29579600  1
  P  P10  1  0.19664450  0.00907850  0.70420400  1
  P  P11  1  0.19664450  0.99092150  0.20420400  1
  P  P12  1  0.30335550  0.50907850  0.79579600  1
  P  P13  1  0.30335550  0.49092150  0.29579600  1
  P  P14  1  0.69664450  0.50907850  0.70420400  1
  P  P15  1  0.69664450  0.49092150  0.20420400  1
  O  O16  1  0.62398600  0.67866000  0.60487700  1
  O  O17  1  0.74417100  0.85759300  0.89104300  1
  O  O18  1  0.61383850  0.03536250  0.63508900  1
  O  O19  1  0.50000000  0.42774100  0.75000000  1
  O  O20  1  0.62398600  0.32134000  0.10487700  1
  O  O21  1  0.74417100  0.14240700  0.39104300  1
  O  O22  1  0.61383850  0.96463750  0.13508900  1
  O  O23  1  0.38616150  0.03536250  0.86491100  1
  O  O24  1  0.25582900  0.85759300  0.60895700  1
  O  O25  1  0.37601400  0.67866000  0.89512300  1
  O  O26  1  0.50000000  0.57225900  0.25000000  1
  O  O27  1  0.38616150  0.96463750  0.36491100  1
  O  O28  1  0.25582900  0.14240700  0.10895700  1
  O  O29  1  0.37601400  0.32134000  0.39512300  1
  O  O30  1  0.12398600  0.17866000  0.60487700  1
  O  O31  1  0.24417100  0.35759300  0.89104300  1
  O  O32  1  0.11383850  0.53536250  0.63508900  1
  O  O33  1  0.00000000  0.92774100  0.75000000  1
  O  O34  1  0.12398600  0.82134000  0.10487700  1
  O  O35  1  0.24417100  0.64240700  0.39104300  1
  O  O36  1  0.11383850  0.46463750  0.13508900  1
  O  O37  1  0.88616150  0.53536250  0.86491100  1
  O  O38  1  0.75582900  0.35759300  0.60895700  1
  O  O39  1  0.87601400  0.17866000  0.89512300  1
  O  O40  1  0.00000000  0.07225900  0.25000000  1
  O  O41  1  0.88616150  0.46463750  0.36491100  1
  O  O42  1  0.75582900  0.64240700  0.10895700  1
  O  O43  1  0.87601400  0.82134000  0.39512300  1
