# generated using pymatgen
data_Ho2WO6
_symmetry_space_group_name_H-M   'P 1'
_cell_length_a   5.26505900
_cell_length_b   9.12001200
_cell_length_c   9.97647700
_cell_angle_alpha   90.00000000
_cell_angle_beta   90.00000000
_cell_angle_gamma   90.00000000
_symmetry_Int_Tables_number   1
_chemical_formula_structural   Ho2WO6
_chemical_formula_sum   'Ho8 W4 O24'
_cell_volume   479.04449928
_cell_formula_units_Z   4
loop_
 _symmetry_equiv_pos_site_id
 _symmetry_equiv_pos_as_xyz
  1  'x, y, z'
loop_
 _atom_site_type_symbol
 _atom_site_label
 _atom_site_symmetry_multiplicity
 _atom_site_fract_x
 _atom_site_fract_y
 _atom_site_fract_z
 _atom_site_occupancy
  Ho  Ho0  1  0.01954000  0.39692000  0.03456600  1
  Ho  Ho1  1  0.03775500  0.28060800  0.62812000  1
  Ho  Ho2  1  0.46224500  0.71939200  0.12812000  1
  Ho  Ho3  1  0.48046000  0.60308000  0.53456600  1
  Ho  Ho4  1  0.51954000  0.10308000  0.96543400  1
  Ho  Ho5  1  0.53775500  0.21939200  0.37188000  1
  Ho  Ho6  1  0.96224500  0.78060800  0.87188000  1
  Ho  Ho7  1  0.98046000  0.89692000  0.46543400  1
  W  W8  1  0.03949200  0.00500800  0.15223400  1
  W  W9  1  0.46050800  0.99499200  0.65223400  1
  W  W10  1  0.53949200  0.49499200  0.84776600  1
  W  W11  1  0.96050800  0.50500800  0.34776600  1
  O  O12  1  0.08610300  0.65748100  0.46986400  1
  O  O13  1  0.17679600  0.54734400  0.20116400  1
  O  O14  1  0.17971500  0.86111700  0.68107300  1
  O  O15  1  0.19372400  0.85904100  0.26484000  1
  O  O16  1  0.23229000  0.38537200  0.43285300  1
  O  O17  1  0.25075100  0.09004100  0.50570300  1
  O  O18  1  0.24924900  0.90995900  0.00570300  1
  O  O19  1  0.26771000  0.61462800  0.93285300  1
  O  O20  1  0.30627600  0.14095900  0.76484000  1
  O  O21  1  0.32028500  0.13888300  0.18107300  1
  O  O22  1  0.32320400  0.45265600  0.70116400  1
  O  O23  1  0.41389700  0.34251900  0.96986400  1
  O  O24  1  0.58610300  0.84251900  0.53013600  1
  O  O25  1  0.67679600  0.95265600  0.79883600  1
  O  O26  1  0.67971500  0.63888300  0.31892700  1
  O  O27  1  0.69372400  0.64095900  0.73516000  1
  O  O28  1  0.73229000  0.11462800  0.56714700  1
  O  O29  1  0.75075100  0.40995900  0.49429700  1
  O  O30  1  0.74924900  0.59004100  0.99429700  1
  O  O31  1  0.76771000  0.88537200  0.06714700  1
  O  O32  1  0.80627600  0.35904100  0.23516000  1
  O  O33  1  0.82028500  0.36111700  0.81892700  1
  O  O34  1  0.82320400  0.04734400  0.29883600  1
  O  O35  1  0.91389700  0.15748100  0.03013600  1
