# generated using pymatgen
data_Bi19(O9F)3
_symmetry_space_group_name_H-M   'P 1'
_cell_length_a   13.08401210
_cell_length_b   13.08401210
_cell_length_c   10.46398400
_cell_angle_alpha   90.00000000
_cell_angle_beta   90.00000000
_cell_angle_gamma   120.00000000
_symmetry_Int_Tables_number   1
_chemical_formula_structural   Bi19(O9F)3
_chemical_formula_sum   'Bi38 O54 F6'
_cell_volume   1551.34922335
_cell_formula_units_Z   2
loop_
 _symmetry_equiv_pos_site_id
 _symmetry_equiv_pos_as_xyz
  1  'x, y, z'
loop_
 _atom_site_type_symbol
 _atom_site_label
 _atom_site_symmetry_multiplicity
 _atom_site_fract_x
 _atom_site_fract_y
 _atom_site_fract_z
 _atom_site_occupancy
  Bi  Bi0  1  0.93753700  0.70048600  0.74597100  1
  Bi  Bi1  1  0.93703800  0.71559100  0.08371500  1
  Bi  Bi2  1  0.93838200  0.69749900  0.41710000  1
  Bi  Bi3  1  0.61175500  0.47746800  0.74870100  1
  Bi  Bi4  1  0.60619200  0.47242800  0.08292600  1
  Bi  Bi5  1  0.61390400  0.48088200  0.41663900  1
  Bi  Bi6  1  0.29951400  0.23705100  0.74597100  1
  Bi  Bi7  1  0.28440900  0.22144700  0.08371500  1
  Bi  Bi8  1  0.30250100  0.24088300  0.41710000  1
  Bi  Bi9  1  0.00000000  0.00000000  0.84801400  1
  Bi  Bi10  1  0.00000000  0.00000000  0.34801400  1
  Bi  Bi11  1  0.86697800  0.38609600  0.41663900  1
  Bi  Bi12  1  0.86623600  0.39380800  0.08292600  1
  Bi  Bi13  1  0.86571300  0.38824500  0.74870100  1
  Bi  Bi14  1  0.52757200  0.13376400  0.08292600  1
  Bi  Bi15  1  0.51911800  0.13302200  0.41663900  1
  Bi  Bi16  1  0.52253200  0.13428700  0.74870100  1
  Bi  Bi17  1  0.24088300  0.93838200  0.91710000  1
  Bi  Bi18  1  0.22144700  0.93703800  0.58371500  1
  Bi  Bi19  1  0.23705100  0.93753700  0.24597100  1
  Bi  Bi20  1  0.75911700  0.06161800  0.41710000  1
  Bi  Bi21  1  0.76294900  0.06246300  0.74597100  1
  Bi  Bi22  1  0.77855300  0.06296200  0.08371500  1
  Bi  Bi23  1  0.47746800  0.86571300  0.24870100  1
  Bi  Bi24  1  0.48088200  0.86697800  0.91663900  1
  Bi  Bi25  1  0.47242800  0.86623600  0.58292600  1
  Bi  Bi26  1  0.13302200  0.61390400  0.91663900  1
  Bi  Bi27  1  0.13376400  0.60619200  0.58292600  1
  Bi  Bi28  1  0.13428700  0.61175500  0.24870100  1
  Bi  Bi29  1  0.70048600  0.76294900  0.24597100  1
  Bi  Bi30  1  0.71559100  0.77855300  0.58371500  1
  Bi  Bi31  1  0.69749900  0.75911700  0.91710000  1
  Bi  Bi32  1  0.38824500  0.52253200  0.24870100  1
  Bi  Bi33  1  0.38609600  0.51911800  0.91663900  1
  Bi  Bi34  1  0.39380800  0.52757200  0.58292600  1
  Bi  Bi35  1  0.06246300  0.29951400  0.24597100  1
  Bi  Bi36  1  0.06161800  0.30250100  0.91710000  1
  Bi  Bi37  1  0.06296200  0.28440900  0.58371500  1
  O  O38  1  0.83589600  0.82166800  0.75406700  1
  O  O39  1  0.82096200  0.80752600  0.07910100  1
  O  O40  1  0.82941700  0.81367900  0.41284000  1
  O  O41  1  0.72325700  0.60051900  0.24761400  1
  O  O42  1  0.72849400  0.60373800  0.58434700  1
  O  O43  1  0.72289300  0.59936500  0.91268600  1
  O  O44  1  0.45522100  0.39891600  0.57964900  1
  O  O45  1  0.45887400  0.40155000  0.24810900  1
  O  O46  1  0.45653400  0.39833800  0.91612600  1
  O  O47  1  0.94180400  0.54346600  0.91612600  1
  O  O48  1  0.94369500  0.54477900  0.57964900  1
  O  O49  1  0.94267600  0.54112600  0.24810900  1
  O  O50  1  0.40063500  0.12352800  0.91268600  1
  O  O51  1  0.39626200  0.12475600  0.58434700  1
  O  O52  1  0.39948100  0.12273800  0.24761400  1
  O  O53  1  0.19247400  0.01343600  0.07910100  1
  O  O54  1  0.17833200  0.01422800  0.75406700  1
  O  O55  1  0.18632100  0.01573800  0.41284000  1
  O  O56  1  0.87726200  0.27674300  0.24761400  1
  O  O57  1  0.87524400  0.27150600  0.58434700  1
  O  O58  1  0.87647200  0.27710700  0.91268600  1
  O  O59  1  0.01422800  0.83589600  0.25406700  1
  O  O60  1  0.01343600  0.82096200  0.57910100  1
  O  O61  1  0.01573800  0.82941700  0.91284000  1
  O  O62  1  0.59845000  0.05732400  0.24810900  1
  O  O63  1  0.60166200  0.05819600  0.91612600  1
  O  O64  1  0.60108400  0.05630500  0.57964900  1
  O  O65  1  0.39891600  0.94369500  0.07964900  1
  O  O66  1  0.39833800  0.94180400  0.41612600  1
  O  O67  1  0.40155000  0.94267600  0.74810900  1
  O  O68  1  0.98577200  0.16410400  0.75406700  1
  O  O69  1  0.98656400  0.17903800  0.07910100  1
  O  O70  1  0.98426200  0.17058300  0.41284000  1
  O  O71  1  0.12475600  0.72849400  0.08434700  1
  O  O72  1  0.12273800  0.72325700  0.74761400  1
  O  O73  1  0.12352800  0.72289300  0.41268600  1
  O  O74  1  0.82166800  0.98577200  0.25406700  1
  O  O75  1  0.80752600  0.98656400  0.57910100  1
  O  O76  1  0.81367900  0.98426200  0.91284000  1
  O  O77  1  0.60051900  0.87726200  0.74761400  1
  O  O78  1  0.59936500  0.87647200  0.41268600  1
  O  O79  1  0.60373800  0.87524400  0.08434700  1
  O  O80  1  0.05819600  0.45653400  0.41612600  1
  O  O81  1  0.05732400  0.45887400  0.74810900  1
  O  O82  1  0.05630500  0.45522100  0.07964900  1
  O  O83  1  0.54346600  0.60166200  0.41612600  1
  O  O84  1  0.54477900  0.60108400  0.07964900  1
  O  O85  1  0.54112600  0.59845000  0.74810900  1
  O  O86  1  0.27710700  0.40063500  0.41268600  1
  O  O87  1  0.27674300  0.39948100  0.74761400  1
  O  O88  1  0.27150600  0.39626200  0.08434700  1
  O  O89  1  0.16410400  0.17833200  0.25406700  1
  O  O90  1  0.17903800  0.19247400  0.57910100  1
  O  O91  1  0.17058300  0.18632100  0.91284000  1
  F  F92  1  0.66666667  0.33333333  0.91308300  1
  F  F93  1  0.66666667  0.33333333  0.57944000  1
  F  F94  1  0.66666667  0.33333333  0.24809200  1
  F  F95  1  0.33333333  0.66666667  0.74809200  1
  F  F96  1  0.33333333  0.66666667  0.41308300  1
  F  F97  1  0.33333333  0.66666667  0.07944000  1
