# generated using pymatgen
data_Hg3H4S2O11
_symmetry_space_group_name_H-M   'P 1'
_cell_length_a   7.26237600
_cell_length_b   9.11436200
_cell_length_c   14.81332612
_cell_angle_alpha   90.00000000
_cell_angle_beta   98.97381520
_cell_angle_gamma   90.00000000
_symmetry_Int_Tables_number   1
_chemical_formula_structural   Hg3H4S2O11
_chemical_formula_sum   'Hg12 H16 S8 O44'
_cell_volume   968.52069303
_cell_formula_units_Z   4
loop_
 _symmetry_equiv_pos_site_id
 _symmetry_equiv_pos_as_xyz
  1  'x, y, z'
loop_
 _atom_site_type_symbol
 _atom_site_label
 _atom_site_symmetry_multiplicity
 _atom_site_fract_x
 _atom_site_fract_y
 _atom_site_fract_z
 _atom_site_occupancy
  Hg  Hg0  1  0.75000000  0.75000000  0.00000000  1
  Hg  Hg1  1  0.75000000  0.25000000  0.50000000  1
  Hg  Hg2  1  0.74868100  0.06582100  0.85104400  1
  Hg  Hg3  1  0.25131900  0.06582100  0.64895600  1
  Hg  Hg4  1  0.25131900  0.93417900  0.14895600  1
  Hg  Hg5  1  0.74868100  0.93417900  0.35104400  1
  Hg  Hg6  1  0.25000000  0.25000000  0.00000000  1
  Hg  Hg7  1  0.25000000  0.75000000  0.50000000  1
  Hg  Hg8  1  0.24868100  0.56582100  0.85104400  1
  Hg  Hg9  1  0.75131900  0.56582100  0.64895600  1
  Hg  Hg10  1  0.75131900  0.43417900  0.14895600  1
  Hg  Hg11  1  0.24868100  0.43417900  0.35104400  1
  H  H12  1  0.40790350  0.31205150  0.85153200  1
  H  H13  1  0.59209650  0.31205150  0.64846800  1
  H  H14  1  0.59209650  0.68794850  0.14846800  1
  H  H15  1  0.40790350  0.68794850  0.35153200  1
  H  H16  1  0.58993450  0.73324250  0.78832800  1
  H  H17  1  0.41006550  0.73324250  0.71167200  1
  H  H18  1  0.41006550  0.26675750  0.21167200  1
  H  H19  1  0.58993450  0.26675750  0.28832800  1
  H  H20  1  0.90790350  0.81205150  0.85153200  1
  H  H21  1  0.09209650  0.81205150  0.64846800  1
  H  H22  1  0.09209650  0.18794850  0.14846800  1
  H  H23  1  0.90790350  0.18794850  0.35153200  1
  H  H24  1  0.08993450  0.23324250  0.78832800  1
  H  H25  1  0.91006550  0.23324250  0.71167200  1
  H  H26  1  0.91006550  0.76675750  0.21167200  1
  H  H27  1  0.08993450  0.76675750  0.28832800  1
  S  S28  1  0.28377450  0.90872450  0.89541100  1
  S  S29  1  0.71622550  0.90872450  0.60458900  1
  S  S30  1  0.71622550  0.09127550  0.10458900  1
  S  S31  1  0.28377450  0.09127550  0.39541100  1
  S  S32  1  0.78377450  0.40872450  0.89541100  1
  S  S33  1  0.21622550  0.40872450  0.60458900  1
  S  S34  1  0.21622550  0.59127550  0.10458900  1
  S  S35  1  0.78377450  0.59127550  0.39541100  1
  O  O36  1  0.77938400  0.83478400  0.86260900  1
  O  O37  1  0.22061600  0.83478400  0.63739100  1
  O  O38  1  0.22061600  0.16521600  0.13739100  1
  O  O39  1  0.77938400  0.16521600  0.36260900  1
  O  O40  1  0.65813050  0.28983350  0.83948100  1
  O  O41  1  0.34186950  0.28983350  0.66051900  1
  O  O42  1  0.34186950  0.71016650  0.16051900  1
  O  O43  1  0.65813050  0.71016650  0.33948100  1
  O  O44  1  0.37708500  0.99381500  0.83088400  1
  O  O45  1  0.62291500  0.99381500  0.66911600  1
  O  O46  1  0.62291500  0.00618500  0.16911600  1
  O  O47  1  0.37708500  0.00618500  0.33088400  1
  O  O48  1  0.15101200  0.99963100  0.93842200  1
  O  O49  1  0.84898800  0.99963100  0.56157800  1
  O  O50  1  0.84898800  0.00036900  0.06157800  1
  O  O51  1  0.15101200  0.00036900  0.43842200  1
  O  O52  1  0.41697550  0.83268850  0.96572200  1
  O  O53  1  0.58302450  0.83268850  0.53427800  1
  O  O54  1  0.58302450  0.16731150  0.03427800  1
  O  O55  1  0.41697550  0.16731150  0.46572200  1
  O  O56  1  0.50000000  0.66814900  0.75000000  1
  O  O57  1  0.50000000  0.33185100  0.25000000  1
  O  O58  1  0.27938400  0.33478400  0.86260900  1
  O  O59  1  0.72061600  0.33478400  0.63739100  1
  O  O60  1  0.72061600  0.66521600  0.13739100  1
  O  O61  1  0.27938400  0.66521600  0.36260900  1
  O  O62  1  0.15813050  0.78983350  0.83948100  1
  O  O63  1  0.84186950  0.78983350  0.66051900  1
  O  O64  1  0.84186950  0.21016650  0.16051900  1
  O  O65  1  0.15813050  0.21016650  0.33948100  1
  O  O66  1  0.87708500  0.49381500  0.83088400  1
  O  O67  1  0.12291500  0.49381500  0.66911600  1
  O  O68  1  0.12291500  0.50618500  0.16911600  1
  O  O69  1  0.87708500  0.50618500  0.33088400  1
  O  O70  1  0.65101200  0.49963100  0.93842200  1
  O  O71  1  0.34898800  0.49963100  0.56157800  1
  O  O72  1  0.34898800  0.50036900  0.06157800  1
  O  O73  1  0.65101200  0.50036900  0.43842200  1
  O  O74  1  0.91697550  0.33268850  0.96572200  1
  O  O75  1  0.08302450  0.33268850  0.53427800  1
  O  O76  1  0.08302450  0.66731150  0.03427800  1
  O  O77  1  0.91697550  0.66731150  0.46572200  1
  O  O78  1  0.00000000  0.16814900  0.75000000  1
  O  O79  1  0.00000000  0.83185100  0.25000000  1
