# generated using pymatgen
data_Li2CoSiO4
_symmetry_space_group_name_H-M   'P 1'
_cell_length_a   4.37437515
_cell_length_b   4.37437515
_cell_length_c   8.79545960
_cell_angle_alpha   90.00000000
_cell_angle_beta   90.00000000
_cell_angle_gamma   90.00000000
_symmetry_Int_Tables_number   1
_chemical_formula_structural   Li2CoSiO4
_chemical_formula_sum   'Li4 Co2 Si2 O8'
_cell_volume   168.30250893
_cell_formula_units_Z   2
loop_
 _symmetry_equiv_pos_site_id
 _symmetry_equiv_pos_as_xyz
  1  'x, y, z'
loop_
 _atom_site_type_symbol
 _atom_site_label
 _atom_site_symmetry_multiplicity
 _atom_site_fract_x
 _atom_site_fract_y
 _atom_site_fract_z
 _atom_site_occupancy
  Li  Li0  1  0.00000000  0.50000000  0.25000000  1
  Li  Li1  1  0.50000000  0.00000000  0.25000000  1
  Li  Li2  1  0.50000000  0.00000000  0.75000000  1
  Li  Li3  1  0.00000000  0.50000000  0.75000000  1
  Co  Co4  1  0.00000000  0.00000000  0.00000000  1
  Co  Co5  1  0.50000000  0.50000000  0.50000000  1
  Si  Si6  1  0.50000000  0.50000000  0.00000000  1
  Si  Si7  1  0.00000000  0.00000000  0.50000000  1
  O  O8  1  0.71629112  0.28370888  0.11097862  1
  O  O9  1  0.21629112  0.21629112  0.38902138  1
  O  O10  1  0.28370888  0.71629112  0.11097862  1
  O  O11  1  0.78370888  0.78370888  0.38902138  1
  O  O12  1  0.21629112  0.78370888  0.61097862  1
  O  O13  1  0.71629112  0.71629112  0.88902138  1
  O  O14  1  0.78370888  0.21629112  0.61097862  1
  O  O15  1  0.28370888  0.28370888  0.88902138  1
