# generated using pymatgen
data_Li4Ti3V3(SbO8)2
_symmetry_space_group_name_H-M   'P 1'
_cell_length_a   5.98106898
_cell_length_b   6.00301616
_cell_length_c   10.54535638
_cell_angle_alpha   90.37844850
_cell_angle_beta   90.01771521
_cell_angle_gamma   119.70336968
_symmetry_Int_Tables_number   1
_chemical_formula_structural   Li4Ti3V3(SbO8)2
_chemical_formula_sum   'Li4 Ti3 V3 Sb2 O16'
_cell_volume   328.86482888
_cell_formula_units_Z   1
loop_
 _symmetry_equiv_pos_site_id
 _symmetry_equiv_pos_as_xyz
  1  'x, y, z'
loop_
 _atom_site_type_symbol
 _atom_site_label
 _atom_site_symmetry_multiplicity
 _atom_site_fract_x
 _atom_site_fract_y
 _atom_site_fract_z
 _atom_site_occupancy
  Li  Li0  1  0.33470050  0.66705950  0.89202250  1
  Li  Li1  1  0.99794200  0.99893100  0.99322300  1
  Li  Li2  1  0.99202900  0.99215100  0.49482750  1
  Li  Li3  1  0.66973900  0.33455500  0.38972200  1
  Ti  Ti4  1  0.65407200  0.82073900  0.22342900  1
  Ti  Ti5  1  0.16887650  0.82267950  0.22298250  1
  Ti  Ti6  1  0.82347500  0.65169600  0.72743700  1
  V  V7  1  0.17044750  0.34020450  0.21324100  1
  V  V8  1  0.81814500  0.16538600  0.71980550  1
  V  V9  1  0.33901550  0.17092050  0.71355900  1
  Sb  Sb10  1  0.32959600  0.66334000  0.51627200  1
  Sb  Sb11  1  0.66671550  0.33099750  0.01492400  1
  O  O12  1  0.68709550  0.84476550  0.60644200  1
  O  O13  1  0.48804550  0.97610450  0.31811600  1
  O  O14  1  0.34399900  0.68660300  0.11160200  1
  O  O15  1  0.99481950  0.99022950  0.31116250  1
  O  O16  1  0.99181950  0.99412750  0.81093650  1
  O  O17  1  0.15875150  0.84488950  0.60718400  1
  O  O18  1  0.50275000  0.51795000  0.31396300  1
  O  O19  1  0.01827650  0.51994150  0.31474250  1
  O  O20  1  0.84564150  0.69043150  0.10507550  1
  O  O21  1  0.14365650  0.30700150  0.61077800  1
  O  O22  1  0.97911000  0.49301200  0.81917350  1
  O  O23  1  0.51586450  0.49859250  0.81716700  1
  O  O24  1  0.68262950  0.34725650  0.61137850  1
  O  O25  1  0.84356600  0.15618300  0.10753550  1
  O  O26  1  0.52727550  0.01942950  0.81424700  1
  O  O27  1  0.31224300  0.15481900  0.10689300  1
