# generated using pymatgen
data_SrSm2O4
_symmetry_space_group_name_H-M   'P 1'
_cell_length_a   3.47060000
_cell_length_b   11.54049000
_cell_length_c   11.39719600
_cell_angle_alpha   90.00000000
_cell_angle_beta   90.00000000
_cell_angle_gamma   90.00000000
_symmetry_Int_Tables_number   1
_chemical_formula_structural   SrSm2O4
_chemical_formula_sum   'Sr4 Sm8 O16'
_cell_volume   456.48533337
_cell_formula_units_Z   4
loop_
 _symmetry_equiv_pos_site_id
 _symmetry_equiv_pos_as_xyz
  1  'x, y, z'
loop_
 _atom_site_type_symbol
 _atom_site_label
 _atom_site_symmetry_multiplicity
 _atom_site_fract_x
 _atom_site_fract_y
 _atom_site_fract_z
 _atom_site_occupancy
  Sr  Sr0  1  0.00000000  0.11188800  0.75000000  1
  Sr  Sr1  1  0.50000000  0.38811200  0.25000000  1
  Sr  Sr2  1  0.50000000  0.61188800  0.75000000  1
  Sr  Sr3  1  0.00000000  0.88811200  0.25000000  1
  Sm  Sm4  1  0.00000000  0.36731000  0.92630800  1
  Sm  Sm5  1  0.00000000  0.36731000  0.57369200  1
  Sm  Sm6  1  0.50000000  0.13269000  0.07369200  1
  Sm  Sm7  1  0.50000000  0.13269000  0.42630800  1
  Sm  Sm8  1  0.50000000  0.86731000  0.92630800  1
  Sm  Sm9  1  0.50000000  0.86731000  0.57369200  1
  Sm  Sm10  1  0.00000000  0.63269000  0.07369200  1
  Sm  Sm11  1  0.00000000  0.63269000  0.42630800  1
  O  O12  1  0.00000000  0.00000000  0.50000000  1
  O  O13  1  0.00000000  0.00000000  0.00000000  1
  O  O14  1  0.00000000  0.46158200  0.75000000  1
  O  O15  1  0.00000000  0.26408900  0.11054500  1
  O  O16  1  0.00000000  0.26408900  0.38945500  1
  O  O17  1  0.50000000  0.03841800  0.25000000  1
  O  O18  1  0.50000000  0.23591100  0.88945500  1
  O  O19  1  0.50000000  0.23591100  0.61054500  1
  O  O20  1  0.50000000  0.50000000  0.50000000  1
  O  O21  1  0.50000000  0.50000000  0.00000000  1
  O  O22  1  0.50000000  0.96158200  0.75000000  1
  O  O23  1  0.50000000  0.76408900  0.11054500  1
  O  O24  1  0.50000000  0.76408900  0.38945500  1
  O  O25  1  0.00000000  0.53841800  0.25000000  1
  O  O26  1  0.00000000  0.73591100  0.88945500  1
  O  O27  1  0.00000000  0.73591100  0.61054500  1
