# generated using pymatgen
data_LiB2SbO5
_symmetry_space_group_name_H-M   'P 1'
_cell_length_a   10.21849600
_cell_length_b   10.84301200
_cell_length_c   10.14781132
_cell_angle_alpha   90.00000000
_cell_angle_beta   118.22200239
_cell_angle_gamma   90.00000000
_symmetry_Int_Tables_number   1
_chemical_formula_structural   LiB2SbO5
_chemical_formula_sum   'Li8 B16 Sb8 O40'
_cell_volume   990.70717241
_cell_formula_units_Z   8
loop_
 _symmetry_equiv_pos_site_id
 _symmetry_equiv_pos_as_xyz
  1  'x, y, z'
loop_
 _atom_site_type_symbol
 _atom_site_label
 _atom_site_symmetry_multiplicity
 _atom_site_fract_x
 _atom_site_fract_y
 _atom_site_fract_z
 _atom_site_occupancy
  Li  Li0  1  0.50000000  0.63629900  0.75000000  1
  Li  Li1  1  0.50000000  0.12200900  0.75000000  1
  Li  Li2  1  0.50000000  0.87799100  0.25000000  1
  Li  Li3  1  0.50000000  0.36370100  0.25000000  1
  Li  Li4  1  0.00000000  0.13629900  0.75000000  1
  Li  Li5  1  0.00000000  0.62200900  0.75000000  1
  Li  Li6  1  0.00000000  0.37799100  0.25000000  1
  Li  Li7  1  0.00000000  0.86370100  0.25000000  1
  B  B8  1  0.77140600  0.97406300  0.60532600  1
  B  B9  1  0.55693600  0.82100700  0.51069400  1
  B  B10  1  0.77140600  0.02593700  0.10532600  1
  B  B11  1  0.55693600  0.17899300  0.01069400  1
  B  B12  1  0.44306400  0.82100700  0.98930600  1
  B  B13  1  0.22859400  0.97406300  0.89467400  1
  B  B14  1  0.44306400  0.17899300  0.48930600  1
  B  B15  1  0.22859400  0.02593700  0.39467400  1
  B  B16  1  0.27140600  0.47406300  0.60532600  1
  B  B17  1  0.05693600  0.32100700  0.51069400  1
  B  B18  1  0.27140600  0.52593700  0.10532600  1
  B  B19  1  0.05693600  0.67899300  0.01069400  1
  B  B20  1  0.94306400  0.32100700  0.98930600  1
  B  B21  1  0.72859400  0.47406300  0.89467400  1
  B  B22  1  0.94306400  0.67899300  0.48930600  1
  B  B23  1  0.72859400  0.52593700  0.39467400  1
  Sb  Sb24  1  0.76605450  0.82619150  0.86179600  1
  Sb  Sb25  1  0.76605450  0.17380850  0.36179600  1
  Sb  Sb26  1  0.23394550  0.82619150  0.63820400  1
  Sb  Sb27  1  0.23394550  0.17380850  0.13820400  1
  Sb  Sb28  1  0.26605450  0.32619150  0.86179600  1
  Sb  Sb29  1  0.26605450  0.67380850  0.36179600  1
  Sb  Sb30  1  0.73394550  0.32619150  0.63820400  1
  Sb  Sb31  1  0.73394550  0.67380850  0.13820400  1
  O  O32  1  0.84782350  0.05665250  0.56827500  1
  O  O33  1  0.81327400  0.95841800  0.75581200  1
  O  O34  1  0.84782350  0.94334750  0.06827500  1
  O  O35  1  0.57963700  0.77518700  0.64420700  1
  O  O36  1  0.56046000  0.21515300  0.62555600  1
  O  O37  1  0.81327400  0.04158200  0.25581200  1
  O  O38  1  0.64761250  0.08967950  0.99136600  1
  O  O39  1  0.35238750  0.08967950  0.50863400  1
  O  O40  1  0.57963700  0.22481300  0.14420700  1
  O  O41  1  0.56046000  0.78484700  0.12555600  1
  O  O42  1  0.43954000  0.21515300  0.87444400  1
  O  O43  1  0.42036300  0.77518700  0.85579300  1
  O  O44  1  0.64761250  0.91032050  0.49136600  1
  O  O45  1  0.35238750  0.91032050  0.00863400  1
  O  O46  1  0.18672600  0.95841800  0.74418800  1
  O  O47  1  0.43954000  0.78484700  0.37444400  1
  O  O48  1  0.42036300  0.22481300  0.35579300  1
  O  O49  1  0.15217650  0.05665250  0.93172500  1
  O  O50  1  0.18672600  0.04158200  0.24418800  1
  O  O51  1  0.15217650  0.94334750  0.43172500  1
  O  O52  1  0.34782350  0.55665250  0.56827500  1
  O  O53  1  0.31327400  0.45841800  0.75581200  1
  O  O54  1  0.34782350  0.44334750  0.06827500  1
  O  O55  1  0.07963700  0.27518700  0.64420700  1
  O  O56  1  0.06046000  0.71515300  0.62555600  1
  O  O57  1  0.31327400  0.54158200  0.25581200  1
  O  O58  1  0.14761250  0.58967950  0.99136600  1
  O  O59  1  0.85238750  0.58967950  0.50863400  1
  O  O60  1  0.07963700  0.72481300  0.14420700  1
  O  O61  1  0.06046000  0.28484700  0.12555600  1
  O  O62  1  0.93954000  0.71515300  0.87444400  1
  O  O63  1  0.92036300  0.27518700  0.85579300  1
  O  O64  1  0.14761250  0.41032050  0.49136600  1
  O  O65  1  0.85238750  0.41032050  0.00863400  1
  O  O66  1  0.68672600  0.45841800  0.74418800  1
  O  O67  1  0.93954000  0.28484700  0.37444400  1
  O  O68  1  0.92036300  0.72481300  0.35579300  1
  O  O69  1  0.65217650  0.55665250  0.93172500  1
  O  O70  1  0.68672600  0.54158200  0.24418800  1
  O  O71  1  0.65217650  0.44334750  0.43172500  1
