# generated using pymatgen
data_Sr2HfO4
_symmetry_space_group_name_H-M   'P 1'
_cell_length_a   4.11572600
_cell_length_b   4.11572600
_cell_length_c   12.83166800
_cell_angle_alpha   90.00000000
_cell_angle_beta   90.00000000
_cell_angle_gamma   90.00000000
_symmetry_Int_Tables_number   1
_chemical_formula_structural   Sr2HfO4
_chemical_formula_sum   'Sr4 Hf2 O8'
_cell_volume   217.35819709
_cell_formula_units_Z   2
loop_
 _symmetry_equiv_pos_site_id
 _symmetry_equiv_pos_as_xyz
  1  'x, y, z'
loop_
 _atom_site_type_symbol
 _atom_site_label
 _atom_site_symmetry_multiplicity
 _atom_site_fract_x
 _atom_site_fract_y
 _atom_site_fract_z
 _atom_site_occupancy
  Sr  Sr0  1  0.50000000  0.50000000  0.14773300  1
  Sr  Sr1  1  0.00000000  0.00000000  0.35226700  1
  Sr  Sr2  1  0.00000000  0.00000000  0.64773300  1
  Sr  Sr3  1  0.50000000  0.50000000  0.85226700  1
  Hf  Hf4  1  0.00000000  0.00000000  0.00000000  1
  Hf  Hf5  1  0.50000000  0.50000000  0.50000000  1
  O  O6  1  0.00000000  0.50000000  0.00000000  1
  O  O7  1  0.50000000  0.00000000  0.00000000  1
  O  O8  1  0.50000000  0.50000000  0.33608000  1
  O  O9  1  0.00000000  0.00000000  0.16392000  1
  O  O10  1  0.50000000  0.00000000  0.50000000  1
  O  O11  1  0.00000000  0.50000000  0.50000000  1
  O  O12  1  0.00000000  0.00000000  0.83608000  1
  O  O13  1  0.50000000  0.50000000  0.66392000  1
