# generated using pymatgen
data_Sm3NbO7
_symmetry_space_group_name_H-M   'P 1'
_cell_length_a   7.51908800
_cell_length_b   10.85202600
_cell_length_c   7.69286200
_cell_angle_alpha   90.00000000
_cell_angle_beta   90.00000000
_cell_angle_gamma   90.00000000
_symmetry_Int_Tables_number   1
_chemical_formula_structural   Sm3NbO7
_chemical_formula_sum   'Sm12 Nb4 O28'
_cell_volume   627.71706443
_cell_formula_units_Z   4
loop_
 _symmetry_equiv_pos_site_id
 _symmetry_equiv_pos_as_xyz
  1  'x, y, z'
loop_
 _atom_site_type_symbol
 _atom_site_label
 _atom_site_symmetry_multiplicity
 _atom_site_fract_x
 _atom_site_fract_y
 _atom_site_fract_z
 _atom_site_occupancy
  Sm  Sm0  1  0.28830200  0.22877300  0.25000000  1
  Sm  Sm1  1  0.71169800  0.22877300  0.75000000  1
  Sm  Sm2  1  0.00000000  0.00000000  0.00000000  1
  Sm  Sm3  1  0.00000000  0.00000000  0.50000000  1
  Sm  Sm4  1  0.71169800  0.77122700  0.75000000  1
  Sm  Sm5  1  0.28830200  0.77122700  0.25000000  1
  Sm  Sm6  1  0.78830200  0.72877300  0.25000000  1
  Sm  Sm7  1  0.21169800  0.72877300  0.75000000  1
  Sm  Sm8  1  0.50000000  0.50000000  0.00000000  1
  Sm  Sm9  1  0.50000000  0.50000000  0.50000000  1
  Sm  Sm10  1  0.21169800  0.27122700  0.75000000  1
  Sm  Sm11  1  0.78830200  0.27122700  0.25000000  1
  Nb  Nb12  1  0.50000000  0.00000000  0.00000000  1
  Nb  Nb13  1  0.50000000  0.00000000  0.50000000  1
  Nb  Nb14  1  0.00000000  0.50000000  0.00000000  1
  Nb  Nb15  1  0.00000000  0.50000000  0.50000000  1
  O  O16  1  0.51985450  0.36821650  0.25000000  1
  O  O17  1  0.48014550  0.36821650  0.75000000  1
  O  O18  1  0.30845450  0.12794050  0.53246600  1
  O  O19  1  0.69154550  0.12794050  0.03246600  1
  O  O20  1  0.69154550  0.12794050  0.46753400  1
  O  O21  1  0.30845450  0.12794050  0.96753400  1
  O  O22  1  0.56994200  0.00000000  0.75000000  1
  O  O23  1  0.43005800  0.00000000  0.25000000  1
  O  O24  1  0.30845450  0.87205950  0.53246600  1
  O  O25  1  0.30845450  0.87205950  0.96753400  1
  O  O26  1  0.69154550  0.87205950  0.03246600  1
  O  O27  1  0.69154550  0.87205950  0.46753400  1
  O  O28  1  0.51985450  0.63178350  0.25000000  1
  O  O29  1  0.48014550  0.63178350  0.75000000  1
  O  O30  1  0.01985450  0.86821650  0.25000000  1
  O  O31  1  0.98014550  0.86821650  0.75000000  1
  O  O32  1  0.80845450  0.62794050  0.53246600  1
  O  O33  1  0.19154550  0.62794050  0.03246600  1
  O  O34  1  0.19154550  0.62794050  0.46753400  1
  O  O35  1  0.80845450  0.62794050  0.96753400  1
  O  O36  1  0.06994200  0.50000000  0.75000000  1
  O  O37  1  0.93005800  0.50000000  0.25000000  1
  O  O38  1  0.80845450  0.37205950  0.53246600  1
  O  O39  1  0.80845450  0.37205950  0.96753400  1
  O  O40  1  0.19154550  0.37205950  0.03246600  1
  O  O41  1  0.19154550  0.37205950  0.46753400  1
  O  O42  1  0.01985450  0.13178350  0.25000000  1
  O  O43  1  0.98014550  0.13178350  0.75000000  1
