# generated using pymatgen
data_Li4Ti5Mn3O16
_symmetry_space_group_name_H-M   'P 1'
_cell_length_a   10.59609000
_cell_length_b   5.89419200
_cell_length_c   9.65841064
_cell_angle_alpha   90.00000000
_cell_angle_beta   91.99829837
_cell_angle_gamma   90.00000000
_symmetry_Int_Tables_number   1
_chemical_formula_structural   Li4Ti5Mn3O16
_chemical_formula_sum   'Li8 Ti10 Mn6 O32'
_cell_volume   602.85295230
_cell_formula_units_Z   2
loop_
 _symmetry_equiv_pos_site_id
 _symmetry_equiv_pos_as_xyz
  1  'x, y, z'
loop_
 _atom_site_type_symbol
 _atom_site_label
 _atom_site_symmetry_multiplicity
 _atom_site_fract_x
 _atom_site_fract_y
 _atom_site_fract_z
 _atom_site_occupancy
  Li  Li0  1  0.65538000  0.00000000  0.89962700  1
  Li  Li1  1  0.99814000  0.00000000  0.99142900  1
  Li  Li2  1  0.50729400  0.50000000  0.49369300  1
  Li  Li3  1  0.83516200  0.50000000  0.40054900  1
  Li  Li4  1  0.15538000  0.50000000  0.89962700  1
  Li  Li5  1  0.49814000  0.50000000  0.99142900  1
  Li  Li6  1  0.00729400  0.00000000  0.49369300  1
  Li  Li7  1  0.33516200  0.00000000  0.40054900  1
  Ti  Ti8  1  0.67362400  0.50000000  0.73289900  1
  Ti  Ti9  1  0.59662300  0.24677400  0.22186800  1
  Ti  Ti10  1  0.66472800  0.00000000  0.49987500  1
  Ti  Ti11  1  0.59662300  0.75322600  0.22186800  1
  Ti  Ti12  1  0.83980400  0.50000000  0.99750500  1
  Ti  Ti13  1  0.17362400  0.00000000  0.73289900  1
  Ti  Ti14  1  0.09662300  0.74677400  0.22186800  1
  Ti  Ti15  1  0.16472800  0.50000000  0.49987500  1
  Ti  Ti16  1  0.09662300  0.25322600  0.22186800  1
  Ti  Ti17  1  0.33980400  0.00000000  0.99750500  1
  Mn  Mn18  1  0.83378900  0.00000000  0.20748300  1
  Mn  Mn19  1  0.91296950  0.74645650  0.70930200  1
  Mn  Mn20  1  0.91296950  0.25354350  0.70930200  1
  Mn  Mn21  1  0.33378900  0.50000000  0.20748300  1
  Mn  Mn22  1  0.41296950  0.24645650  0.70930200  1
  Mn  Mn23  1  0.41296950  0.75354350  0.70930200  1
  O  O24  1  0.59450550  0.24458650  0.59116200  1
  O  O25  1  0.52277700  0.00000000  0.33717700  1
  O  O26  1  0.65101600  0.00000000  0.10497200  1
  O  O27  1  0.51008300  0.50000000  0.30449000  1
  O  O28  1  0.99922600  0.00000000  0.80039400  1
  O  O29  1  0.59450550  0.75541350  0.59116200  1
  O  O30  1  0.73267850  0.23113650  0.34373900  1
  O  O31  1  0.73267850  0.76886350  0.34373900  1
  O  O32  1  0.66676600  0.50000000  0.10186900  1
  O  O33  1  0.83886100  0.00000000  0.58890200  1
  O  O34  1  0.74460600  0.71928300  0.84560900  1
  O  O35  1  0.74460600  0.28071700  0.84560900  1
  O  O36  1  0.82816800  0.50000000  0.61122300  1
  O  O37  1  0.92117350  0.73868350  0.08642500  1
  O  O38  1  0.96974900  0.50000000  0.83954500  1
  O  O39  1  0.92117350  0.26131650  0.08642500  1
  O  O40  1  0.09450550  0.74458650  0.59116200  1
  O  O41  1  0.02277700  0.50000000  0.33717700  1
  O  O42  1  0.15101600  0.50000000  0.10497200  1
  O  O43  1  0.01008300  0.00000000  0.30449000  1
  O  O44  1  0.49922600  0.50000000  0.80039400  1
  O  O45  1  0.09450550  0.25541350  0.59116200  1
  O  O46  1  0.23267850  0.73113650  0.34373900  1
  O  O47  1  0.23267850  0.26886350  0.34373900  1
  O  O48  1  0.16676600  0.00000000  0.10186900  1
  O  O49  1  0.33886100  0.50000000  0.58890200  1
  O  O50  1  0.24460600  0.21928300  0.84560900  1
  O  O51  1  0.24460600  0.78071700  0.84560900  1
  O  O52  1  0.32816800  0.00000000  0.61122300  1
  O  O53  1  0.42117350  0.23868350  0.08642500  1
  O  O54  1  0.46974900  0.00000000  0.83954500  1
  O  O55  1  0.42117350  0.76131650  0.08642500  1
