# generated using pymatgen
data_Mn5P4(HO2)10
_symmetry_space_group_name_H-M   'P 1'
_cell_length_a   17.85192600
_cell_length_b   9.25563400
_cell_length_c   9.61450367
_cell_angle_alpha   90.00000000
_cell_angle_beta   96.36979288
_cell_angle_gamma   90.00000000
_symmetry_Int_Tables_number   1
_chemical_formula_structural   Mn5P4(HO2)10
_chemical_formula_sum   'Mn20 P16 H40 O80'
_cell_volume   1578.80580442
_cell_formula_units_Z   4
loop_
 _symmetry_equiv_pos_site_id
 _symmetry_equiv_pos_as_xyz
  1  'x, y, z'
loop_
 _atom_site_type_symbol
 _atom_site_label
 _atom_site_symmetry_multiplicity
 _atom_site_fract_x
 _atom_site_fract_y
 _atom_site_fract_z
 _atom_site_occupancy
  Mn  Mn0  1  0.00000000  0.60336000  0.75000000  1
  Mn  Mn1  1  0.00000000  0.39664000  0.25000000  1
  Mn  Mn2  1  0.82540450  0.47196850  0.63469400  1
  Mn  Mn3  1  0.67459550  0.97196850  0.86530600  1
  Mn  Mn4  1  0.67459550  0.02803150  0.36530600  1
  Mn  Mn5  1  0.82540450  0.52803150  0.13469400  1
  Mn  Mn6  1  0.81744900  0.90978700  0.18476800  1
  Mn  Mn7  1  0.68255100  0.40978700  0.31523200  1
  Mn  Mn8  1  0.68255100  0.59021300  0.81523200  1
  Mn  Mn9  1  0.81744900  0.09021300  0.68476800  1
  Mn  Mn10  1  0.50000000  0.10336000  0.75000000  1
  Mn  Mn11  1  0.50000000  0.89664000  0.25000000  1
  Mn  Mn12  1  0.32540450  0.97196850  0.63469400  1
  Mn  Mn13  1  0.17459550  0.47196850  0.86530600  1
  Mn  Mn14  1  0.17459550  0.52803150  0.36530600  1
  Mn  Mn15  1  0.32540450  0.02803150  0.13469400  1
  Mn  Mn16  1  0.31744900  0.40978700  0.18476800  1
  Mn  Mn17  1  0.18255100  0.90978700  0.31523200  1
  Mn  Mn18  1  0.18255100  0.09021300  0.81523200  1
  Mn  Mn19  1  0.31744900  0.59021300  0.68476800  1
  P  P20  1  0.91599200  0.32164800  0.91014200  1
  P  P21  1  0.58400800  0.82164800  0.58985800  1
  P  P22  1  0.58400800  0.17835200  0.08985800  1
  P  P23  1  0.91599200  0.67835200  0.41014200  1
  P  P24  1  0.83936600  0.23949800  0.37133400  1
  P  P25  1  0.66063400  0.73949800  0.12866600  1
  P  P26  1  0.66063400  0.26050200  0.62866600  1
  P  P27  1  0.83936600  0.76050200  0.87133400  1
  P  P28  1  0.41599200  0.82164800  0.91014200  1
  P  P29  1  0.08400800  0.32164800  0.58985800  1
  P  P30  1  0.08400800  0.67835200  0.08985800  1
  P  P31  1  0.41599200  0.17835200  0.41014200  1
  P  P32  1  0.33936600  0.73949800  0.37133400  1
  P  P33  1  0.16063400  0.23949800  0.12866600  1
  P  P34  1  0.16063400  0.76050200  0.62866600  1
  P  P35  1  0.33936600  0.26050200  0.87133400  1
  H  H36  1  0.76516850  0.64810350  0.41212200  1
  H  H37  1  0.73483150  0.14810350  0.08787800  1
  H  H38  1  0.73483150  0.85189650  0.58787800  1
  H  H39  1  0.76516850  0.35189650  0.91212200  1
  H  H40  1  0.70369950  0.63090150  0.52218500  1
  H  H41  1  0.79630050  0.13090150  0.97781500  1
  H  H42  1  0.79630050  0.86909850  0.47781500  1
  H  H43  1  0.70369950  0.36909850  0.02218500  1
  H  H44  1  0.93186350  0.09253250  0.21971000  1
  H  H45  1  0.56813650  0.59253250  0.28029000  1
  H  H46  1  0.56813650  0.40746750  0.78029000  1
  H  H47  1  0.93186350  0.90746750  0.71971000  1
  H  H48  1  0.96692350  0.95725050  0.13758700  1
  H  H49  1  0.53307650  0.45725050  0.36241300  1
  H  H50  1  0.53307650  0.54274950  0.86241300  1
  H  H51  1  0.96692350  0.04274950  0.63758700  1
  H  H52  1  0.52218500  0.72746900  0.00840700  1
  H  H53  1  0.97781500  0.22746900  0.49159300  1
  H  H54  1  0.97781500  0.77253100  0.99159300  1
  H  H55  1  0.52218500  0.27253100  0.50840700  1
  H  H56  1  0.26516850  0.14810350  0.41212200  1
  H  H57  1  0.23483150  0.64810350  0.08787800  1
  H  H58  1  0.23483150  0.35189650  0.58787800  1
  H  H59  1  0.26516850  0.85189650  0.91212200  1
  H  H60  1  0.20369950  0.13090150  0.52218500  1
  H  H61  1  0.29630050  0.63090150  0.97781500  1
  H  H62  1  0.29630050  0.36909850  0.47781500  1
  H  H63  1  0.20369950  0.86909850  0.02218500  1
  H  H64  1  0.43186350  0.59253250  0.21971000  1
  H  H65  1  0.06813650  0.09253250  0.28029000  1
  H  H66  1  0.06813650  0.90746750  0.78029000  1
  H  H67  1  0.43186350  0.40746750  0.71971000  1
  H  H68  1  0.46692350  0.45725050  0.13758700  1
  H  H69  1  0.03307650  0.95725050  0.36241300  1
  H  H70  1  0.03307650  0.04274950  0.86241300  1
  H  H71  1  0.46692350  0.54274950  0.63758700  1
  H  H72  1  0.02218500  0.22746900  0.00840700  1
  H  H73  1  0.47781500  0.72746900  0.49159300  1
  H  H74  1  0.47781500  0.27253100  0.99159300  1
  H  H75  1  0.02218500  0.77253100  0.50840700  1
  O  O76  1  0.92211150  0.43332450  0.79310900  1
  O  O77  1  0.57788850  0.93332450  0.70689100  1
  O  O78  1  0.57788850  0.06667550  0.20689100  1
  O  O79  1  0.92211150  0.56667550  0.29310900  1
  O  O80  1  0.91567600  0.39323600  0.05530900  1
  O  O81  1  0.58432400  0.89323600  0.44469100  1
  O  O82  1  0.58432400  0.10676400  0.94469100  1
  O  O83  1  0.91567600  0.60676400  0.55530900  1
  O  O84  1  0.84379750  0.23151550  0.86842000  1
  O  O85  1  0.65620250  0.73151550  0.63158000  1
  O  O86  1  0.65620250  0.26848450  0.13158000  1
  O  O87  1  0.84379750  0.76848450  0.36842000  1
  O  O88  1  0.98658350  0.21569250  0.91896100  1
  O  O89  1  0.51341650  0.71569250  0.58103900  1
  O  O90  1  0.51341650  0.28430750  0.08103900  1
  O  O91  1  0.98658350  0.78430750  0.41896100  1
  O  O92  1  0.83608650  0.26413650  0.53188600  1
  O  O93  1  0.66391350  0.76413650  0.96811400  1
  O  O94  1  0.66391350  0.23586350  0.46811400  1
  O  O95  1  0.83608650  0.73586350  0.03188600  1
  O  O96  1  0.79863450  0.09675250  0.32543400  1
  O  O97  1  0.70136550  0.59675250  0.17456600  1
  O  O98  1  0.70136550  0.40324750  0.67456600  1
  O  O99  1  0.79863450  0.90324750  0.82543400  1
  O  O100  1  0.92425500  0.23396100  0.34234500  1
  O  O101  1  0.57574500  0.73396100  0.15765500  1
  O  O102  1  0.57574500  0.26603900  0.65765500  1
  O  O103  1  0.92425500  0.76603900  0.84234500  1
  O  O104  1  0.79853150  0.36694150  0.28876400  1
  O  O105  1  0.70146850  0.86694150  0.21123600  1
  O  O106  1  0.70146850  0.13305850  0.71123600  1
  O  O107  1  0.79853150  0.63305850  0.78876400  1
  O  O108  1  0.74141400  0.57751700  0.47133300  1
  O  O109  1  0.75858600  0.07751700  0.02866700  1
  O  O110  1  0.75858600  0.92248300  0.52866700  1
  O  O111  1  0.74141400  0.42248300  0.97133300  1
  O  O112  1  0.92128700  0.01249100  0.15139900  1
  O  O113  1  0.57871300  0.51249100  0.34860100  1
  O  O114  1  0.57871300  0.48750900  0.84860100  1
  O  O115  1  0.92128700  0.98750900  0.65139900  1
  O  O116  1  0.42211150  0.93332450  0.79310900  1
  O  O117  1  0.07788850  0.43332450  0.70689100  1
  O  O118  1  0.07788850  0.56667550  0.20689100  1
  O  O119  1  0.42211150  0.06667550  0.29310900  1
  O  O120  1  0.41567600  0.89323600  0.05530900  1
  O  O121  1  0.08432400  0.39323600  0.44469100  1
  O  O122  1  0.08432400  0.60676400  0.94469100  1
  O  O123  1  0.41567600  0.10676400  0.55530900  1
  O  O124  1  0.34379750  0.73151550  0.86842000  1
  O  O125  1  0.15620250  0.23151550  0.63158000  1
  O  O126  1  0.15620250  0.76848450  0.13158000  1
  O  O127  1  0.34379750  0.26848450  0.36842000  1
  O  O128  1  0.48658350  0.71569250  0.91896100  1
  O  O129  1  0.01341650  0.21569250  0.58103900  1
  O  O130  1  0.01341650  0.78430750  0.08103900  1
  O  O131  1  0.48658350  0.28430750  0.41896100  1
  O  O132  1  0.33608650  0.76413650  0.53188600  1
  O  O133  1  0.16391350  0.26413650  0.96811400  1
  O  O134  1  0.16391350  0.73586350  0.46811400  1
  O  O135  1  0.33608650  0.23586350  0.03188600  1
  O  O136  1  0.29863450  0.59675250  0.32543400  1
  O  O137  1  0.20136550  0.09675250  0.17456600  1
  O  O138  1  0.20136550  0.90324750  0.67456600  1
  O  O139  1  0.29863450  0.40324750  0.82543400  1
  O  O140  1  0.42425500  0.73396100  0.34234500  1
  O  O141  1  0.07574500  0.23396100  0.15765500  1
  O  O142  1  0.07574500  0.76603900  0.65765500  1
  O  O143  1  0.42425500  0.26603900  0.84234500  1
  O  O144  1  0.29853150  0.86694150  0.28876400  1
  O  O145  1  0.20146850  0.36694150  0.21123600  1
  O  O146  1  0.20146850  0.63305850  0.71123600  1
  O  O147  1  0.29853150  0.13305850  0.78876400  1
  O  O148  1  0.24141400  0.07751700  0.47133300  1
  O  O149  1  0.25858600  0.57751700  0.02866700  1
  O  O150  1  0.25858600  0.42248300  0.52866700  1
  O  O151  1  0.24141400  0.92248300  0.97133300  1
  O  O152  1  0.42128700  0.51249100  0.15139900  1
  O  O153  1  0.07871300  0.01249100  0.34860100  1
  O  O154  1  0.07871300  0.98750900  0.84860100  1
  O  O155  1  0.42128700  0.48750900  0.65139900  1
