# generated using pymatgen
data_Er2Bi2O7
_symmetry_space_group_name_H-M   'P 1'
_cell_length_a   7.32961800
_cell_length_b   7.32961800
_cell_length_c   13.11885100
_cell_angle_alpha   90.00000000
_cell_angle_beta   90.00000000
_cell_angle_gamma   90.00000000
_symmetry_Int_Tables_number   1
_chemical_formula_structural   Er2Bi2O7
_chemical_formula_sum   'Er8 Bi8 O28'
_cell_volume   704.78796827
_cell_formula_units_Z   4
loop_
 _symmetry_equiv_pos_site_id
 _symmetry_equiv_pos_as_xyz
  1  'x, y, z'
loop_
 _atom_site_type_symbol
 _atom_site_label
 _atom_site_symmetry_multiplicity
 _atom_site_fract_x
 _atom_site_fract_y
 _atom_site_fract_z
 _atom_site_occupancy
  Er  Er0  1  0.15061200  0.12011800  0.64036100  1
  Er  Er1  1  0.12011800  0.84938800  0.39036100  1
  Er  Er2  1  0.37700300  0.35053800  0.85969900  1
  Er  Er3  1  0.35053800  0.62299700  0.60969900  1
  Er  Er4  1  0.64946200  0.37700300  0.10969900  1
  Er  Er5  1  0.62299700  0.64946200  0.35969900  1
  Er  Er6  1  0.87988200  0.15061200  0.89036100  1
  Er  Er7  1  0.84938800  0.87988200  0.14036100  1
  Bi  Bi8  1  0.12298500  0.38061800  0.09754900  1
  Bi  Bi9  1  0.12449400  0.38018600  0.40871700  1
  Bi  Bi10  1  0.38061800  0.87701500  0.84754900  1
  Bi  Bi11  1  0.38018600  0.87550600  0.15871700  1
  Bi  Bi12  1  0.61981400  0.12449400  0.65871700  1
  Bi  Bi13  1  0.61938200  0.12298500  0.34754900  1
  Bi  Bi14  1  0.87550600  0.61981400  0.90871700  1
  Bi  Bi15  1  0.87701500  0.61938200  0.59754900  1
  O  O16  1  0.07483800  0.40512200  0.91356000  1
  O  O17  1  0.09183300  0.81976100  0.57367500  1
  O  O18  1  0.10830200  0.41570100  0.57930100  1
  O  O19  1  0.16820700  0.11315900  0.46684700  1
  O  O20  1  0.18023900  0.09183300  0.82367500  1
  O  O21  1  0.11315900  0.83179300  0.21684700  1
  O  O22  1  0.17872200  0.31490400  0.25782100  1
  O  O23  1  0.31490400  0.82127800  0.00782100  1
  O  O24  1  0.39077300  0.32382800  0.02915500  1
  O  O25  1  0.31826000  0.58892900  0.42416800  1
  O  O26  1  0.32382800  0.60922700  0.77915500  1
  O  O27  1  0.40512200  0.92516200  0.66356000  1
  O  O28  1  0.41107100  0.31826000  0.67416800  1
  O  O29  1  0.41570100  0.89169800  0.32930100  1
  O  O30  1  0.58429900  0.10830200  0.82930100  1
  O  O31  1  0.58892900  0.68174000  0.17416800  1
  O  O32  1  0.59487800  0.07483800  0.16356000  1
  O  O33  1  0.67617200  0.39077300  0.27915500  1
  O  O34  1  0.68174000  0.41107100  0.92416800  1
  O  O35  1  0.60922700  0.67617200  0.52915500  1
  O  O36  1  0.68509600  0.17872200  0.50782100  1
  O  O37  1  0.82127800  0.68509600  0.75782100  1
  O  O38  1  0.88684100  0.16820700  0.71684700  1
  O  O39  1  0.81976100  0.90816700  0.32367500  1
  O  O40  1  0.83179300  0.88684100  0.96684700  1
  O  O41  1  0.89169800  0.58429900  0.07930100  1
  O  O42  1  0.90816700  0.18023900  0.07367500  1
  O  O43  1  0.92516200  0.59487800  0.41356000  1
