# generated using pymatgen
data_CaB2(H2O3)2
_symmetry_space_group_name_H-M   'P 1'
_cell_length_a   7.02523300
_cell_length_b   12.45747400
_cell_length_c   11.40489517
_cell_angle_alpha   90.00000000
_cell_angle_beta   120.39737878
_cell_angle_gamma   90.00000000
_symmetry_Int_Tables_number   1
_chemical_formula_structural   CaB2(H2O3)2
_chemical_formula_sum   'Ca8 B16 H32 O48'
_cell_volume   860.91378662
_cell_formula_units_Z   8
loop_
 _symmetry_equiv_pos_site_id
 _symmetry_equiv_pos_as_xyz
  1  'x, y, z'
loop_
 _atom_site_type_symbol
 _atom_site_label
 _atom_site_symmetry_multiplicity
 _atom_site_fract_x
 _atom_site_fract_y
 _atom_site_fract_z
 _atom_site_occupancy
  Ca  Ca0  1  0.41543100  0.10070900  0.63550000  1
  Ca  Ca1  1  0.58456900  0.60070900  0.86450000  1
  Ca  Ca2  1  0.06330500  0.23902900  0.26156100  1
  Ca  Ca3  1  0.93669500  0.73902900  0.23843900  1
  Ca  Ca4  1  0.06330500  0.26097100  0.76156100  1
  Ca  Ca5  1  0.93669500  0.76097100  0.73843900  1
  Ca  Ca6  1  0.41543100  0.39929100  0.13550000  1
  Ca  Ca7  1  0.58456900  0.89929100  0.36450000  1
  B  B8  1  0.80639900  0.19729100  0.90490600  1
  B  B9  1  0.55078500  0.33537100  0.73480800  1
  B  B10  1  0.34547700  0.84859700  0.52010300  1
  B  B11  1  0.65452300  0.34859700  0.97989700  1
  B  B12  1  0.44921500  0.83537100  0.76519200  1
  B  B13  1  0.07978200  0.99100200  0.33671300  1
  B  B14  1  0.92021800  0.49100200  0.16328700  1
  B  B15  1  0.19360100  0.69729100  0.59509400  1
  B  B16  1  0.80639900  0.30270900  0.40490600  1
  B  B17  1  0.07978200  0.50899800  0.83671300  1
  B  B18  1  0.92021800  0.00899800  0.66328700  1
  B  B19  1  0.55078500  0.16462900  0.23480800  1
  B  B20  1  0.34547700  0.65140300  0.02010300  1
  B  B21  1  0.65452300  0.15140300  0.47989700  1
  B  B22  1  0.44921500  0.66462900  0.26519200  1
  B  B23  1  0.19360100  0.80270900  0.09509400  1
  H  H24  1  0.48932500  0.27498600  0.51034800  1
  H  H25  1  0.78196700  0.81033100  0.91371600  1
  H  H26  1  0.22988700  0.05281200  0.23769900  1
  H  H27  1  0.24316100  0.47655300  0.29214600  1
  H  H28  1  0.06680200  0.58517500  0.08123900  1
  H  H29  1  0.42950700  0.45041800  0.58987800  1
  H  H30  1  0.98882400  0.92001300  0.09171900  1
  H  H31  1  0.35134800  0.59666000  0.53300100  1
  H  H32  1  0.64865200  0.09666000  0.96699900  1
  H  H33  1  0.57049300  0.95041800  0.91012200  1
  H  H34  1  0.21803300  0.31033100  0.58628400  1
  H  H35  1  0.51067500  0.77498600  0.98965200  1
  H  H36  1  0.01117600  0.42001300  0.40828100  1
  H  H37  1  0.22988700  0.44718800  0.73769900  1
  H  H38  1  0.93319800  0.08517500  0.41876100  1
  H  H39  1  0.24316100  0.02344700  0.79214600  1
  H  H40  1  0.75683900  0.97655300  0.20785400  1
  H  H41  1  0.06680200  0.91482500  0.58123900  1
  H  H42  1  0.77011300  0.55281200  0.26230100  1
  H  H43  1  0.98882400  0.57998700  0.59171900  1
  H  H44  1  0.48932500  0.22501400  0.01034800  1
  H  H45  1  0.78196700  0.68966900  0.41371600  1
  H  H46  1  0.42950700  0.04958200  0.08987800  1
  H  H47  1  0.35134800  0.90334000  0.03300100  1
  H  H48  1  0.64865200  0.40334000  0.46699900  1
  H  H49  1  0.01117600  0.07998700  0.90828100  1
  H  H50  1  0.57049300  0.54958200  0.41012200  1
  H  H51  1  0.93319800  0.41482500  0.91876100  1
  H  H52  1  0.75683900  0.52344700  0.70785400  1
  H  H53  1  0.77011300  0.94718800  0.76230100  1
  H  H54  1  0.21803300  0.18966900  0.08628400  1
  H  H55  1  0.51067500  0.72501400  0.48965200  1
  O  O56  1  0.71775400  0.25226300  0.77304600  1
  O  O57  1  0.44662400  0.20523000  0.46300800  1
  O  O58  1  0.55209400  0.39953600  0.62308900  1
  O  O59  1  0.67167400  0.78165400  0.82123300  1
  O  O60  1  0.13240800  0.42886500  0.22128600  1
  O  O61  1  0.27614000  0.92557100  0.40763300  1
  O  O62  1  0.65976300  0.10149700  0.88499100  1
  O  O63  1  0.97152300  0.84421500  0.06320700  1
  O  O64  1  0.59705800  0.40554300  0.85119300  1
  O  O65  1  0.07755300  0.04354300  0.21719500  1
  O  O66  1  0.40294200  0.90554300  0.64880700  1
  O  O67  1  0.92221400  0.57926100  0.07448500  1
  O  O68  1  0.34023700  0.60149700  0.61500900  1
  O  O69  1  0.82656900  0.26637400  0.01376300  1
  O  O70  1  0.32832600  0.28165400  0.67876700  1
  O  O71  1  0.17343100  0.76637400  0.48623700  1
  O  O72  1  0.44790600  0.89953600  0.87691100  1
  O  O73  1  0.07778600  0.07926100  0.42551500  1
  O  O74  1  0.28224600  0.75226300  0.72695400  1
  O  O75  1  0.92244700  0.54354300  0.28280500  1
  O  O76  1  0.02847700  0.34421500  0.43679300  1
  O  O77  1  0.44662400  0.29477000  0.96300800  1
  O  O78  1  0.72386000  0.42557100  0.09236700  1
  O  O79  1  0.86759200  0.92886500  0.27871400  1
  O  O80  1  0.13240800  0.07113500  0.72128600  1
  O  O81  1  0.27614000  0.57442900  0.90763300  1
  O  O82  1  0.55337600  0.70523000  0.03699200  1
  O  O83  1  0.97152300  0.65578500  0.56320700  1
  O  O84  1  0.07755300  0.45645700  0.71719500  1
  O  O85  1  0.71775400  0.24773700  0.27304600  1
  O  O86  1  0.92221400  0.92073900  0.57448500  1
  O  O87  1  0.55209400  0.10046400  0.12308900  1
  O  O88  1  0.82656900  0.23362600  0.51376300  1
  O  O89  1  0.67167400  0.71834600  0.32123300  1
  O  O90  1  0.17343100  0.73362600  0.98623700  1
  O  O91  1  0.65976300  0.39850300  0.38499100  1
  O  O92  1  0.07778600  0.42073900  0.92551500  1
  O  O93  1  0.59705800  0.09445700  0.35119300  1
  O  O94  1  0.92244700  0.95645700  0.78280500  1
  O  O95  1  0.40294200  0.59445700  0.14880700  1
  O  O96  1  0.02847700  0.15578500  0.93679300  1
  O  O97  1  0.34023700  0.89850300  0.11500900  1
  O  O98  1  0.72386000  0.07442900  0.59236700  1
  O  O99  1  0.86759200  0.57113500  0.77871400  1
  O  O100  1  0.32832600  0.21834600  0.17876700  1
  O  O101  1  0.44790600  0.60046400  0.37691100  1
  O  O102  1  0.55337600  0.79477000  0.53699200  1
  O  O103  1  0.28224600  0.74773700  0.22695400  1
