# generated using pymatgen
data_KLiZnS2
_symmetry_space_group_name_H-M   'P 1'
_cell_length_a   3.98042600
_cell_length_b   3.98042600
_cell_length_c   13.33576000
_cell_angle_alpha   90.00000000
_cell_angle_beta   90.00000000
_cell_angle_gamma   90.00000000
_symmetry_Int_Tables_number   1
_chemical_formula_structural   KLiZnS2
_chemical_formula_sum   'K2 Li2 Zn2 S4'
_cell_volume   211.28899615
_cell_formula_units_Z   2
loop_
 _symmetry_equiv_pos_site_id
 _symmetry_equiv_pos_as_xyz
  1  'x, y, z'
loop_
 _atom_site_type_symbol
 _atom_site_label
 _atom_site_symmetry_multiplicity
 _atom_site_fract_x
 _atom_site_fract_y
 _atom_site_fract_z
 _atom_site_occupancy
  K  K0  1  0.00000000  0.00000000  0.00000000  1
  K  K1  1  0.50000000  0.50000000  0.50000000  1
  Li  Li2  1  0.00000000  0.50000000  0.25000000  1
  Li  Li3  1  0.50000000  0.00000000  0.75000000  1
  Zn  Zn4  1  0.50000000  0.00000000  0.25000000  1
  Zn  Zn5  1  0.00000000  0.50000000  0.75000000  1
  S  S6  1  0.50000000  0.50000000  0.14814300  1
  S  S7  1  0.00000000  0.00000000  0.35185700  1
  S  S8  1  0.00000000  0.00000000  0.64814300  1
  S  S9  1  0.50000000  0.50000000  0.85185700  1
