# generated using pymatgen
data_Sn4P2O9
_symmetry_space_group_name_H-M   'P 1'
_cell_length_a   9.48306000
_cell_length_b   7.11077600
_cell_length_c   14.59487082
_cell_angle_alpha   90.00000000
_cell_angle_beta   105.42465210
_cell_angle_gamma   90.00000000
_symmetry_Int_Tables_number   1
_chemical_formula_structural   Sn4P2O9
_chemical_formula_sum   'Sn16 P8 O36'
_cell_volume   948.71168884
_cell_formula_units_Z   4
loop_
 _symmetry_equiv_pos_site_id
 _symmetry_equiv_pos_as_xyz
  1  'x, y, z'
loop_
 _atom_site_type_symbol
 _atom_site_label
 _atom_site_symmetry_multiplicity
 _atom_site_fract_x
 _atom_site_fract_y
 _atom_site_fract_z
 _atom_site_occupancy
  Sn  Sn0  1  0.96269600  0.71627500  0.14752800  1
  Sn  Sn1  1  0.96269600  0.78372500  0.64752800  1
  Sn  Sn2  1  0.67733300  0.22879300  0.17031200  1
  Sn  Sn3  1  0.71738000  0.48037400  0.38716000  1
  Sn  Sn4  1  0.68026300  0.99840600  0.40912000  1
  Sn  Sn5  1  0.67733300  0.27120700  0.67031200  1
  Sn  Sn6  1  0.71738000  0.01962600  0.88716000  1
  Sn  Sn7  1  0.68026300  0.50159400  0.90912000  1
  Sn  Sn8  1  0.31973700  0.49840600  0.09088000  1
  Sn  Sn9  1  0.28262000  0.98037400  0.11284000  1
  Sn  Sn10  1  0.32266700  0.72879300  0.32968800  1
  Sn  Sn11  1  0.31973700  0.00159400  0.59088000  1
  Sn  Sn12  1  0.28262000  0.51962600  0.61284000  1
  Sn  Sn13  1  0.32266700  0.77120700  0.82968800  1
  Sn  Sn14  1  0.03730400  0.21627500  0.35247200  1
  Sn  Sn15  1  0.03730400  0.28372500  0.85247200  1
  P  P16  1  0.96854900  0.20833500  0.09840000  1
  P  P17  1  0.96854900  0.29166500  0.59840000  1
  P  P18  1  0.63123000  0.76705000  0.18431200  1
  P  P19  1  0.63123000  0.73295000  0.68431200  1
  P  P20  1  0.36877000  0.26705000  0.31568800  1
  P  P21  1  0.36877000  0.23295000  0.81568800  1
  P  P22  1  0.03145100  0.70833500  0.40160000  1
  P  P23  1  0.03145100  0.79166500  0.90160000  1
  O  O24  1  0.92754600  0.26841200  0.19322700  1
  O  O25  1  0.96695000  0.50263200  0.38785100  1
  O  O26  1  0.82018300  0.21132100  0.02137300  1
  O  O27  1  0.91667400  0.83708100  0.42330100  1
  O  O28  1  0.74798200  0.89809600  0.15766700  1
  O  O29  1  0.92754600  0.23158800  0.69322700  1
  O  O30  1  0.76155800  0.21336600  0.32548800  1
  O  O31  1  0.96695000  0.99736800  0.88785100  1
  O  O32  1  0.70688100  0.57669800  0.22077600  1
  O  O33  1  0.82018300  0.28867900  0.52137300  1
  O  O34  1  0.91667400  0.66291900  0.92330100  1
  O  O35  1  0.74798200  0.60190400  0.65766700  1
  O  O36  1  0.57498400  0.87085000  0.26263300  1
  O  O37  1  0.49650300  0.73663900  0.09784800  1
  O  O38  1  0.76155800  0.28663400  0.82548800  1
  O  O39  1  0.70688100  0.92330200  0.72077600  1
  O  O40  1  0.50349700  0.23663900  0.40215200  1
  O  O41  1  0.42501600  0.37085000  0.23736700  1
  O  O42  1  0.57498400  0.62915000  0.76263300  1
  O  O43  1  0.49650300  0.76336100  0.59784800  1
  O  O44  1  0.29311900  0.07669800  0.27922400  1
  O  O45  1  0.23844200  0.71336600  0.17451200  1
  O  O46  1  0.50349700  0.26336100  0.90215200  1
  O  O47  1  0.42501600  0.12915000  0.73736700  1
  O  O48  1  0.25201800  0.39809600  0.34233300  1
  O  O49  1  0.08332600  0.33708100  0.07669900  1
  O  O50  1  0.17981700  0.71132100  0.47862700  1
  O  O51  1  0.29311900  0.42330200  0.77922400  1
  O  O52  1  0.03305000  0.00263200  0.11214900  1
  O  O53  1  0.23844200  0.78663400  0.67451200  1
  O  O54  1  0.07245400  0.76841200  0.30677300  1
  O  O55  1  0.25201800  0.10190400  0.84233300  1
  O  O56  1  0.08332600  0.16291900  0.57669900  1
  O  O57  1  0.17981700  0.78867900  0.97862700  1
  O  O58  1  0.03305000  0.49736800  0.61214900  1
  O  O59  1  0.07245400  0.73158800  0.80677300  1
