# generated using pymatgen
data_CeTh2O6
_symmetry_space_group_name_H-M   'P 1'
_cell_length_a   3.94039000
_cell_length_b   5.56682400
_cell_length_c   11.80511200
_cell_angle_alpha   90.00000000
_cell_angle_beta   90.00000000
_cell_angle_gamma   90.00000000
_symmetry_Int_Tables_number   1
_chemical_formula_structural   CeTh2O6
_chemical_formula_sum   'Ce2 Th4 O12'
_cell_volume   258.95053399
_cell_formula_units_Z   2
loop_
 _symmetry_equiv_pos_site_id
 _symmetry_equiv_pos_as_xyz
  1  'x, y, z'
loop_
 _atom_site_type_symbol
 _atom_site_label
 _atom_site_symmetry_multiplicity
 _atom_site_fract_x
 _atom_site_fract_y
 _atom_site_fract_z
 _atom_site_occupancy
  Ce  Ce0  1  0.50000000  0.00000000  0.00000000  1
  Ce  Ce1  1  0.00000000  0.50000000  0.50000000  1
  Th  Th2  1  0.00000000  0.50000000  0.83470500  1
  Th  Th3  1  0.50000000  0.00000000  0.66529500  1
  Th  Th4  1  0.50000000  0.00000000  0.33470500  1
  Th  Th5  1  0.00000000  0.50000000  0.16529500  1
  O  O6  1  0.50000000  0.75285900  0.83508300  1
  O  O7  1  0.00000000  0.24561800  0.00000000  1
  O  O8  1  0.50000000  0.24714100  0.83508300  1
  O  O9  1  0.00000000  0.74714100  0.66491700  1
  O  O10  1  0.00000000  0.75438200  0.00000000  1
  O  O11  1  0.00000000  0.25285900  0.66491700  1
  O  O12  1  0.00000000  0.25285900  0.33508300  1
  O  O13  1  0.50000000  0.74561800  0.50000000  1
  O  O14  1  0.00000000  0.74714100  0.33508300  1
  O  O15  1  0.50000000  0.24714100  0.16491700  1
  O  O16  1  0.50000000  0.25438200  0.50000000  1
  O  O17  1  0.50000000  0.75285900  0.16491700  1
