# generated using pymatgen
data_Y2Hf2O7
_symmetry_space_group_name_H-M   'P 1'
_cell_length_a   7.31417100
_cell_length_b   7.31417100
_cell_length_c   12.52360600
_cell_angle_alpha   90.00000000
_cell_angle_beta   90.00000000
_cell_angle_gamma   90.00000000
_symmetry_Int_Tables_number   1
_chemical_formula_structural   Y2Hf2O7
_chemical_formula_sum   'Y8 Hf8 O28'
_cell_volume   669.97657020
_cell_formula_units_Z   4
loop_
 _symmetry_equiv_pos_site_id
 _symmetry_equiv_pos_as_xyz
  1  'x, y, z'
loop_
 _atom_site_type_symbol
 _atom_site_label
 _atom_site_symmetry_multiplicity
 _atom_site_fract_x
 _atom_site_fract_y
 _atom_site_fract_z
 _atom_site_occupancy
  Y  Y0  1  0.13698300  0.62534200  0.13405800  1
  Y  Y1  1  0.12534200  0.36301700  0.88405800  1
  Y  Y2  1  0.37465800  0.86301700  0.36594200  1
  Y  Y3  1  0.36301700  0.12534200  0.11594200  1
  Y  Y4  1  0.63698300  0.87465800  0.61594200  1
  Y  Y5  1  0.62534200  0.13698300  0.86594200  1
  Y  Y6  1  0.87465800  0.63698300  0.38405800  1
  Y  Y7  1  0.86301700  0.37465800  0.63405800  1
  Hf  Hf8  1  0.09897500  0.87160700  0.59465200  1
  Hf  Hf9  1  0.12839300  0.90102500  0.90534800  1
  Hf  Hf10  1  0.37160700  0.40102500  0.34465200  1
  Hf  Hf11  1  0.40102500  0.37160700  0.65534800  1
  Hf  Hf12  1  0.59897500  0.62839300  0.15534800  1
  Hf  Hf13  1  0.62839300  0.59897500  0.84465200  1
  Hf  Hf14  1  0.87160700  0.09897500  0.40534800  1
  Hf  Hf15  1  0.90102500  0.12839300  0.09465200  1
  O  O16  1  0.06971500  0.90893100  0.41532800  1
  O  O17  1  0.08177000  0.32593500  0.07379900  1
  O  O18  1  0.09106900  0.93028500  0.08467200  1
  O  O19  1  0.15290900  0.64028300  0.95306500  1
  O  O20  1  0.17406500  0.58177000  0.32379900  1
  O  O21  1  0.14028300  0.34709100  0.70306500  1
  O  O22  1  0.14318800  0.85681200  0.75000000  1
  O  O23  1  0.35681200  0.35681200  0.50000000  1
  O  O24  1  0.35971700  0.84709100  0.54693500  1
  O  O25  1  0.32593500  0.08177000  0.92620100  1
  O  O26  1  0.34709100  0.14028300  0.29693500  1
  O  O27  1  0.40893100  0.43028500  0.16532800  1
  O  O28  1  0.41823000  0.82593500  0.17620100  1
  O  O29  1  0.43028500  0.40893100  0.83467200  1
  O  O30  1  0.56971500  0.59106900  0.33467200  1
  O  O31  1  0.58177000  0.17406500  0.67620100  1
  O  O32  1  0.59106900  0.56971500  0.66532800  1
  O  O33  1  0.65290900  0.85971700  0.79693500  1
  O  O34  1  0.67406500  0.91823000  0.42620100  1
  O  O35  1  0.64028300  0.15290900  0.04693500  1
  O  O36  1  0.64318800  0.64318800  0.00000000  1
  O  O37  1  0.85681200  0.14318800  0.25000000  1
  O  O38  1  0.85971700  0.65290900  0.20306500  1
  O  O39  1  0.82593500  0.41823000  0.82379900  1
  O  O40  1  0.84709100  0.35971700  0.45306500  1
  O  O41  1  0.90893100  0.06971500  0.58467200  1
  O  O42  1  0.91823000  0.67406500  0.57379900  1
  O  O43  1  0.93028500  0.09106900  0.91532800  1
