# generated using pymatgen
data_Li4MnSn3(PO4)4
_symmetry_space_group_name_H-M   'P 1'
_cell_length_a   4.88103872
_cell_length_b   6.79601662
_cell_length_c   11.00126268
_cell_angle_alpha   90.00000000
_cell_angle_beta   91.47691449
_cell_angle_gamma   90.00000000
_symmetry_Int_Tables_number   1
_chemical_formula_structural   Li4MnSn3(PO4)4
_chemical_formula_sum   'Li4 Mn1 Sn3 P4 O16'
_cell_volume   364.80847556
_cell_formula_units_Z   1
loop_
 _symmetry_equiv_pos_site_id
 _symmetry_equiv_pos_as_xyz
  1  'x, y, z'
loop_
 _atom_site_type_symbol
 _atom_site_label
 _atom_site_symmetry_multiplicity
 _atom_site_fract_x
 _atom_site_fract_y
 _atom_site_fract_z
 _atom_site_occupancy
  Li  Li0  1  0.96108900  0.27604800  0.99771900  1
  Li  Li1  1  0.96108900  0.72395200  0.99771900  1
  Li  Li2  1  0.50146100  0.75779800  0.50981450  1
  Li  Li3  1  0.50146100  0.24220200  0.50981450  1
  Mn  Mn4  1  0.04580200  0.00000000  0.72325600  1
  Sn  Sn5  1  0.46384450  0.00000000  0.21489450  1
  Sn  Sn6  1  0.54163200  0.50000000  0.78569400  1
  Sn  Sn7  1  0.95016800  0.50000000  0.29610350  1
  P  P8  1  0.09624100  0.50000000  0.58487850  1
  P  P9  1  0.38226050  0.50000000  0.07255450  1
  P  P10  1  0.62180150  0.00000000  0.90304100  1
  P  P11  1  0.91262450  0.00000000  0.43583900  1
  O  O12  1  0.23935850  0.50000000  0.45692200  1
  O  O13  1  0.22651250  0.00000000  0.44388000  1
  O  O14  1  0.30953050  0.00000000  0.88475500  1
  O  O15  1  0.22544950  0.50000000  0.94592550  1
  O  O16  1  0.72189050  0.00000000  0.04055250  1
  O  O17  1  0.69355700  0.50000000  0.05540800  1
  O  O18  1  0.78336950  0.50000000  0.56725750  1
  O  O19  1  0.78111400  0.00000000  0.56388400  1
  O  O20  1  0.21172650  0.31415800  0.65464400  1
  O  O21  1  0.21172650  0.68584200  0.65464400  1
  O  O22  1  0.27639400  0.31547500  0.14321950  1
  O  O23  1  0.27639400  0.68452500  0.14321950  1
  O  O24  1  0.76189750  0.81851500  0.84285150  1
  O  O25  1  0.76189750  0.18148500  0.84285150  1
  O  O26  1  0.79006950  0.81776700  0.36420800  1
  O  O27  1  0.79006950  0.18223300  0.36420800  1
