# generated using pymatgen
data_Li2BiO3
_symmetry_space_group_name_H-M   'P 1'
_cell_length_a   5.83138800
_cell_length_b   9.74569400
_cell_length_c   10.41706700
_cell_angle_alpha   90.00000000
_cell_angle_beta   98.77880805
_cell_angle_gamma   90.00000000
_symmetry_Int_Tables_number   1
_chemical_formula_structural   Li2BiO3
_chemical_formula_sum   'Li16 Bi8 O24'
_cell_volume   585.07605766
_cell_formula_units_Z   8
loop_
 _symmetry_equiv_pos_site_id
 _symmetry_equiv_pos_as_xyz
  1  'x, y, z'
loop_
 _atom_site_type_symbol
 _atom_site_label
 _atom_site_symmetry_multiplicity
 _atom_site_fract_x
 _atom_site_fract_y
 _atom_site_fract_z
 _atom_site_occupancy
  Li  Li0  1  0.19392550  0.09571350  0.99244600  1
  Li  Li1  1  0.19392550  0.90428650  0.49244600  1
  Li  Li2  1  0.75000000  0.25000000  0.00000000  1
  Li  Li3  1  0.50000000  0.74560800  0.75000000  1
  Li  Li4  1  0.50000000  0.25439200  0.25000000  1
  Li  Li5  1  0.75000000  0.75000000  0.50000000  1
  Li  Li6  1  0.80607450  0.09571350  0.50755400  1
  Li  Li7  1  0.80607450  0.90428650  0.00755400  1
  Li  Li8  1  0.69392550  0.59571350  0.99244600  1
  Li  Li9  1  0.69392550  0.40428650  0.49244600  1
  Li  Li10  1  0.25000000  0.75000000  0.00000000  1
  Li  Li11  1  0.00000000  0.24560800  0.75000000  1
  Li  Li12  1  0.00000000  0.75439200  0.25000000  1
  Li  Li13  1  0.25000000  0.25000000  0.50000000  1
  Li  Li14  1  0.30607450  0.59571350  0.50755400  1
  Li  Li15  1  0.30607450  0.40428650  0.00755400  1
  Bi  Bi16  1  0.50000000  0.07551700  0.75000000  1
  Bi  Bi17  1  0.50000000  0.41296500  0.75000000  1
  Bi  Bi18  1  0.50000000  0.58703500  0.25000000  1
  Bi  Bi19  1  0.50000000  0.92448300  0.25000000  1
  Bi  Bi20  1  0.00000000  0.57551700  0.75000000  1
  Bi  Bi21  1  0.00000000  0.91296500  0.75000000  1
  Bi  Bi22  1  0.00000000  0.08703500  0.25000000  1
  Bi  Bi23  1  0.00000000  0.42448300  0.25000000  1
  O  O24  1  0.11337150  0.07285150  0.63062000  1
  O  O25  1  0.33376100  0.90768300  0.87054200  1
  O  O26  1  0.11337150  0.92714850  0.13062000  1
  O  O27  1  0.38094750  0.26136850  0.87654100  1
  O  O28  1  0.33376100  0.09231700  0.37054200  1
  O  O29  1  0.38094750  0.73863150  0.37654100  1
  O  O30  1  0.61905250  0.26136850  0.62345900  1
  O  O31  1  0.66623900  0.90768300  0.62945800  1
  O  O32  1  0.61905250  0.73863150  0.12345900  1
  O  O33  1  0.88662850  0.07285150  0.86938000  1
  O  O34  1  0.66623900  0.09231700  0.12945800  1
  O  O35  1  0.88662850  0.92714850  0.36938000  1
  O  O36  1  0.61337150  0.57285150  0.63062000  1
  O  O37  1  0.83376100  0.40768300  0.87054200  1
  O  O38  1  0.61337150  0.42714850  0.13062000  1
  O  O39  1  0.88094750  0.76136850  0.87654100  1
  O  O40  1  0.83376100  0.59231700  0.37054200  1
  O  O41  1  0.88094750  0.23863150  0.37654100  1
  O  O42  1  0.11905250  0.76136850  0.62345900  1
  O  O43  1  0.16623900  0.40768300  0.62945800  1
  O  O44  1  0.11905250  0.23863150  0.12345900  1
  O  O45  1  0.38662850  0.57285150  0.86938000  1
  O  O46  1  0.16623900  0.59231700  0.12945800  1
  O  O47  1  0.38662850  0.42714850  0.36938000  1
