# generated using pymatgen
data_Li4V2C4SO16
_symmetry_space_group_name_H-M   'P 1'
_cell_length_a   13.21959200
_cell_length_b   13.61133800
_cell_length_c   13.67759400
_cell_angle_alpha   90.00000000
_cell_angle_beta   90.00000000
_cell_angle_gamma   90.00000000
_symmetry_Int_Tables_number   1
_chemical_formula_structural   Li4V2C4SO16
_chemical_formula_sum   'Li32 V16 C32 S8 O128'
_cell_volume   2461.09613508
_cell_formula_units_Z   8
loop_
 _symmetry_equiv_pos_site_id
 _symmetry_equiv_pos_as_xyz
  1  'x, y, z'
loop_
 _atom_site_type_symbol
 _atom_site_label
 _atom_site_symmetry_multiplicity
 _atom_site_fract_x
 _atom_site_fract_y
 _atom_site_fract_z
 _atom_site_occupancy
  Li  Li0  1  0.21318300  0.00000000  0.00000000  1
  Li  Li1  1  0.94057300  0.75000000  0.25000000  1
  Li  Li2  1  0.50000000  0.00000000  0.28638800  1
  Li  Li3  1  0.00000000  0.00000000  0.21361200  1
  Li  Li4  1  0.50000000  0.71272000  0.00000000  1
  Li  Li5  1  0.78681700  0.00000000  0.00000000  1
  Li  Li6  1  0.50000000  0.28728000  0.00000000  1
  Li  Li7  1  0.55942700  0.75000000  0.25000000  1
  Li  Li8  1  0.21318300  0.50000000  0.50000000  1
  Li  Li9  1  0.94057300  0.25000000  0.75000000  1
  Li  Li10  1  0.50000000  0.50000000  0.78638800  1
  Li  Li11  1  0.00000000  0.50000000  0.71361200  1
  Li  Li12  1  0.50000000  0.21272000  0.50000000  1
  Li  Li13  1  0.78681700  0.50000000  0.50000000  1
  Li  Li14  1  0.50000000  0.78728000  0.50000000  1
  Li  Li15  1  0.55942700  0.25000000  0.75000000  1
  Li  Li16  1  0.71318300  0.00000000  0.50000000  1
  Li  Li17  1  0.44057300  0.75000000  0.75000000  1
  Li  Li18  1  0.00000000  0.00000000  0.78638800  1
  Li  Li19  1  0.50000000  0.00000000  0.71361200  1
  Li  Li20  1  0.00000000  0.71272000  0.50000000  1
  Li  Li21  1  0.28681700  0.00000000  0.50000000  1
  Li  Li22  1  0.00000000  0.28728000  0.50000000  1
  Li  Li23  1  0.05942700  0.75000000  0.75000000  1
  Li  Li24  1  0.71318300  0.50000000  0.00000000  1
  Li  Li25  1  0.44057300  0.25000000  0.25000000  1
  Li  Li26  1  0.00000000  0.50000000  0.28638800  1
  Li  Li27  1  0.50000000  0.50000000  0.21361200  1
  Li  Li28  1  0.00000000  0.21272000  0.00000000  1
  Li  Li29  1  0.28681700  0.50000000  0.00000000  1
  Li  Li30  1  0.00000000  0.78728000  0.00000000  1
  Li  Li31  1  0.05942700  0.25000000  0.25000000  1
  V  V32  1  0.62583600  0.12502350  0.12357350  1
  V  V33  1  0.87416400  0.12502350  0.37642650  1
  V  V34  1  0.12583600  0.87497650  0.37642650  1
  V  V35  1  0.37416400  0.87497650  0.12357350  1
  V  V36  1  0.62583600  0.62502350  0.62357350  1
  V  V37  1  0.87416400  0.62502350  0.87642650  1
  V  V38  1  0.12583600  0.37497650  0.87642650  1
  V  V39  1  0.37416400  0.37497650  0.62357350  1
  V  V40  1  0.12583600  0.12502350  0.62357350  1
  V  V41  1  0.37416400  0.12502350  0.87642650  1
  V  V42  1  0.62583600  0.87497650  0.87642650  1
  V  V43  1  0.87416400  0.87497650  0.62357350  1
  V  V44  1  0.12583600  0.62502350  0.12357350  1
  V  V45  1  0.37416400  0.62502350  0.37642650  1
  V  V46  1  0.62583600  0.37497650  0.37642650  1
  V  V47  1  0.87416400  0.37497650  0.12357350  1
  C  C48  1  0.40506400  0.09169750  0.08948250  1
  C  C49  1  0.90506400  0.90830250  0.41051750  1
  C  C50  1  0.09493600  0.09169750  0.41051750  1
  C  C51  1  0.59493600  0.90830250  0.08948250  1
  C  C52  1  0.65067850  0.34339100  0.15973150  1
  C  C53  1  0.65067850  0.15660900  0.34026850  1
  C  C54  1  0.84932150  0.34339100  0.34026850  1
  C  C55  1  0.84932150  0.15660900  0.15973150  1
  C  C56  1  0.40506400  0.59169750  0.58948250  1
  C  C57  1  0.90506400  0.40830250  0.91051750  1
  C  C58  1  0.09493600  0.59169750  0.91051750  1
  C  C59  1  0.59493600  0.40830250  0.58948250  1
  C  C60  1  0.65067850  0.84339100  0.65973150  1
  C  C61  1  0.65067850  0.65660900  0.84026850  1
  C  C62  1  0.84932150  0.84339100  0.84026850  1
  C  C63  1  0.84932150  0.65660900  0.65973150  1
  C  C64  1  0.90506400  0.09169750  0.58948250  1
  C  C65  1  0.40506400  0.90830250  0.91051750  1
  C  C66  1  0.59493600  0.09169750  0.91051750  1
  C  C67  1  0.09493600  0.90830250  0.58948250  1
  C  C68  1  0.15067850  0.34339100  0.65973150  1
  C  C69  1  0.15067850  0.15660900  0.84026850  1
  C  C70  1  0.34932150  0.34339100  0.84026850  1
  C  C71  1  0.34932150  0.15660900  0.65973150  1
  C  C72  1  0.90506400  0.59169750  0.08948250  1
  C  C73  1  0.40506400  0.40830250  0.41051750  1
  C  C74  1  0.59493600  0.59169750  0.41051750  1
  C  C75  1  0.09493600  0.40830250  0.08948250  1
  C  C76  1  0.15067850  0.84339100  0.15973150  1
  C  C77  1  0.15067850  0.65660900  0.34026850  1
  C  C78  1  0.34932150  0.84339100  0.34026850  1
  C  C79  1  0.34932150  0.65660900  0.15973150  1
  S  S80  1  0.00000000  0.00000000  0.00000000  1
  S  S81  1  0.75000000  0.75000000  0.25000000  1
  S  S82  1  0.00000000  0.50000000  0.50000000  1
  S  S83  1  0.75000000  0.25000000  0.75000000  1
  S  S84  1  0.50000000  0.00000000  0.50000000  1
  S  S85  1  0.25000000  0.75000000  0.75000000  1
  S  S86  1  0.50000000  0.50000000  0.00000000  1
  S  S87  1  0.25000000  0.25000000  0.25000000  1
  O  O88  1  0.63726550  0.09630450  0.26796300  1
  O  O89  1  0.34253450  0.02033350  0.09401000  1
  O  O90  1  0.84253450  0.97966650  0.40599000  1
  O  O91  1  0.86273450  0.09630450  0.23203700  1
  O  O92  1  0.90035150  0.84467500  0.48147850  1
  O  O93  1  0.93452200  0.93650500  0.06330400  1
  O  O94  1  0.93452200  0.56349500  0.43669600  1
  O  O95  1  0.47565850  0.10191650  0.15539800  1
  O  O96  1  0.97565850  0.89808350  0.34460200  1
  O  O97  1  0.02434150  0.10191650  0.34460200  1
  O  O98  1  0.52434150  0.89808350  0.15539800  1
  O  O99  1  0.56547800  0.56349500  0.06330400  1
  O  O100  1  0.56547800  0.93650500  0.43669600  1
  O  O101  1  0.58659400  0.22733750  0.35479950  1
  O  O102  1  0.58659400  0.27266250  0.14520050  1
  O  O103  1  0.59964850  0.84467500  0.01852150  1
  O  O104  1  0.63726550  0.40369550  0.23203700  1
  O  O105  1  0.15746550  0.02033350  0.40599000  1
  O  O106  1  0.65746550  0.97966650  0.09401000  1
  O  O107  1  0.68108550  0.81173750  0.31194100  1
  O  O108  1  0.68108550  0.68826250  0.18805900  1
  O  O109  1  0.72543900  0.35668150  0.10091650  1
  O  O110  1  0.72543900  0.14331850  0.39908350  1
  O  O111  1  0.77456100  0.14331850  0.10091650  1
  O  O112  1  0.77456100  0.35668150  0.39908350  1
  O  O113  1  0.81891450  0.68826250  0.31194100  1
  O  O114  1  0.81891450  0.81173750  0.18805900  1
  O  O115  1  0.86273450  0.40369550  0.26796300  1
  O  O116  1  0.40035150  0.15532500  0.01852150  1
  O  O117  1  0.91340600  0.27266250  0.35479950  1
  O  O118  1  0.91340600  0.22733750  0.14520050  1
  O  O119  1  0.09964850  0.15532500  0.48147850  1
  O  O120  1  0.63726550  0.59630450  0.76796300  1
  O  O121  1  0.34253450  0.52033350  0.59401000  1
  O  O122  1  0.84253450  0.47966650  0.90599000  1
  O  O123  1  0.86273450  0.59630450  0.73203700  1
  O  O124  1  0.90035150  0.34467500  0.98147850  1
  O  O125  1  0.93452200  0.43650500  0.56330400  1
  O  O126  1  0.93452200  0.06349500  0.93669600  1
  O  O127  1  0.47565850  0.60191650  0.65539800  1
  O  O128  1  0.97565850  0.39808350  0.84460200  1
  O  O129  1  0.02434150  0.60191650  0.84460200  1
  O  O130  1  0.52434150  0.39808350  0.65539800  1
  O  O131  1  0.56547800  0.06349500  0.56330400  1
  O  O132  1  0.56547800  0.43650500  0.93669600  1
  O  O133  1  0.58659400  0.72733750  0.85479950  1
  O  O134  1  0.58659400  0.77266250  0.64520050  1
  O  O135  1  0.59964850  0.34467500  0.51852150  1
  O  O136  1  0.63726550  0.90369550  0.73203700  1
  O  O137  1  0.15746550  0.52033350  0.90599000  1
  O  O138  1  0.65746550  0.47966650  0.59401000  1
  O  O139  1  0.68108550  0.31173750  0.81194100  1
  O  O140  1  0.68108550  0.18826250  0.68805900  1
  O  O141  1  0.72543900  0.85668150  0.60091650  1
  O  O142  1  0.72543900  0.64331850  0.89908350  1
  O  O143  1  0.77456100  0.64331850  0.60091650  1
  O  O144  1  0.77456100  0.85668150  0.89908350  1
  O  O145  1  0.81891450  0.18826250  0.81194100  1
  O  O146  1  0.81891450  0.31173750  0.68805900  1
  O  O147  1  0.86273450  0.90369550  0.76796300  1
  O  O148  1  0.40035150  0.65532500  0.51852150  1
  O  O149  1  0.91340600  0.77266250  0.85479950  1
  O  O150  1  0.91340600  0.72733750  0.64520050  1
  O  O151  1  0.09964850  0.65532500  0.98147850  1
  O  O152  1  0.13726550  0.09630450  0.76796300  1
  O  O153  1  0.84253450  0.02033350  0.59401000  1
  O  O154  1  0.34253450  0.97966650  0.90599000  1
  O  O155  1  0.36273450  0.09630450  0.73203700  1
  O  O156  1  0.40035150  0.84467500  0.98147850  1
  O  O157  1  0.43452200  0.93650500  0.56330400  1
  O  O158  1  0.43452200  0.56349500  0.93669600  1
  O  O159  1  0.97565850  0.10191650  0.65539800  1
  O  O160  1  0.47565850  0.89808350  0.84460200  1
  O  O161  1  0.52434150  0.10191650  0.84460200  1
  O  O162  1  0.02434150  0.89808350  0.65539800  1
  O  O163  1  0.06547800  0.56349500  0.56330400  1
  O  O164  1  0.06547800  0.93650500  0.93669600  1
  O  O165  1  0.08659400  0.22733750  0.85479950  1
  O  O166  1  0.08659400  0.27266250  0.64520050  1
  O  O167  1  0.09964850  0.84467500  0.51852150  1
  O  O168  1  0.13726550  0.40369550  0.73203700  1
  O  O169  1  0.65746550  0.02033350  0.90599000  1
  O  O170  1  0.15746550  0.97966650  0.59401000  1
  O  O171  1  0.18108550  0.81173750  0.81194100  1
  O  O172  1  0.18108550  0.68826250  0.68805900  1
  O  O173  1  0.22543900  0.35668150  0.60091650  1
  O  O174  1  0.22543900  0.14331850  0.89908350  1
  O  O175  1  0.27456100  0.14331850  0.60091650  1
  O  O176  1  0.27456100  0.35668150  0.89908350  1
  O  O177  1  0.31891450  0.68826250  0.81194100  1
  O  O178  1  0.31891450  0.81173750  0.68805900  1
  O  O179  1  0.36273450  0.40369550  0.76796300  1
  O  O180  1  0.90035150  0.15532500  0.51852150  1
  O  O181  1  0.41340600  0.27266250  0.85479950  1
  O  O182  1  0.41340600  0.22733750  0.64520050  1
  O  O183  1  0.59964850  0.15532500  0.98147850  1
  O  O184  1  0.13726550  0.59630450  0.26796300  1
  O  O185  1  0.84253450  0.52033350  0.09401000  1
  O  O186  1  0.34253450  0.47966650  0.40599000  1
  O  O187  1  0.36273450  0.59630450  0.23203700  1
  O  O188  1  0.40035150  0.34467500  0.48147850  1
  O  O189  1  0.43452200  0.43650500  0.06330400  1
  O  O190  1  0.43452200  0.06349500  0.43669600  1
  O  O191  1  0.97565850  0.60191650  0.15539800  1
  O  O192  1  0.47565850  0.39808350  0.34460200  1
  O  O193  1  0.52434150  0.60191650  0.34460200  1
  O  O194  1  0.02434150  0.39808350  0.15539800  1
  O  O195  1  0.06547800  0.06349500  0.06330400  1
  O  O196  1  0.06547800  0.43650500  0.43669600  1
  O  O197  1  0.08659400  0.72733750  0.35479950  1
  O  O198  1  0.08659400  0.77266250  0.14520050  1
  O  O199  1  0.09964850  0.34467500  0.01852150  1
  O  O200  1  0.13726550  0.90369550  0.23203700  1
  O  O201  1  0.65746550  0.52033350  0.40599000  1
  O  O202  1  0.15746550  0.47966650  0.09401000  1
  O  O203  1  0.18108550  0.31173750  0.31194100  1
  O  O204  1  0.18108550  0.18826250  0.18805900  1
  O  O205  1  0.22543900  0.85668150  0.10091650  1
  O  O206  1  0.22543900  0.64331850  0.39908350  1
  O  O207  1  0.27456100  0.64331850  0.10091650  1
  O  O208  1  0.27456100  0.85668150  0.39908350  1
  O  O209  1  0.31891450  0.18826250  0.31194100  1
  O  O210  1  0.31891450  0.31173750  0.18805900  1
  O  O211  1  0.36273450  0.90369550  0.26796300  1
  O  O212  1  0.90035150  0.65532500  0.01852150  1
  O  O213  1  0.41340600  0.77266250  0.35479950  1
  O  O214  1  0.41340600  0.72733750  0.14520050  1
  O  O215  1  0.59964850  0.65532500  0.48147850  1
