# generated using pymatgen
data_Rb4I2O
_symmetry_space_group_name_H-M   'P 1'
_cell_length_a   5.65550800
_cell_length_b   5.65550800
_cell_length_c   18.57265000
_cell_angle_alpha   90.00000000
_cell_angle_beta   90.00000000
_cell_angle_gamma   90.00000000
_symmetry_Int_Tables_number   1
_chemical_formula_structural   Rb4I2O
_chemical_formula_sum   'Rb8 I4 O2'
_cell_volume   594.04195225
_cell_formula_units_Z   2
loop_
 _symmetry_equiv_pos_site_id
 _symmetry_equiv_pos_as_xyz
  1  'x, y, z'
loop_
 _atom_site_type_symbol
 _atom_site_label
 _atom_site_symmetry_multiplicity
 _atom_site_fract_x
 _atom_site_fract_y
 _atom_site_fract_z
 _atom_site_occupancy
  Rb  Rb0  1  0.00000000  0.50000000  0.00000000  1
  Rb  Rb1  1  0.00000000  0.00000000  0.14670600  1
  Rb  Rb2  1  0.50000000  0.50000000  0.35329400  1
  Rb  Rb3  1  0.50000000  0.00000000  0.00000000  1
  Rb  Rb4  1  0.50000000  0.00000000  0.50000000  1
  Rb  Rb5  1  0.50000000  0.50000000  0.64670600  1
  Rb  Rb6  1  0.00000000  0.00000000  0.85329400  1
  Rb  Rb7  1  0.00000000  0.50000000  0.50000000  1
  I  I8  1  0.00000000  0.00000000  0.35490900  1
  I  I9  1  0.50000000  0.50000000  0.14509100  1
  I  I10  1  0.50000000  0.50000000  0.85490900  1
  I  I11  1  0.00000000  0.00000000  0.64509100  1
  O  O12  1  0.00000000  0.00000000  0.00000000  1
  O  O13  1  0.50000000  0.50000000  0.50000000  1
