# generated using pymatgen
data_KUP(H2O3)3
_symmetry_space_group_name_H-M   'P 1'
_cell_length_a   7.08863600
_cell_length_b   7.12814000
_cell_length_c   18.07864700
_cell_angle_alpha   90.00000000
_cell_angle_beta   90.00000000
_cell_angle_gamma   90.00000000
_symmetry_Int_Tables_number   1
_chemical_formula_structural   KUP(H2O3)3
_chemical_formula_sum   'K4 U4 P4 H24 O36'
_cell_volume   913.49215444
_cell_formula_units_Z   4
loop_
 _symmetry_equiv_pos_site_id
 _symmetry_equiv_pos_as_xyz
  1  'x, y, z'
loop_
 _atom_site_type_symbol
 _atom_site_label
 _atom_site_symmetry_multiplicity
 _atom_site_fract_x
 _atom_site_fract_y
 _atom_site_fract_z
 _atom_site_occupancy
  K  K0  1  0.02514800  0.64435500  0.18132800  1
  K  K1  1  0.97485200  0.14435500  0.81867200  1
  K  K2  1  0.52514800  0.14435500  0.31867200  1
  K  K3  1  0.47485200  0.64435500  0.68132800  1
  U  U4  1  0.74878300  0.74467900  0.44984200  1
  U  U5  1  0.25121700  0.24467900  0.55015800  1
  U  U6  1  0.24878300  0.24467900  0.05015800  1
  U  U7  1  0.75121700  0.74467900  0.94984200  1
  P  P8  1  0.74917900  0.24646700  0.50065700  1
  P  P9  1  0.25082100  0.74646700  0.49934300  1
  P  P10  1  0.24917900  0.74646700  0.99934300  1
  P  P11  1  0.75082100  0.24646700  0.00065700  1
  H  H12  1  0.53546100  0.71252400  0.18573400  1
  H  H13  1  0.46453900  0.21252400  0.81426600  1
  H  H14  1  0.03546100  0.21252400  0.31426600  1
  H  H15  1  0.96453900  0.71252400  0.68573400  1
  H  H16  1  0.70824200  0.95478800  0.18207600  1
  H  H17  1  0.29175800  0.45478800  0.81792400  1
  H  H18  1  0.20824200  0.45478800  0.31792400  1
  H  H19  1  0.79175800  0.95478800  0.68207600  1
  H  H20  1  0.42793900  0.85697400  0.13693900  1
  H  H21  1  0.57206100  0.35697400  0.86306100  1
  H  H22  1  0.92793900  0.35697400  0.36306100  1
  H  H23  1  0.07206100  0.85697400  0.63693900  1
  H  H24  1  0.64204900  0.40692400  0.14373900  1
  H  H25  1  0.35795100  0.90692400  0.85626100  1
  H  H26  1  0.14204900  0.90692400  0.35626100  1
  H  H27  1  0.85795100  0.40692400  0.64373900  1
  H  H28  1  0.85837100  0.09453600  0.14963000  1
  H  H29  1  0.14162900  0.59453600  0.85037000  1
  H  H30  1  0.35837100  0.59453600  0.35037000  1
  H  H31  1  0.64162900  0.09453600  0.64963000  1
  H  H32  1  0.63653900  0.44711800  0.22928000  1
  H  H33  1  0.36346100  0.94711800  0.77072000  1
  H  H34  1  0.13653900  0.94711800  0.27072000  1
  H  H35  1  0.86346100  0.44711800  0.72928000  1
  O  O36  1  0.75039100  0.75386200  0.34919500  1
  O  O37  1  0.24960900  0.25386200  0.65080500  1
  O  O38  1  0.25039100  0.25386200  0.15080500  1
  O  O39  1  0.74960900  0.75386200  0.84919500  1
  O  O40  1  0.74195900  0.73703400  0.55030100  1
  O  O41  1  0.25804100  0.23703400  0.44969900  1
  O  O42  1  0.24195900  0.23703400  0.94969900  1
  O  O43  1  0.75804100  0.73703400  0.05030100  1
  O  O44  1  0.74750800  0.41818900  0.44752500  1
  O  O45  1  0.25249200  0.91818900  0.55247500  1
  O  O46  1  0.24750800  0.91818900  0.05247500  1
  O  O47  1  0.75249200  0.41818900  0.94752500  1
  O  O48  1  0.42506400  0.74943300  0.44719600  1
  O  O49  1  0.57493600  0.24943300  0.55280400  1
  O  O50  1  0.92506400  0.24943300  0.05280400  1
  O  O51  1  0.07493600  0.74943300  0.94719600  1
  O  O52  1  0.07342500  0.75115200  0.44895000  1
  O  O53  1  0.92657500  0.25115200  0.55105000  1
  O  O54  1  0.57342500  0.25115200  0.05105000  1
  O  O55  1  0.42657500  0.75115200  0.94895000  1
  O  O56  1  0.74820500  0.06784600  0.45171400  1
  O  O57  1  0.25179500  0.56784600  0.54828600  1
  O  O58  1  0.24820500  0.56784600  0.04828600  1
  O  O59  1  0.75179500  0.06784600  0.95171400  1
  O  O60  1  0.48444200  0.84204200  0.18604900  1
  O  O61  1  0.51555800  0.34204200  0.81395100  1
  O  O62  1  0.98444200  0.34204200  0.31395100  1
  O  O63  1  0.01555800  0.84204200  0.68604900  1
  O  O64  1  0.67453300  0.49948700  0.18201800  1
  O  O65  1  0.32546700  0.99948700  0.81798200  1
  O  O66  1  0.17453300  0.99948700  0.31798200  1
  O  O67  1  0.82546700  0.49948700  0.68201800  1
  O  O68  1  0.83185200  0.01559000  0.19268300  1
  O  O69  1  0.16814800  0.51559000  0.80731700  1
  O  O70  1  0.33185200  0.51559000  0.30731700  1
  O  O71  1  0.66814800  0.01559000  0.69268300  1
