# generated using pymatgen
data_Li4FeO3F
_symmetry_space_group_name_H-M   'P 1'
_cell_length_a   7.29206100
_cell_length_b   8.04036100
_cell_length_c   6.41341300
_cell_angle_alpha   90.00000000
_cell_angle_beta   90.00000000
_cell_angle_gamma   90.00000000
_symmetry_Int_Tables_number   1
_chemical_formula_structural   Li4FeO3F
_chemical_formula_sum   'Li16 Fe4 O12 F4'
_cell_volume   376.02355335
_cell_formula_units_Z   4
loop_
 _symmetry_equiv_pos_site_id
 _symmetry_equiv_pos_as_xyz
  1  'x, y, z'
loop_
 _atom_site_type_symbol
 _atom_site_label
 _atom_site_symmetry_multiplicity
 _atom_site_fract_x
 _atom_site_fract_y
 _atom_site_fract_z
 _atom_site_occupancy
  Li  Li0  1  0.00664200  0.83554050  0.50245700  1
  Li  Li1  1  0.99335800  0.83554050  0.00245700  1
  Li  Li2  1  0.99335800  0.16445950  0.00245700  1
  Li  Li3  1  0.00664200  0.16445950  0.50245700  1
  Li  Li4  1  0.23251900  0.65249650  0.76265750  1
  Li  Li5  1  0.76748100  0.65249650  0.26265750  1
  Li  Li6  1  0.76748100  0.34750350  0.26265750  1
  Li  Li7  1  0.23251900  0.34750350  0.76265750  1
  Li  Li8  1  0.50664200  0.33554050  0.50245700  1
  Li  Li9  1  0.49335800  0.33554050  0.00245700  1
  Li  Li10  1  0.49335800  0.66445950  0.00245700  1
  Li  Li11  1  0.50664200  0.66445950  0.50245700  1
  Li  Li12  1  0.73251900  0.15249650  0.76265750  1
  Li  Li13  1  0.26748100  0.15249650  0.26265750  1
  Li  Li14  1  0.26748100  0.84750350  0.26265750  1
  Li  Li15  1  0.73251900  0.84750350  0.76265750  1
  Fe  Fe16  1  0.85361900  0.50000000  0.72350000  1
  Fe  Fe17  1  0.14638100  0.50000000  0.22350000  1
  Fe  Fe18  1  0.35361900  0.00000000  0.72350000  1
  Fe  Fe19  1  0.64638100  0.00000000  0.22350000  1
  O  O20  1  0.29885500  0.50000000  0.98988050  1
  O  O21  1  0.70114500  0.50000000  0.48988050  1
  O  O22  1  0.96862550  0.70690950  0.75025600  1
  O  O23  1  0.03137450  0.70690950  0.25025600  1
  O  O24  1  0.03137450  0.29309050  0.25025600  1
  O  O25  1  0.96862550  0.29309050  0.75025600  1
  O  O26  1  0.79885500  0.00000000  0.98988050  1
  O  O27  1  0.20114500  0.00000000  0.48988050  1
  O  O28  1  0.46862550  0.20690950  0.75025600  1
  O  O29  1  0.53137450  0.20690950  0.25025600  1
  O  O30  1  0.53137450  0.79309050  0.25025600  1
  O  O31  1  0.46862550  0.79309050  0.75025600  1
  F  F32  1  0.70545150  0.50000000  0.00587700  1
  F  F33  1  0.29454850  0.50000000  0.50587700  1
  F  F34  1  0.20545150  0.00000000  0.00587700  1
  F  F35  1  0.79454850  0.00000000  0.50587700  1
