# generated using pymatgen
data_LiBi(PO3)4
_symmetry_space_group_name_H-M   'P 1'
_cell_length_a   6.98220000
_cell_length_b   9.23790800
_cell_length_c   7.55812993
_cell_angle_alpha   90.00000000
_cell_angle_beta   94.18188825
_cell_angle_gamma   90.00000000
_symmetry_Int_Tables_number   1
_chemical_formula_structural   LiBi(PO3)4
_chemical_formula_sum   'Li2 Bi2 P8 O24'
_cell_volume   486.20839580
_cell_formula_units_Z   2
loop_
 _symmetry_equiv_pos_site_id
 _symmetry_equiv_pos_as_xyz
  1  'x, y, z'
loop_
 _atom_site_type_symbol
 _atom_site_label
 _atom_site_symmetry_multiplicity
 _atom_site_fract_x
 _atom_site_fract_y
 _atom_site_fract_z
 _atom_site_occupancy
  Li  Li0  1  0.21772500  0.02191400  0.78526500  1
  Li  Li1  1  0.78227500  0.52191400  0.21473500  1
  Bi  Bi2  1  0.24397700  0.36402300  0.26835400  1
  Bi  Bi3  1  0.75602300  0.86402300  0.73164600  1
  P  P4  1  0.99278000  0.36072200  0.57945600  1
  P  P5  1  0.09783100  0.56181200  0.87905000  1
  P  P6  1  0.39473300  0.73018700  0.40717400  1
  P  P7  1  0.45146900  0.39070000  0.91121600  1
  P  P8  1  0.54853100  0.89070000  0.08878400  1
  P  P9  1  0.60526700  0.23018700  0.59282600  1
  P  P10  1  0.90216900  0.06181200  0.12095000  1
  P  P11  1  0.00722000  0.86072200  0.42054400  1
  O  O12  1  0.02375700  0.94029100  0.23510700  1
  O  O13  1  0.06771600  0.53038000  0.07187800  1
  O  O14  1  0.04985800  0.96061500  0.57758000  1
  O  O15  1  0.03853100  0.70797300  0.80821500  1
  O  O16  1  0.16481700  0.73953900  0.40061800  1
  O  O17  1  0.18314600  0.28450300  0.56900600  1
  O  O18  1  0.31707500  0.52848700  0.83707200  1
  O  O19  1  0.31781300  0.27291200  0.96993400  1
  O  O20  1  0.46927700  0.77796600  0.58931200  1
  O  O21  1  0.44320000  0.85066800  0.26297600  1
  O  O22  1  0.40432600  0.94487300  0.94996100  1
  O  O23  1  0.43532500  0.57914400  0.34519300  1
  O  O24  1  0.56467500  0.07914400  0.65480700  1
  O  O25  1  0.59567400  0.44487300  0.05003900  1
  O  O26  1  0.55680000  0.35066800  0.73702400  1
  O  O27  1  0.53072300  0.27796600  0.41068800  1
  O  O28  1  0.68218700  0.77291200  0.03006600  1
  O  O29  1  0.68292500  0.02848700  0.16292800  1
  O  O30  1  0.81685400  0.78450300  0.43099400  1
  O  O31  1  0.83518300  0.23953900  0.59938200  1
  O  O32  1  0.96146900  0.20797300  0.19178500  1
  O  O33  1  0.95014200  0.46061500  0.42242000  1
  O  O34  1  0.93228400  0.03038000  0.92812200  1
  O  O35  1  0.97624300  0.44029100  0.76489300  1
