# generated using pymatgen
data_Nb12WO33
_symmetry_space_group_name_H-M   'P 1'
_cell_length_a   3.87321100
_cell_length_b   11.56273664
_cell_length_c   15.35099545
_cell_angle_alpha   83.62922623
_cell_angle_beta   82.78240042
_cell_angle_gamma   80.44797136
_symmetry_Int_Tables_number   1
_chemical_formula_structural   Nb12WO33
_chemical_formula_sum   'Nb12 W1 O33'
_cell_volume   669.72986393
_cell_formula_units_Z   1
loop_
 _symmetry_equiv_pos_site_id
 _symmetry_equiv_pos_as_xyz
  1  'x, y, z'
loop_
 _atom_site_type_symbol
 _atom_site_label
 _atom_site_symmetry_multiplicity
 _atom_site_fract_x
 _atom_site_fract_y
 _atom_site_fract_z
 _atom_site_occupancy
  Nb  Nb0  1  0.24869700  0.63878700  0.86138100  1
  Nb  Nb1  1  0.62590800  0.68918600  0.04585400  1
  Nb  Nb2  1  0.42273400  0.54523300  0.61798300  1
  Nb  Nb3  1  0.36426400  0.31081800  0.95357700  1
  Nb  Nb4  1  0.87754400  0.03158100  0.23245500  1
  Nb  Nb5  1  0.55979200  0.45422000  0.37999900  1
  Nb  Nb6  1  0.13740500  0.96867700  0.76683300  1
  Nb  Nb7  1  0.29722300  0.87558400  0.52699200  1
  Nb  Nb8  1  0.53602500  0.21652300  0.71194600  1
  Nb  Nb9  1  0.69987400  0.12498000  0.47221600  1
  Nb  Nb10  1  0.46743600  0.78412700  0.28760300  1
  Nb  Nb11  1  0.75385000  0.36117400  0.13735400  1
  W  W12  1  0.75381200  0.99998400  0.99973700  1
  O  O13  1  0.77628700  0.92401900  0.51929800  1
  O  O14  1  0.54642000  0.74507200  0.15538300  1
  O  O15  1  0.69841500  0.52595100  0.08165900  1
  O  O16  1  0.82460700  0.18447900  0.17836300  1
  O  O17  1  0.42361100  0.13008200  0.01204400  1
  O  O18  1  0.05088900  0.17252000  0.72850300  1
  O  O19  1  0.35295100  0.72037600  0.57443100  1
  O  O20  1  0.37538100  0.83879100  0.40408600  1
  O  O21  1  0.72400300  0.65327600  0.89534100  1
  O  O22  1  0.08814400  0.45240500  0.37165900  1
  O  O23  1  0.39775800  0.98041600  0.23290600  1
  O  O24  1  0.62199100  0.16400300  0.59450500  1
  O  O25  1  0.32748500  0.59781900  0.74899500  1
  O  O26  1  0.85063600  0.30679700  0.99093200  1
  O  O27  1  0.18108000  0.81586800  0.82055300  1
  O  O28  1  0.30223300  0.47363700  0.91733600  1
  O  O29  1  0.95222900  0.82795000  0.27054200  1
  O  O30  1  0.22106400  0.07689500  0.47970500  1
  O  O31  1  0.56796400  0.86967600  0.98777700  1
  O  O32  1  0.96845300  0.97194800  0.09985800  1
  O  O33  1  0.52803900  0.62497800  0.32544600  1
  O  O34  1  0.64757600  0.27916600  0.42247600  1
  O  O35  1  0.20448400  0.93498300  0.64982100  1
  O  O36  1  0.79471000  0.06507200  0.34921900  1
  O  O37  1  0.60834100  0.02003200  0.76601300  1
  O  O38  1  0.91258600  0.54942100  0.62579000  1
  O  O39  1  0.47312900  0.37604700  0.67594000  1
  O  O40  1  0.45369400  0.25402800  0.84444200  1
  O  O41  1  0.67803400  0.40239000  0.24988200  1
  O  O42  1  0.03928800  0.02782400  0.89950200  1
  O  O43  1  0.27695700  0.34704900  0.10343300  1
  O  O44  1  0.50305900  0.49635500  0.50027100  1
  O  O45  1  0.14779600  0.69239700  0.00868200  1
