# generated using pymatgen
data_Na14Ni2O9
_symmetry_space_group_name_H-M   'P 1'
_cell_length_a   6.65670348
_cell_length_b   6.65670348
_cell_length_c   9.37758237
_cell_angle_alpha   90.00000000
_cell_angle_beta   90.00000000
_cell_angle_gamma   120.00000000
_symmetry_Int_Tables_number   1
_chemical_formula_structural   Na14Ni2O9
_chemical_formula_sum   'Na14 Ni2 O9'
_cell_volume   359.86527589
_cell_formula_units_Z   1
loop_
 _symmetry_equiv_pos_site_id
 _symmetry_equiv_pos_as_xyz
  1  'x, y, z'
loop_
 _atom_site_type_symbol
 _atom_site_label
 _atom_site_symmetry_multiplicity
 _atom_site_fract_x
 _atom_site_fract_y
 _atom_site_fract_z
 _atom_site_occupancy
  Na  Na0  1  0.00000000  0.00000000  0.25072200  1
  Na  Na1  1  0.00000000  0.00000000  0.74927800  1
  Na  Na2  1  0.35979650  0.03722600  0.90799500  1
  Na  Na3  1  0.96277400  0.32257050  0.90799500  1
  Na  Na4  1  0.67742950  0.64020350  0.90799500  1
  Na  Na5  1  0.32257050  0.35979650  0.09200500  1
  Na  Na6  1  0.03722600  0.67742950  0.09200500  1
  Na  Na7  1  0.64020350  0.96277400  0.09200500  1
  Na  Na8  1  0.37563550  0.31299750  0.59242400  1
  Na  Na9  1  0.68700250  0.06263800  0.59242400  1
  Na  Na10  1  0.06263800  0.37563550  0.40757600  1
  Na  Na11  1  0.93736200  0.62436450  0.59242400  1
  Na  Na12  1  0.31299750  0.93736200  0.40757600  1
  Na  Na13  1  0.62436450  0.68700250  0.40757600  1
  Ni  Ni14  1  0.66666667  0.33333333  0.26213500  1
  Ni  Ni15  1  0.33333333  0.66666667  0.73786500  1
  O  O16  1  0.00000000  0.00000000  0.00000000  1
  O  O17  1  0.66666667  0.33333333  0.04287100  1
  O  O18  1  0.33333333  0.66666667  0.95712900  1
  O  O19  1  0.36373350  0.30832850  0.33575500  1
  O  O20  1  0.69167150  0.05540500  0.33575500  1
  O  O21  1  0.05540500  0.36373350  0.66424500  1
  O  O22  1  0.94459500  0.63626650  0.33575500  1
  O  O23  1  0.30832850  0.94459500  0.66424500  1
  O  O24  1  0.63626650  0.69167150  0.66424500  1
