# generated using pymatgen
data_Ti3N2O3
_symmetry_space_group_name_H-M   'P 1'
_cell_length_a   9.76527000
_cell_length_b   3.85794600
_cell_length_c   9.91043840
_cell_angle_alpha   90.00000000
_cell_angle_beta   90.52079178
_cell_angle_gamma   90.00000000
_symmetry_Int_Tables_number   1
_chemical_formula_structural   Ti3N2O3
_chemical_formula_sum   'Ti12 N8 O12'
_cell_volume   373.34928631
_cell_formula_units_Z   4
loop_
 _symmetry_equiv_pos_site_id
 _symmetry_equiv_pos_as_xyz
  1  'x, y, z'
loop_
 _atom_site_type_symbol
 _atom_site_label
 _atom_site_symmetry_multiplicity
 _atom_site_fract_x
 _atom_site_fract_y
 _atom_site_fract_z
 _atom_site_occupancy
  Ti  Ti0  1  0.85303400  0.00000000  0.43468000  1
  Ti  Ti1  1  0.85338600  0.00000000  0.05888900  1
  Ti  Ti2  1  0.79866500  0.00000000  0.75108100  1
  Ti  Ti3  1  0.70144100  0.50000000  0.24242400  1
  Ti  Ti4  1  0.64165100  0.50000000  0.94440100  1
  Ti  Ti5  1  0.63351600  0.50000000  0.55967300  1
  Ti  Ti6  1  0.35303400  0.50000000  0.43468000  1
  Ti  Ti7  1  0.35338600  0.50000000  0.05888900  1
  Ti  Ti8  1  0.29866500  0.50000000  0.75108100  1
  Ti  Ti9  1  0.20144100  0.00000000  0.24242400  1
  Ti  Ti10  1  0.14165100  0.00000000  0.94440100  1
  Ti  Ti11  1  0.13351600  0.00000000  0.55967300  1
  N  N12  1  0.69361700  0.00000000  0.57228400  1
  N  N13  1  0.69016400  0.00000000  0.92199500  1
  N  N14  1  0.76382000  0.00000000  0.25468700  1
  N  N15  1  0.80785400  0.50000000  0.07312500  1
  N  N16  1  0.19361700  0.50000000  0.57228400  1
  N  N17  1  0.19016400  0.50000000  0.92199500  1
  N  N18  1  0.26382000  0.50000000  0.25468700  1
  N  N19  1  0.30785400  0.00000000  0.07312500  1
  O  O20  1  0.95345900  0.00000000  0.88184800  1
  O  O21  1  0.95662500  0.00000000  0.62235000  1
  O  O22  1  0.54679300  0.50000000  0.38455300  1
  O  O23  1  0.54666500  0.50000000  0.11891500  1
  O  O24  1  0.81449200  0.50000000  0.42981900  1
  O  O25  1  0.74482600  0.50000000  0.74927500  1
  O  O26  1  0.45345900  0.50000000  0.88184800  1
  O  O27  1  0.45662500  0.50000000  0.62235000  1
  O  O28  1  0.04679300  0.00000000  0.38455300  1
  O  O29  1  0.04666500  0.00000000  0.11891500  1
  O  O30  1  0.31449200  0.00000000  0.42981900  1
  O  O31  1  0.24482600  0.00000000  0.74927500  1
