# generated using pymatgen
data_NaCuO
_symmetry_space_group_name_H-M   'P 1'
_cell_length_a   8.86763800
_cell_length_b   8.86763800
_cell_length_c   4.72754000
_cell_angle_alpha   90.00000000
_cell_angle_beta   90.00000000
_cell_angle_gamma   90.00000000
_symmetry_Int_Tables_number   1
_chemical_formula_structural   NaCuO
_chemical_formula_sum   'Na8 Cu8 O8'
_cell_volume   371.75012539
_cell_formula_units_Z   8
loop_
 _symmetry_equiv_pos_site_id
 _symmetry_equiv_pos_as_xyz
  1  'x, y, z'
loop_
 _atom_site_type_symbol
 _atom_site_label
 _atom_site_symmetry_multiplicity
 _atom_site_fract_x
 _atom_site_fract_y
 _atom_site_fract_z
 _atom_site_occupancy
  Na  Na0  1  0.67420200  0.00000000  0.50000000  1
  Na  Na1  1  0.50000000  0.82579800  0.00000000  1
  Na  Na2  1  0.50000000  0.17420200  0.00000000  1
  Na  Na3  1  0.32579800  0.00000000  0.50000000  1
  Na  Na4  1  0.17420200  0.50000000  0.00000000  1
  Na  Na5  1  0.00000000  0.32579800  0.50000000  1
  Na  Na6  1  0.00000000  0.67420200  0.50000000  1
  Na  Na7  1  0.82579800  0.50000000  0.00000000  1
  Cu  Cu8  1  0.64872050  0.64872050  0.50000000  1
  Cu  Cu9  1  0.64872050  0.35127950  0.50000000  1
  Cu  Cu10  1  0.85127950  0.14872050  0.00000000  1
  Cu  Cu11  1  0.85127950  0.85127950  0.00000000  1
  Cu  Cu12  1  0.14872050  0.14872050  0.00000000  1
  Cu  Cu13  1  0.14872050  0.85127950  0.00000000  1
  Cu  Cu14  1  0.35127950  0.64872050  0.50000000  1
  Cu  Cu15  1  0.35127950  0.35127950  0.50000000  1
  O  O16  1  0.70555100  0.00000000  0.00000000  1
  O  O17  1  0.50000000  0.79444900  0.50000000  1
  O  O18  1  0.50000000  0.20555100  0.50000000  1
  O  O19  1  0.29444900  0.00000000  0.00000000  1
  O  O20  1  0.20555100  0.50000000  0.50000000  1
  O  O21  1  0.00000000  0.29444900  0.00000000  1
  O  O22  1  0.00000000  0.70555100  0.00000000  1
  O  O23  1  0.79444900  0.50000000  0.50000000  1
