# generated using pymatgen
data_CrH6SO7
_symmetry_space_group_name_H-M   'P 1'
_cell_length_a   5.78670969
_cell_length_b   13.39923515
_cell_length_c   7.54143215
_cell_angle_alpha   90.00000000
_cell_angle_beta   94.81598848
_cell_angle_gamma   90.00000000
_symmetry_Int_Tables_number   1
_chemical_formula_structural   CrH6SO7
_chemical_formula_sum   'Cr4 H24 S4 O28'
_cell_volume   582.67921909
_cell_formula_units_Z   4
loop_
 _symmetry_equiv_pos_site_id
 _symmetry_equiv_pos_as_xyz
  1  'x, y, z'
loop_
 _atom_site_type_symbol
 _atom_site_label
 _atom_site_symmetry_multiplicity
 _atom_site_fract_x
 _atom_site_fract_y
 _atom_site_fract_z
 _atom_site_occupancy
  Cr  Cr0  1  0.50302450  0.36526350  0.99227600  1
  Cr  Cr1  1  0.00302450  0.13473650  0.49227600  1
  Cr  Cr2  1  0.00302450  0.86526350  0.99227600  1
  Cr  Cr3  1  0.50302450  0.63473650  0.49227600  1
  H  H4  1  0.57234150  0.39562950  0.35140800  1
  H  H5  1  0.07234150  0.10437050  0.85140800  1
  H  H6  1  0.72817450  0.30416050  0.29232200  1
  H  H7  1  0.22817450  0.19583950  0.79232200  1
  H  H8  1  0.18658150  0.30933050  0.21803100  1
  H  H9  1  0.68658150  0.19066950  0.71803100  1
  H  H10  1  0.05530150  0.33640450  0.02791600  1
  H  H11  1  0.55530150  0.16359550  0.52791600  1
  H  H12  1  0.87807150  0.41897450  0.79262400  1
  H  H13  1  0.37807150  0.08102550  0.29262400  1
  H  H14  1  0.89440200  0.47306500  0.98223300  1
  H  H15  1  0.39440200  0.02693500  0.48223300  1
  H  H16  1  0.07234150  0.89562950  0.35140800  1
  H  H17  1  0.57234150  0.60437050  0.85140800  1
  H  H18  1  0.22817450  0.80416050  0.29232200  1
  H  H19  1  0.72817450  0.69583950  0.79232200  1
  H  H20  1  0.68658150  0.80933050  0.21803100  1
  H  H21  1  0.18658150  0.69066950  0.71803100  1
  H  H22  1  0.55530150  0.83640450  0.02791600  1
  H  H23  1  0.05530150  0.66359550  0.52791600  1
  H  H24  1  0.37807150  0.91897450  0.79262400  1
  H  H25  1  0.87807150  0.58102550  0.29262400  1
  H  H26  1  0.39440200  0.97306500  0.98223300  1
  H  H27  1  0.89440200  0.52693500  0.48223300  1
  S  S28  1  0.23361500  0.38436000  0.57342000  1
  S  S29  1  0.73361500  0.11564000  0.07342000  1
  S  S30  1  0.73361500  0.88436000  0.57342000  1
  S  S31  1  0.23361500  0.61564000  0.07342000  1
  O  O32  1  0.02318300  0.44228300  0.61231400  1
  O  O33  1  0.52318300  0.05771700  0.11231400  1
  O  O34  1  0.33301350  0.33615650  0.74327500  1
  O  O35  1  0.83301350  0.16384350  0.24327500  1
  O  O36  1  0.40765700  0.45189700  0.50136200  1
  O  O37  1  0.90765700  0.04810300  0.00136200  1
  O  O38  1  0.17109550  0.30266550  0.44455400  1
  O  O39  1  0.67109550  0.19733450  0.94455400  1
  O  O40  1  0.15877350  0.13135350  0.75349600  1
  O  O41  1  0.65877350  0.36864650  0.25349600  1
  O  O42  1  0.70099600  0.18987200  0.58779400  1
  O  O43  1  0.20099600  0.31012800  0.08779400  1
  O  O44  1  0.32790650  0.08687650  0.41659400  1
  O  O45  1  0.82790650  0.41312350  0.91659400  1
  O  O46  1  0.52318300  0.94228300  0.61231400  1
  O  O47  1  0.02318300  0.55771700  0.11231400  1
  O  O48  1  0.83301350  0.83615650  0.74327500  1
  O  O49  1  0.33301350  0.66384350  0.24327500  1
  O  O50  1  0.90765700  0.95189700  0.50136200  1
  O  O51  1  0.40765700  0.54810300  0.00136200  1
  O  O52  1  0.67109550  0.80266550  0.44455400  1
  O  O53  1  0.17109550  0.69733450  0.94455400  1
  O  O54  1  0.65877350  0.63135350  0.75349600  1
  O  O55  1  0.15877350  0.86864650  0.25349600  1
  O  O56  1  0.20099600  0.68987200  0.58779400  1
  O  O57  1  0.70099600  0.81012800  0.08779400  1
  O  O58  1  0.82790650  0.58687650  0.41659400  1
  O  O59  1  0.32790650  0.91312350  0.91659400  1
