# generated using pymatgen
data_Li3Co(NO2)6
_symmetry_space_group_name_H-M   'P 1'
_cell_length_a   7.73324588
_cell_length_b   7.73324588
_cell_length_c   13.63761609
_cell_angle_alpha   90.00000000
_cell_angle_beta   90.00000000
_cell_angle_gamma   120.00000000
_symmetry_Int_Tables_number   1
_chemical_formula_structural   Li3Co(NO2)6
_chemical_formula_sum   'Li9 Co3 N18 O36'
_cell_volume   706.30572999
_cell_formula_units_Z   3
loop_
 _symmetry_equiv_pos_site_id
 _symmetry_equiv_pos_as_xyz
  1  'x, y, z'
loop_
 _atom_site_type_symbol
 _atom_site_label
 _atom_site_symmetry_multiplicity
 _atom_site_fract_x
 _atom_site_fract_y
 _atom_site_fract_z
 _atom_site_occupancy
  Li  Li0  1  0.33333333  0.66666667  0.92175167  1
  Li  Li1  1  0.33333333  0.66666667  0.16666667  1
  Li  Li2  1  0.33333333  0.66666667  0.41158167  1
  Li  Li3  1  0.00000000  0.00000000  0.25508500  1
  Li  Li4  1  1.00000000  1.00000000  0.50000000  1
  Li  Li5  1  0.00000000  0.00000000  0.74491500  1
  Li  Li6  1  0.66666667  0.33333333  0.58841833  1
  Li  Li7  1  0.66666667  0.33333333  0.83333333  1
  Li  Li8  1  0.66666667  0.33333333  0.07824833  1
  Co  Co9  1  0.00000000  0.00000000  0.00000000  1
  Co  Co10  1  0.66666667  0.33333333  0.33333333  1
  Co  Co11  1  0.33333333  0.66666667  0.66666667  1
  N  N12  1  0.12524600  0.25049200  0.07825200  1
  N  N13  1  0.74950800  0.87475400  0.07825200  1
  N  N14  1  0.54142067  0.45857933  0.25508133  1
  N  N15  1  0.12524600  0.87475400  0.07825200  1
  N  N16  1  0.91715867  0.45857933  0.25508133  1
  N  N17  1  0.54142067  0.08284133  0.25508133  1
  N  N18  1  0.79191267  0.58382533  0.41158533  1
  N  N19  1  0.41617467  0.20808733  0.41158533  1
  N  N20  1  0.20808733  0.79191267  0.58841467  1
  N  N21  1  0.79191267  0.20808733  0.41158533  1
  N  N22  1  0.58382533  0.79191267  0.58841467  1
  N  N23  1  0.20808733  0.41617467  0.58841467  1
  N  N24  1  0.45857933  0.91715867  0.74491867  1
  N  N25  1  0.08284133  0.54142067  0.74491867  1
  N  N26  1  0.87475400  0.12524600  0.92174800  1
  N  N27  1  0.45857933  0.54142067  0.74491867  1
  N  N28  1  0.25049200  0.12524600  0.92174800  1
  N  N29  1  0.87475400  0.74950800  0.92174800  1
  O  O30  1  0.20858533  0.41717067  0.03734367  1
  O  O31  1  0.58282933  0.79141467  0.03734367  1
  O  O32  1  0.54444667  0.45555333  0.16384233  1
  O  O33  1  0.75556000  0.87778000  0.16949100  1
  O  O34  1  0.12222000  0.24444000  0.16949100  1
  O  O35  1  0.20858533  0.79141467  0.03734367  1
  O  O36  1  0.45808133  0.54191867  0.29598967  1
  O  O37  1  0.54444667  0.08889333  0.16384233  1
  O  O38  1  0.91110667  0.45555333  0.16384233  1
  O  O39  1  0.12222000  0.87778000  0.16949100  1
  O  O40  1  0.45808133  0.91616267  0.29598967  1
  O  O41  1  0.08383733  0.54191867  0.29598967  1
  O  O42  1  0.87525200  0.75050400  0.37067700  1
  O  O43  1  0.24949600  0.12474800  0.37067700  1
  O  O44  1  0.21111333  0.78888667  0.49717567  1
  O  O45  1  0.42222667  0.21111333  0.50282433  1
  O  O46  1  0.78888667  0.57777333  0.50282433  1
  O  O47  1  0.87525200  0.12474800  0.37067700  1
  O  O48  1  0.12474800  0.87525200  0.62932300  1
  O  O49  1  0.21111333  0.42222667  0.49717567  1
  O  O50  1  0.57777333  0.78888667  0.49717567  1
  O  O51  1  0.78888667  0.21111333  0.50282433  1
  O  O52  1  0.12474800  0.24949600  0.62932300  1
  O  O53  1  0.75050400  0.87525200  0.62932300  1
  O  O54  1  0.54191867  0.08383733  0.70401033  1
  O  O55  1  0.91616267  0.45808133  0.70401033  1
  O  O56  1  0.87778000  0.12222000  0.83050900  1
  O  O57  1  0.08889333  0.54444667  0.83615767  1
  O  O58  1  0.45555333  0.91110667  0.83615767  1
  O  O59  1  0.54191867  0.45808133  0.70401033  1
  O  O60  1  0.79141467  0.20858533  0.96265633  1
  O  O61  1  0.87778000  0.75556000  0.83050900  1
  O  O62  1  0.24444000  0.12222000  0.83050900  1
  O  O63  1  0.45555333  0.54444667  0.83615767  1
  O  O64  1  0.79141467  0.58282933  0.96265633  1
  O  O65  1  0.41717067  0.20858533  0.96265633  1
