# generated using pymatgen
data_BaYF5
_symmetry_space_group_name_H-M   'P 1'
_cell_length_a   7.68500400
_cell_length_b   7.68382100
_cell_length_c   8.07755606
_cell_angle_alpha   90.00000000
_cell_angle_beta   91.27569105
_cell_angle_gamma   90.00000000
_symmetry_Int_Tables_number   1
_chemical_formula_structural   BaYF5
_chemical_formula_sum   'Ba4 Y4 F20'
_cell_volume   476.86303940
_cell_formula_units_Z   4
loop_
 _symmetry_equiv_pos_site_id
 _symmetry_equiv_pos_as_xyz
  1  'x, y, z'
loop_
 _atom_site_type_symbol
 _atom_site_label
 _atom_site_symmetry_multiplicity
 _atom_site_fract_x
 _atom_site_fract_y
 _atom_site_fract_z
 _atom_site_occupancy
  Ba  Ba0  1  0.14144300  0.24768100  0.03469800  1
  Ba  Ba1  1  0.66901200  0.24850300  0.76462400  1
  Ba  Ba2  1  0.85855700  0.74768100  0.96530200  1
  Ba  Ba3  1  0.33098800  0.74850300  0.23537600  1
  Y  Y4  1  0.30919800  0.75152200  0.75860600  1
  Y  Y5  1  0.78206100  0.75209300  0.48125000  1
  Y  Y6  1  0.21793900  0.25209300  0.51875000  1
  Y  Y7  1  0.69080200  0.25152200  0.24139400  1
  F  F8  1  0.05600800  0.74680500  0.62530900  1
  F  F9  1  0.48567200  0.24921000  0.04839300  1
  F  F10  1  0.02453400  0.25007000  0.71651900  1
  F  F11  1  0.17738800  0.58259400  0.95712300  1
  F  F12  1  0.65718400  0.55249200  0.30513100  1
  F  F13  1  0.66122600  0.96008200  0.31407000  1
  F  F14  1  0.17812300  0.91395200  0.95763800  1
  F  F15  1  0.75763300  0.56062000  0.68101100  1
  F  F16  1  0.76411400  0.93818800  0.68547800  1
  F  F17  1  0.52190700  0.25792400  0.46139300  1
  F  F18  1  0.82187700  0.41395200  0.04236200  1
  F  F19  1  0.47809300  0.75792400  0.53860700  1
  F  F20  1  0.23588600  0.43818800  0.31452200  1
  F  F21  1  0.24236700  0.06062000  0.31898900  1
  F  F22  1  0.82261200  0.08259400  0.04287700  1
  F  F23  1  0.97546600  0.75007000  0.28348100  1
  F  F24  1  0.33877400  0.46008200  0.68593000  1
  F  F25  1  0.34281600  0.05249200  0.69486900  1
  F  F26  1  0.94399200  0.24680500  0.37469100  1
  F  F27  1  0.51432800  0.74921000  0.95160700  1
