# generated using pymatgen
data_Li3Ti2CuO6
_symmetry_space_group_name_H-M   'P 1'
_cell_length_a   13.18378400
_cell_length_b   2.95076200
_cell_length_c   6.01210940
_cell_angle_alpha   90.00000000
_cell_angle_beta   103.41586396
_cell_angle_gamma   90.00000000
_symmetry_Int_Tables_number   1
_chemical_formula_structural   Li3Ti2CuO6
_chemical_formula_sum   'Li6 Ti4 Cu2 O12'
_cell_volume   227.50202352
_cell_formula_units_Z   2
loop_
 _symmetry_equiv_pos_site_id
 _symmetry_equiv_pos_as_xyz
  1  'x, y, z'
loop_
 _atom_site_type_symbol
 _atom_site_label
 _atom_site_symmetry_multiplicity
 _atom_site_fract_x
 _atom_site_fract_y
 _atom_site_fract_z
 _atom_site_occupancy
  Li  Li0  1  0.00000000  0.00000000  0.00000000  1
  Li  Li1  1  0.16327200  0.50000000  0.33176100  1
  Li  Li2  1  0.33672800  0.00000000  0.66823900  1
  Li  Li3  1  0.50000000  0.50000000  0.00000000  1
  Li  Li4  1  0.66327200  0.00000000  0.33176100  1
  Li  Li5  1  0.83672800  0.50000000  0.66823900  1
  Ti  Ti6  1  0.15534100  0.50000000  0.82077900  1
  Ti  Ti7  1  0.34465900  0.00000000  0.17922100  1
  Ti  Ti8  1  0.65534100  0.00000000  0.82077900  1
  Ti  Ti9  1  0.84465900  0.50000000  0.17922100  1
  Cu  Cu10  1  0.00000000  0.00000000  0.50000000  1
  Cu  Cu11  1  0.50000000  0.50000000  0.50000000  1
  O  O12  1  0.17770100  0.00000000  0.61490900  1
  O  O13  1  0.32841000  0.50000000  0.94177000  1
  O  O14  1  0.32229900  0.50000000  0.38509100  1
  O  O15  1  0.48828600  0.00000000  0.23173700  1
  O  O16  1  0.01171400  0.50000000  0.76826300  1
  O  O17  1  0.17159000  0.00000000  0.05823000  1
  O  O18  1  0.67770100  0.50000000  0.61490900  1
  O  O19  1  0.82841000  0.00000000  0.94177000  1
  O  O20  1  0.82229900  0.00000000  0.38509100  1
  O  O21  1  0.98828600  0.50000000  0.23173700  1
  O  O22  1  0.51171400  0.00000000  0.76826300  1
  O  O23  1  0.67159000  0.50000000  0.05823000  1
