# generated using pymatgen
data_CeTh3O8
_symmetry_space_group_name_H-M   'P 1'
_cell_length_a   7.89495400
_cell_length_b   11.16592600
_cell_length_c   3.94870100
_cell_angle_alpha   90.00000000
_cell_angle_beta   90.00000000
_cell_angle_gamma   90.00000000
_symmetry_Int_Tables_number   1
_chemical_formula_structural   CeTh3O8
_chemical_formula_sum   'Ce2 Th6 O16'
_cell_volume   348.09565228
_cell_formula_units_Z   2
loop_
 _symmetry_equiv_pos_site_id
 _symmetry_equiv_pos_as_xyz
  1  'x, y, z'
loop_
 _atom_site_type_symbol
 _atom_site_label
 _atom_site_symmetry_multiplicity
 _atom_site_fract_x
 _atom_site_fract_y
 _atom_site_fract_z
 _atom_site_occupancy
  Ce  Ce0  1  0.50000000  0.00000000  0.00000000  1
  Ce  Ce1  1  0.00000000  0.50000000  0.00000000  1
  Th  Th2  1  0.25000000  0.75000000  0.50000000  1
  Th  Th3  1  0.25000000  0.25000000  0.50000000  1
  Th  Th4  1  0.00000000  0.00000000  0.00000000  1
  Th  Th5  1  0.75000000  0.25000000  0.50000000  1
  Th  Th6  1  0.75000000  0.75000000  0.50000000  1
  Th  Th7  1  0.50000000  0.50000000  0.00000000  1
  O  O8  1  0.50000000  0.37474400  0.50000000  1
  O  O9  1  0.74750450  0.12406150  0.00000000  1
  O  O10  1  0.50000000  0.12276300  0.50000000  1
  O  O11  1  0.25249550  0.12406150  0.00000000  1
  O  O12  1  0.74750450  0.87593850  0.00000000  1
  O  O13  1  0.50000000  0.87723700  0.50000000  1
  O  O14  1  0.25249550  0.87593850  0.00000000  1
  O  O15  1  0.50000000  0.62525600  0.50000000  1
  O  O16  1  0.00000000  0.87474400  0.50000000  1
  O  O17  1  0.24750450  0.62406150  0.00000000  1
  O  O18  1  0.00000000  0.62276300  0.50000000  1
  O  O19  1  0.75249550  0.62406150  0.00000000  1
  O  O20  1  0.24750450  0.37593850  0.00000000  1
  O  O21  1  0.00000000  0.37723700  0.50000000  1
  O  O22  1  0.75249550  0.37593850  0.00000000  1
  O  O23  1  0.00000000  0.12525600  0.50000000  1
