# generated using pymatgen
data_Li6CuF8
_symmetry_space_group_name_H-M   'P 1'
_cell_length_a   10.17320600
_cell_length_b   5.72316400
_cell_length_c   5.98314077
_cell_angle_alpha   90.00000000
_cell_angle_beta   121.90764863
_cell_angle_gamma   90.00000000
_symmetry_Int_Tables_number   1
_chemical_formula_structural   Li6CuF8
_chemical_formula_sum   'Li12 Cu2 F16'
_cell_volume   295.71977408
_cell_formula_units_Z   2
loop_
 _symmetry_equiv_pos_site_id
 _symmetry_equiv_pos_as_xyz
  1  'x, y, z'
loop_
 _atom_site_type_symbol
 _atom_site_label
 _atom_site_symmetry_multiplicity
 _atom_site_fract_x
 _atom_site_fract_y
 _atom_site_fract_z
 _atom_site_occupancy
  Li  Li0  1  0.15706300  0.00000000  0.96909600  1
  Li  Li1  1  0.00000000  0.50000000  0.50000000  1
  Li  Li2  1  0.00000000  0.00000000  0.50000000  1
  Li  Li3  1  0.25000000  0.75000000  0.50000000  1
  Li  Li4  1  0.34293700  0.50000000  0.03090400  1
  Li  Li5  1  0.25000000  0.25000000  0.50000000  1
  Li  Li6  1  0.65706300  0.50000000  0.96909600  1
  Li  Li7  1  0.50000000  0.00000000  0.50000000  1
  Li  Li8  1  0.50000000  0.50000000  0.50000000  1
  Li  Li9  1  0.75000000  0.25000000  0.50000000  1
  Li  Li10  1  0.84293700  0.00000000  0.03090400  1
  Li  Li11  1  0.75000000  0.75000000  0.50000000  1
  Cu  Cu12  1  0.00000000  0.50000000  0.00000000  1
  Cu  Cu13  1  0.50000000  0.00000000  0.00000000  1
  F  F14  1  0.00195550  0.74462950  0.76904000  1
  F  F15  1  0.27951000  0.00000000  0.32231200  1
  F  F16  1  0.22464500  0.00000000  0.72558500  1
  F  F17  1  0.00195550  0.25537050  0.76904000  1
  F  F18  1  0.49804450  0.24462950  0.23096000  1
  F  F19  1  0.27535500  0.50000000  0.27441500  1
  F  F20  1  0.22049000  0.50000000  0.67768800  1
  F  F21  1  0.49804450  0.75537050  0.23096000  1
  F  F22  1  0.50195550  0.24462950  0.76904000  1
  F  F23  1  0.77951000  0.50000000  0.32231200  1
  F  F24  1  0.72464500  0.50000000  0.72558500  1
  F  F25  1  0.50195550  0.75537050  0.76904000  1
  F  F26  1  0.99804450  0.74462950  0.23096000  1
  F  F27  1  0.77535500  0.00000000  0.27441500  1
  F  F28  1  0.72049000  0.00000000  0.67768800  1
  F  F29  1  0.99804450  0.25537050  0.23096000  1
