# generated using pymatgen
data_Li5BiS4
_symmetry_space_group_name_H-M   'P 1'
_cell_length_a   7.65350400
_cell_length_b   12.59122400
_cell_length_c   7.79317400
_cell_angle_alpha   90.00000000
_cell_angle_beta   90.00000000
_cell_angle_gamma   90.00000000
_symmetry_Int_Tables_number   1
_chemical_formula_structural   Li5BiS4
_chemical_formula_sum   'Li20 Bi4 S16'
_cell_volume   751.00466831
_cell_formula_units_Z   4
loop_
 _symmetry_equiv_pos_site_id
 _symmetry_equiv_pos_as_xyz
  1  'x, y, z'
loop_
 _atom_site_type_symbol
 _atom_site_label
 _atom_site_symmetry_multiplicity
 _atom_site_fract_x
 _atom_site_fract_y
 _atom_site_fract_z
 _atom_site_occupancy
  Li  Li0  1  0.17925050  0.94009550  0.69540100  1
  Li  Li1  1  0.17925050  0.05990450  0.19540100  1
  Li  Li2  1  0.29143850  0.87096450  0.98315500  1
  Li  Li3  1  0.29143850  0.12903550  0.48315500  1
  Li  Li4  1  0.50000000  0.35800500  0.30047200  1
  Li  Li5  1  0.50000000  0.64199500  0.80047200  1
  Li  Li6  1  0.70856150  0.12903550  0.48315500  1
  Li  Li7  1  0.70856150  0.87096450  0.98315500  1
  Li  Li8  1  0.82074950  0.05990450  0.19540100  1
  Li  Li9  1  0.82074950  0.94009550  0.69540100  1
  Li  Li10  1  0.67925050  0.44009550  0.69540100  1
  Li  Li11  1  0.67925050  0.55990450  0.19540100  1
  Li  Li12  1  0.79143850  0.37096450  0.98315500  1
  Li  Li13  1  0.79143850  0.62903550  0.48315500  1
  Li  Li14  1  0.00000000  0.85800500  0.30047200  1
  Li  Li15  1  0.00000000  0.14199500  0.80047200  1
  Li  Li16  1  0.20856150  0.62903550  0.48315500  1
  Li  Li17  1  0.20856150  0.37096450  0.98315500  1
  Li  Li18  1  0.32074950  0.55990450  0.19540100  1
  Li  Li19  1  0.32074950  0.44009550  0.69540100  1
  Bi  Bi20  1  0.50000000  0.16806000  0.91490200  1
  Bi  Bi21  1  0.50000000  0.83194000  0.41490200  1
  Bi  Bi22  1  0.00000000  0.66806000  0.91490200  1
  Bi  Bi23  1  0.00000000  0.33194000  0.41490200  1
  S  S24  1  0.25361050  0.75262150  0.22821600  1
  S  S25  1  0.25361050  0.24737850  0.72821600  1
  S  S26  1  0.50000000  0.47756400  0.96915700  1
  S  S27  1  0.50000000  0.52243600  0.46915700  1
  S  S28  1  0.50000000  0.02181000  0.28622600  1
  S  S29  1  0.50000000  0.97819000  0.78622600  1
  S  S30  1  0.74638950  0.24737850  0.72821600  1
  S  S31  1  0.74638950  0.75262150  0.22821600  1
  S  S32  1  0.75361050  0.25262150  0.22821600  1
  S  S33  1  0.75361050  0.74737850  0.72821600  1
  S  S34  1  0.00000000  0.97756400  0.96915700  1
  S  S35  1  0.00000000  0.02243600  0.46915700  1
  S  S36  1  0.00000000  0.52181000  0.28622600  1
  S  S37  1  0.00000000  0.47819000  0.78622600  1
  S  S38  1  0.24638950  0.74737850  0.72821600  1
  S  S39  1  0.24638950  0.25262150  0.22821600  1
