# generated using pymatgen
data_H7C3N3O5
_symmetry_space_group_name_H-M   'P 1'
_cell_length_a   12.65096000
_cell_length_b   6.79067000
_cell_length_c   8.90995510
_cell_angle_alpha   90.00000000
_cell_angle_beta   115.76130425
_cell_angle_gamma   90.00000000
_symmetry_Int_Tables_number   1
_chemical_formula_structural   H7C3N3O5
_chemical_formula_sum   'H28 C12 N12 O20'
_cell_volume   689.36558406
_cell_formula_units_Z   4
loop_
 _symmetry_equiv_pos_site_id
 _symmetry_equiv_pos_as_xyz
  1  'x, y, z'
loop_
 _atom_site_type_symbol
 _atom_site_label
 _atom_site_symmetry_multiplicity
 _atom_site_fract_x
 _atom_site_fract_y
 _atom_site_fract_z
 _atom_site_occupancy
  H  H0  1  0.00000000  0.05736800  0.75000000  1
  H  H1  1  0.00000000  0.94263200  0.25000000  1
  H  H2  1  0.37496550  0.02690050  0.50843700  1
  H  H3  1  0.12503450  0.52690050  0.99156300  1
  H  H4  1  0.12503450  0.47309950  0.49156300  1
  H  H5  1  0.37496550  0.97309950  0.00843700  1
  H  H6  1  0.18518400  0.19948700  0.08988500  1
  H  H7  1  0.31481600  0.69948700  0.41011500  1
  H  H8  1  0.31481600  0.30051300  0.91011500  1
  H  H9  1  0.18518400  0.80051300  0.58988500  1
  H  H10  1  0.26141950  0.33140450  0.24698100  1
  H  H11  1  0.23858050  0.83140450  0.25301900  1
  H  H12  1  0.23858050  0.16859550  0.75301900  1
  H  H13  1  0.26141950  0.66859550  0.74698100  1
  H  H14  1  0.50000000  0.55736800  0.75000000  1
  H  H15  1  0.50000000  0.44263200  0.25000000  1
  H  H16  1  0.87496550  0.52690050  0.50843700  1
  H  H17  1  0.62503450  0.02690050  0.99156300  1
  H  H18  1  0.62503450  0.97309950  0.49156300  1
  H  H19  1  0.87496550  0.47309950  0.00843700  1
  H  H20  1  0.68518400  0.69948700  0.08988500  1
  H  H21  1  0.81481600  0.19948700  0.41011500  1
  H  H22  1  0.81481600  0.80051300  0.91011500  1
  H  H23  1  0.68518400  0.30051300  0.58988500  1
  H  H24  1  0.76141950  0.83140450  0.24698100  1
  H  H25  1  0.73858050  0.33140450  0.25301900  1
  H  H26  1  0.73858050  0.66859550  0.75301900  1
  H  H27  1  0.76141950  0.16859550  0.74698100  1
  C  C28  1  0.42679950  0.31156250  0.60449900  1
  C  C29  1  0.07320050  0.81156250  0.89550100  1
  C  C30  1  0.07320050  0.18843750  0.39550100  1
  C  C31  1  0.42679950  0.68843750  0.10449900  1
  C  C32  1  0.00000000  0.50298800  0.75000000  1
  C  C33  1  0.00000000  0.49701200  0.25000000  1
  C  C34  1  0.92679950  0.81156250  0.60449900  1
  C  C35  1  0.57320050  0.31156250  0.89550100  1
  C  C36  1  0.57320050  0.68843750  0.39550100  1
  C  C37  1  0.92679950  0.18843750  0.10449900  1
  C  C38  1  0.50000000  0.00298800  0.75000000  1
  C  C39  1  0.50000000  0.99701200  0.25000000  1
  N  N40  1  0.00000000  0.90568100  0.75000000  1
  N  N41  1  0.00000000  0.09431900  0.25000000  1
  N  N42  1  0.42968800  0.10993900  0.61136400  1
  N  N43  1  0.07031200  0.60993900  0.88863600  1
  N  N44  1  0.07031200  0.39006100  0.38863600  1
  N  N45  1  0.42968800  0.89006100  0.11136400  1
  N  N46  1  0.50000000  0.40568100  0.75000000  1
  N  N47  1  0.50000000  0.59431900  0.25000000  1
  N  N48  1  0.92968800  0.60993900  0.61136400  1
  N  N49  1  0.57031200  0.10993900  0.88863600  1
  N  N50  1  0.57031200  0.89006100  0.38863600  1
  N  N51  1  0.92968800  0.39006100  0.11136400  1
  O  O52  1  0.36269600  0.40377900  0.47688900  1
  O  O53  1  0.13730400  0.90377900  0.02311100  1
  O  O54  1  0.13730400  0.09622100  0.52311100  1
  O  O55  1  0.36269600  0.59622100  0.97688900  1
  O  O56  1  0.00000000  0.32112900  0.75000000  1
  O  O57  1  0.00000000  0.67887100  0.25000000  1
  O  O58  1  0.19552350  0.33337650  0.13517600  1
  O  O59  1  0.30447650  0.83337650  0.36482400  1
  O  O60  1  0.30447650  0.16662350  0.86482400  1
  O  O61  1  0.19552350  0.66662350  0.63517600  1
  O  O62  1  0.86269600  0.90377900  0.47688900  1
  O  O63  1  0.63730400  0.40377900  0.02311100  1
  O  O64  1  0.63730400  0.59622100  0.52311100  1
  O  O65  1  0.86269600  0.09622100  0.97688900  1
  O  O66  1  0.50000000  0.82112900  0.75000000  1
  O  O67  1  0.50000000  0.17887100  0.25000000  1
  O  O68  1  0.69552350  0.83337650  0.13517600  1
  O  O69  1  0.80447650  0.33337650  0.36482400  1
  O  O70  1  0.80447650  0.66662350  0.86482400  1
  O  O71  1  0.69552350  0.16662350  0.63517600  1
