# generated using pymatgen
data_LuAsO4
_symmetry_space_group_name_H-M   'P 1'
_cell_length_a   7.01399800
_cell_length_b   7.01399800
_cell_length_c   6.27793000
_cell_angle_alpha   90.00000000
_cell_angle_beta   90.00000000
_cell_angle_gamma   90.00000000
_symmetry_Int_Tables_number   1
_chemical_formula_structural   LuAsO4
_chemical_formula_sum   'Lu4 As4 O16'
_cell_volume   308.85009862
_cell_formula_units_Z   4
loop_
 _symmetry_equiv_pos_site_id
 _symmetry_equiv_pos_as_xyz
  1  'x, y, z'
loop_
 _atom_site_type_symbol
 _atom_site_label
 _atom_site_symmetry_multiplicity
 _atom_site_fract_x
 _atom_site_fract_y
 _atom_site_fract_z
 _atom_site_occupancy
  Lu  Lu0  1  0.50000000  0.00000000  0.25000000  1
  Lu  Lu1  1  0.50000000  0.50000000  0.50000000  1
  Lu  Lu2  1  0.00000000  0.50000000  0.75000000  1
  Lu  Lu3  1  0.00000000  0.00000000  0.00000000  1
  As  As4  1  0.00000000  0.00000000  0.50000000  1
  As  As5  1  0.50000000  0.00000000  0.75000000  1
  As  As6  1  0.50000000  0.50000000  0.00000000  1
  As  As7  1  0.00000000  0.50000000  0.25000000  1
  O  O8  1  0.50000000  0.18342400  0.56862800  1
  O  O9  1  0.81657600  0.00000000  0.31862800  1
  O  O10  1  0.18342400  0.00000000  0.31862800  1
  O  O11  1  0.00000000  0.31657600  0.06862800  1
  O  O12  1  0.68342400  0.00000000  0.93137200  1
  O  O13  1  0.00000000  0.81657600  0.68137200  1
  O  O14  1  0.00000000  0.18342400  0.68137200  1
  O  O15  1  0.81657600  0.50000000  0.43137200  1
  O  O16  1  0.00000000  0.68342400  0.06862800  1
  O  O17  1  0.31657600  0.50000000  0.81862800  1
  O  O18  1  0.68342400  0.50000000  0.81862800  1
  O  O19  1  0.50000000  0.81657600  0.56862800  1
  O  O20  1  0.18342400  0.50000000  0.43137200  1
  O  O21  1  0.50000000  0.31657600  0.18137200  1
  O  O22  1  0.50000000  0.68342400  0.18137200  1
  O  O23  1  0.31657600  0.00000000  0.93137200  1
