# generated using pymatgen
data_Y2W2O9
_symmetry_space_group_name_H-M   'P 1'
_cell_length_a   5.37801100
_cell_length_b   5.49375300
_cell_length_c   23.76542100
_cell_angle_alpha   90.00000000
_cell_angle_beta   90.00000000
_cell_angle_gamma   90.00000000
_symmetry_Int_Tables_number   1
_chemical_formula_structural   Y2W2O9
_chemical_formula_sum   'Y8 W8 O36'
_cell_volume   702.16039215
_cell_formula_units_Z   4
loop_
 _symmetry_equiv_pos_site_id
 _symmetry_equiv_pos_as_xyz
  1  'x, y, z'
loop_
 _atom_site_type_symbol
 _atom_site_label
 _atom_site_symmetry_multiplicity
 _atom_site_fract_x
 _atom_site_fract_y
 _atom_site_fract_z
 _atom_site_occupancy
  Y  Y0  1  0.27655500  0.88762300  0.29740300  1
  Y  Y1  1  0.77655500  0.88762300  0.20259700  1
  Y  Y2  1  0.27655500  0.61237700  0.70259700  1
  Y  Y3  1  0.77655500  0.61237700  0.79740300  1
  Y  Y4  1  0.72344500  0.38762300  0.29740300  1
  Y  Y5  1  0.22344500  0.38762300  0.20259700  1
  Y  Y6  1  0.72344500  0.11237700  0.70259700  1
  Y  Y7  1  0.22344500  0.11237700  0.79740300  1
  W  W8  1  0.75130800  0.82152800  0.42165000  1
  W  W9  1  0.25130800  0.82152800  0.07835000  1
  W  W10  1  0.75130800  0.67847200  0.57835000  1
  W  W11  1  0.25130800  0.67847200  0.92165000  1
  W  W12  1  0.24869200  0.32152800  0.42165000  1
  W  W13  1  0.74869200  0.32152800  0.07835000  1
  W  W14  1  0.24869200  0.17847200  0.57835000  1
  W  W15  1  0.74869200  0.17847200  0.92165000  1
  O  O16  1  0.54012800  0.98700500  0.09767900  1
  O  O17  1  0.45987200  0.01299500  0.90232100  1
  O  O18  1  0.00572300  0.87272400  0.74050300  1
  O  O19  1  0.44993100  0.92909000  0.56056000  1
  O  O20  1  0.50572300  0.87272400  0.75949700  1
  O  O21  1  0.94993100  0.92909000  0.93944000  1
  O  O22  1  0.63448200  0.77680400  0.34827600  1
  O  O23  1  0.13448200  0.77680400  0.15172400  1
  O  O24  1  0.33881400  0.75000000  0.00000000  1
  O  O25  1  0.83881400  0.75000000  0.50000000  1
  O  O26  1  0.63448200  0.72319600  0.65172400  1
  O  O27  1  0.13448200  0.72319600  0.84827600  1
  O  O28  1  0.44993100  0.57091000  0.43944000  1
  O  O29  1  0.00572300  0.62727600  0.25949700  1
  O  O30  1  0.94993100  0.57091000  0.06056000  1
  O  O31  1  0.50572300  0.62727600  0.24050300  1
  O  O32  1  0.95987200  0.48700500  0.40232100  1
  O  O33  1  0.04012800  0.51299500  0.59767900  1
  O  O34  1  0.45987200  0.48700500  0.09767900  1
  O  O35  1  0.54012800  0.51299500  0.90232100  1
  O  O36  1  0.99427700  0.37272400  0.74050300  1
  O  O37  1  0.55006900  0.42909000  0.56056000  1
  O  O38  1  0.49427700  0.37272400  0.75949700  1
  O  O39  1  0.05006900  0.42909000  0.93944000  1
  O  O40  1  0.36551800  0.27680400  0.34827600  1
  O  O41  1  0.86551800  0.27680400  0.15172400  1
  O  O42  1  0.66118600  0.25000000  0.00000000  1
  O  O43  1  0.16118600  0.25000000  0.50000000  1
  O  O44  1  0.36551800  0.22319600  0.65172400  1
  O  O45  1  0.86551800  0.22319600  0.84827600  1
  O  O46  1  0.55006900  0.07091000  0.43944000  1
  O  O47  1  0.99427700  0.12727600  0.25949700  1
  O  O48  1  0.05006900  0.07091000  0.06056000  1
  O  O49  1  0.49427700  0.12727600  0.24050300  1
  O  O50  1  0.04012800  0.98700500  0.40232100  1
  O  O51  1  0.95987200  0.01299500  0.59767900  1
