# generated using pymatgen
data_CsClO3
_symmetry_space_group_name_H-M   'P 1'
_cell_length_a   6.52413551
_cell_length_b   6.52413551
_cell_length_c   8.87743508
_cell_angle_alpha   90.00000000
_cell_angle_beta   90.00000000
_cell_angle_gamma   120.00000000
_symmetry_Int_Tables_number   1
_chemical_formula_structural   CsClO3
_chemical_formula_sum   'Cs3 Cl3 O9'
_cell_volume   327.23826645
_cell_formula_units_Z   3
loop_
 _symmetry_equiv_pos_site_id
 _symmetry_equiv_pos_as_xyz
  1  'x, y, z'
loop_
 _atom_site_type_symbol
 _atom_site_label
 _atom_site_symmetry_multiplicity
 _atom_site_fract_x
 _atom_site_fract_y
 _atom_site_fract_z
 _atom_site_occupancy
  Cs  Cs0  1  0.33333333  0.66666667  0.64158567  1
  Cs  Cs1  1  0.00000000  0.00000000  0.97491900  1
  Cs  Cs2  1  0.66666667  0.33333333  0.30825233  1
  Cl  Cl3  1  0.33333333  0.66666667  0.15633867  1
  Cl  Cl4  1  0.00000000  0.00000000  0.48967200  1
  Cl  Cl5  1  0.66666667  0.33333333  0.82300533  1
  O  O6  1  0.20957333  0.41914667  0.21980667  1
  O  O7  1  0.58085333  0.79042667  0.21980667  1
  O  O8  1  0.20957333  0.79042667  0.21980667  1
  O  O9  1  0.87624000  0.75248000  0.55314000  1
  O  O10  1  0.24752000  0.12376000  0.55314000  1
  O  O11  1  0.87624000  0.12376000  0.55314000  1
  O  O12  1  0.54290667  0.08581333  0.88647333  1
  O  O13  1  0.91418667  0.45709333  0.88647333  1
  O  O14  1  0.54290667  0.45709333  0.88647333  1
