# generated using pymatgen
data_GeS2
_symmetry_space_group_name_H-M   'P 1'
_cell_length_a   5.78545200
_cell_length_b   5.78545200
_cell_length_c   9.10088600
_cell_angle_alpha   90.00000000
_cell_angle_beta   90.00000000
_cell_angle_gamma   90.00000000
_symmetry_Int_Tables_number   1
_chemical_formula_structural   GeS2
_chemical_formula_sum   'Ge4 S8'
_cell_volume   304.61989479
_cell_formula_units_Z   4
loop_
 _symmetry_equiv_pos_site_id
 _symmetry_equiv_pos_as_xyz
  1  'x, y, z'
loop_
 _atom_site_type_symbol
 _atom_site_label
 _atom_site_symmetry_multiplicity
 _atom_site_fract_x
 _atom_site_fract_y
 _atom_site_fract_z
 _atom_site_occupancy
  Ge  Ge0  1  0.00000000  0.50000000  0.25000000  1
  Ge  Ge1  1  0.00000000  0.00000000  0.00000000  1
  Ge  Ge2  1  0.50000000  0.00000000  0.75000000  1
  Ge  Ge3  1  0.50000000  0.50000000  0.50000000  1
  S  S4  1  0.77616900  0.75000000  0.12500000  1
  S  S5  1  0.25000000  0.72383100  0.37500000  1
  S  S6  1  0.22383100  0.25000000  0.12500000  1
  S  S7  1  0.75000000  0.27616900  0.37500000  1
  S  S8  1  0.27616900  0.25000000  0.62500000  1
  S  S9  1  0.75000000  0.22383100  0.87500000  1
  S  S10  1  0.72383100  0.75000000  0.62500000  1
  S  S11  1  0.25000000  0.77616900  0.87500000  1
