# generated using pymatgen
data_NaB2H5O6
_symmetry_space_group_name_H-M   'P 1'
_cell_length_a   11.28747636
_cell_length_b   11.28747636
_cell_length_c   21.44009529
_cell_angle_alpha   90.00000000
_cell_angle_beta   90.00000000
_cell_angle_gamma   120.00000000
_symmetry_Int_Tables_number   1
_chemical_formula_structural   NaB2H5O6
_chemical_formula_sum   'Na18 B36 H90 O108'
_cell_volume   2365.65304920
_cell_formula_units_Z   18
loop_
 _symmetry_equiv_pos_site_id
 _symmetry_equiv_pos_as_xyz
  1  'x, y, z'
loop_
 _atom_site_type_symbol
 _atom_site_label
 _atom_site_symmetry_multiplicity
 _atom_site_fract_x
 _atom_site_fract_y
 _atom_site_fract_z
 _atom_site_occupancy
  Na  Na0  1  0.33333333  0.99207967  0.16666667  1
  Na  Na1  1  0.65874633  0.66666667  0.16666667  1
  Na  Na2  1  0.00792033  0.34125367  0.16666667  1
  Na  Na3  1  0.33333333  0.66666667  0.16666667  1
  Na  Na4  1  0.33333333  0.66666667  0.58138667  1
  Na  Na5  1  0.33333333  0.66666667  0.75194667  1
  Na  Na6  1  0.00000000  0.32541300  0.50000000  1
  Na  Na7  1  0.32541300  0.00000000  0.50000000  1
  Na  Na8  1  0.67458700  0.67458700  0.50000000  1
  Na  Na9  1  0.00000000  0.00000000  0.50000000  1
  Na  Na10  1  0.00000000  0.00000000  0.91472000  1
  Na  Na11  1  1.00000000  0.00000000  0.08528000  1
  Na  Na12  1  0.66666667  0.65874633  0.83333333  1
  Na  Na13  1  0.99207967  0.33333333  0.83333333  1
  Na  Na14  1  0.34125367  0.00792033  0.83333333  1
  Na  Na15  1  0.66666667  0.33333333  0.83333333  1
  Na  Na16  1  0.66666667  0.33333333  0.24805333  1
  Na  Na17  1  0.66666667  0.33333333  0.41861333  1
  B  B18  1  0.23917467  0.40129633  0.28517633  1
  B  B19  1  0.16212167  0.76082533  0.28517633  1
  B  B20  1  0.59870367  0.83787833  0.28517633  1
  B  B21  1  0.50454500  0.93203700  0.04815700  1
  B  B22  1  0.06796300  0.57250800  0.04815700  1
  B  B23  1  0.42749200  0.49545500  0.04815700  1
  B  B24  1  0.09199733  0.60780967  0.37762567  1
  B  B25  1  0.51581233  0.90800267  0.37762567  1
  B  B26  1  0.39219033  0.48418767  0.37762567  1
  B  B27  1  0.15085433  0.72552367  0.95570767  1
  B  B28  1  0.27447633  0.42533067  0.95570767  1
  B  B29  1  0.57466933  0.84914567  0.95570767  1
  B  B30  1  0.90584133  0.73462967  0.61850967  1
  B  B31  1  0.82878833  0.09415867  0.61850967  1
  B  B32  1  0.26537033  0.17121167  0.61850967  1
  B  B33  1  0.17121167  0.26537033  0.38149033  1
  B  B34  1  0.73462967  0.90584133  0.38149033  1
  B  B35  1  0.09415867  0.82878833  0.38149033  1
  B  B36  1  0.75866400  0.94114300  0.71095900  1
  B  B37  1  0.18247900  0.24133600  0.71095900  1
  B  B38  1  0.05885700  0.81752100  0.71095900  1
  B  B39  1  0.81752100  0.05885700  0.28904100  1
  B  B40  1  0.94114300  0.75866400  0.28904100  1
  B  B41  1  0.24133600  0.18247900  0.28904100  1
  B  B42  1  0.57250800  0.06796300  0.95184300  1
  B  B43  1  0.49545500  0.42749200  0.95184300  1
  B  B44  1  0.93203700  0.50454500  0.95184300  1
  B  B45  1  0.83787833  0.59870367  0.71482367  1
  B  B46  1  0.40129633  0.23917467  0.71482367  1
  B  B47  1  0.76082533  0.16212167  0.71482367  1
  B  B48  1  0.42533067  0.27447633  0.04429233  1
  B  B49  1  0.84914567  0.57466933  0.04429233  1
  B  B50  1  0.72552367  0.15085433  0.04429233  1
  B  B51  1  0.48418767  0.39219033  0.62237433  1
  B  B52  1  0.60780967  0.09199733  0.62237433  1
  B  B53  1  0.90800267  0.51581233  0.62237433  1
  H  H54  1  0.17283067  0.52713033  0.26311333  1
  H  H55  1  0.35429967  0.82716933  0.26311333  1
  H  H56  1  0.47286967  0.64570033  0.26311333  1
  H  H57  1  0.31236700  0.80620300  0.07022000  1
  H  H58  1  0.19379700  0.50616400  0.07022000  1
  H  H59  1  0.49383600  0.68763300  0.07022000  1
  H  H60  1  0.09686267  0.43434833  0.37704533  1
  H  H61  1  0.33748567  0.90313733  0.37704533  1
  H  H62  1  0.56565167  0.66251433  0.37704533  1
  H  H63  1  0.32918100  0.89898500  0.95628800  1
  H  H64  1  0.10101500  0.43019600  0.95628800  1
  H  H65  1  0.56980400  0.67081900  0.95628800  1
  H  H66  1  0.60806533  0.09587867  0.15407067  1
  H  H67  1  0.48781333  0.39193467  0.15407067  1
  H  H68  1  0.90412133  0.51218667  0.15407067  1
  H  H69  1  0.17885333  0.23745467  0.17926267  1
  H  H70  1  0.76254533  0.94139867  0.17926267  1
  H  H71  1  0.05860133  0.82114667  0.17926267  1
  H  H72  1  0.61099167  0.05715833  0.22231533  1
  H  H73  1  0.44616667  0.38900833  0.22231533  1
  H  H74  1  0.94284167  0.55383333  0.22231533  1
  H  H75  1  0.22050000  0.27617500  0.11101800  1
  H  H76  1  0.72382500  0.94432500  0.11101800  1
  H  H77  1  0.05567500  0.77950000  0.11101800  1
  H  H78  1  0.61260733  0.51228167  0.35914767  1
  H  H79  1  0.89967433  0.38739267  0.35914767  1
  H  H80  1  0.48771833  0.10032567  0.35914767  1
  H  H81  1  0.76699233  0.82105167  0.97418567  1
  H  H82  1  0.17894833  0.94594067  0.97418567  1
  H  H83  1  0.05405933  0.23300767  0.97418567  1
  H  H84  1  0.83949733  0.86046367  0.59644667  1
  H  H85  1  0.02096633  0.16050267  0.59644667  1
  H  H86  1  0.13953633  0.97903367  0.59644667  1
  H  H87  1  0.97903367  0.13953633  0.40355333  1
  H  H88  1  0.86046367  0.83949733  0.40355333  1
  H  H89  1  0.16050267  0.02096633  0.40355333  1
  H  H90  1  0.76352933  0.76768167  0.71037867  1
  H  H91  1  0.00415233  0.23647067  0.71037867  1
  H  H92  1  0.23231833  0.99584767  0.71037867  1
  H  H93  1  0.99584767  0.23231833  0.28962133  1
  H  H94  1  0.76768167  0.76352933  0.28962133  1
  H  H95  1  0.23647067  0.00415233  0.28962133  1
  H  H96  1  0.27473200  0.42921200  0.48740400  1
  H  H97  1  0.15448000  0.72526800  0.48740400  1
  H  H98  1  0.57078800  0.84552000  0.48740400  1
  H  H99  1  0.84552000  0.57078800  0.51259600  1
  H  H100  1  0.42921200  0.27473200  0.51259600  1
  H  H101  1  0.72526800  0.15448000  0.51259600  1
  H  H102  1  0.27765833  0.39049167  0.55564867  1
  H  H103  1  0.11283333  0.72234167  0.55564867  1
  H  H104  1  0.60950833  0.88716667  0.55564867  1
  H  H105  1  0.88716667  0.60950833  0.44435133  1
  H  H106  1  0.39049167  0.27765833  0.44435133  1
  H  H107  1  0.72234167  0.11283333  0.44435133  1
  H  H108  1  0.27927400  0.84561500  0.69248100  1
  H  H109  1  0.56634100  0.72072600  0.69248100  1
  H  H110  1  0.15438500  0.43365900  0.69248100  1
  H  H111  1  0.43365900  0.15438500  0.30751900  1
  H  H112  1  0.84561500  0.27927400  0.30751900  1
  H  H113  1  0.72072600  0.56634100  0.30751900  1
  H  H114  1  0.50616400  0.19379700  0.92978000  1
  H  H115  1  0.68763300  0.49383600  0.92978000  1
  H  H116  1  0.80620300  0.31236700  0.92978000  1
  H  H117  1  0.64570033  0.47286967  0.73688667  1
  H  H118  1  0.52713033  0.17283067  0.73688667  1
  H  H119  1  0.82716933  0.35429967  0.73688667  1
  H  H120  1  0.43019600  0.10101500  0.04371200  1
  H  H121  1  0.67081900  0.56980400  0.04371200  1
  H  H122  1  0.89898500  0.32918100  0.04371200  1
  H  H123  1  0.66251433  0.56565167  0.62295467  1
  H  H124  1  0.43434833  0.09686267  0.62295467  1
  H  H125  1  0.90313733  0.33748567  0.62295467  1
  H  H126  1  0.94139867  0.76254533  0.82073733  1
  H  H127  1  0.82114667  0.05860133  0.82073733  1
  H  H128  1  0.23745467  0.17885333  0.82073733  1
  H  H129  1  0.51218667  0.90412133  0.84592933  1
  H  H130  1  0.09587867  0.60806533  0.84592933  1
  H  H131  1  0.39193467  0.48781333  0.84592933  1
  H  H132  1  0.94432500  0.72382500  0.88898200  1
  H  H133  1  0.77950000  0.05567500  0.88898200  1
  H  H134  1  0.27617500  0.22050000  0.88898200  1
  H  H135  1  0.55383333  0.94284167  0.77768467  1
  H  H136  1  0.05715833  0.61099167  0.77768467  1
  H  H137  1  0.38900833  0.44616667  0.77768467  1
  H  H138  1  0.94594067  0.17894833  0.02581433  1
  H  H139  1  0.23300767  0.05405933  0.02581433  1
  H  H140  1  0.82105167  0.76699233  0.02581433  1
  H  H141  1  0.10032567  0.48771833  0.64085233  1
  H  H142  1  0.51228167  0.61260733  0.64085233  1
  H  H143  1  0.38739267  0.89967433  0.64085233  1
  O  O144  1  0.00000000  0.46487200  0.00000000  1
  O  O145  1  0.46487200  0.00000000  0.00000000  1
  O  O146  1  0.20179467  0.86846133  0.33333333  1
  O  O147  1  0.63406467  0.03948433  0.07952033  1
  O  O148  1  0.40541967  0.36593533  0.07952033  1
  O  O149  1  0.96051567  0.59458033  0.07952033  1
  O  O150  1  0.26124700  0.29384900  0.25381300  1
  O  O151  1  0.70615100  0.96739800  0.25381300  1
  O  O152  1  0.03260200  0.73875300  0.25381300  1
  O  O153  1  0.13165567  0.63060533  0.31644633  1
  O  O154  1  0.49894967  0.86834433  0.31644633  1
  O  O155  1  0.36939467  0.50105033  0.31644633  1
  O  O156  1  0.16771700  0.70272800  0.01688700  1
  O  O157  1  0.29727200  0.46498900  0.01688700  1
  O  O158  1  0.53501100  0.83228300  0.01688700  1
  O  O159  1  0.20017533  0.46971367  0.23899567  1
  O  O160  1  0.26953833  0.79982467  0.23899567  1
  O  O161  1  0.53028633  0.73046167  0.23899567  1
  O  O162  1  0.39712833  0.86361967  0.09433767  1
  O  O163  1  0.13638033  0.53350867  0.09433767  1
  O  O164  1  0.46649133  0.60287167  0.09433767  1
  O  O165  1  0.06676233  0.48610267  0.40549967  1
  O  O166  1  0.41934033  0.93323767  0.40549967  1
  O  O167  1  0.51389733  0.58065967  0.40549967  1
  O  O168  1  0.24732633  0.84723067  0.92783367  1
  O  O169  1  0.15276933  0.40009567  0.92783367  1
  O  O170  1  0.59990433  0.75267367  0.92783367  1
  O  O171  1  0.58192600  0.11017700  0.19639600  1
  O  O172  1  0.52825100  0.41807400  0.19639600  1
  O  O173  1  0.88982300  0.47174900  0.19639600  1
  O  O174  1  0.13841567  0.22315633  0.13693733  1
  O  O175  1  0.77684367  0.91525933  0.13693733  1
  O  O176  1  0.08474067  0.86158433  0.13693733  1
  O  O177  1  0.00000000  0.15145900  0.00000000  1
  O  O178  1  0.15145900  0.00000000  0.00000000  1
  O  O179  1  0.51520767  0.18187433  0.33333333  1
  O  O180  1  0.66666667  0.79820533  0.33333333  1
  O  O181  1  0.13153867  0.33333333  0.33333333  1
  O  O182  1  0.86846133  0.20179467  0.66666667  1
  O  O183  1  0.30073133  0.37281767  0.41285367  1
  O  O184  1  0.07208633  0.69926867  0.41285367  1
  O  O185  1  0.62718233  0.92791367  0.41285367  1
  O  O186  1  0.92791367  0.62718233  0.58714633  1
  O  O187  1  0.37281767  0.30073133  0.58714633  1
  O  O188  1  0.69926867  0.07208633  0.58714633  1
  O  O189  1  0.79832233  0.96393867  0.64977967  1
  O  O190  1  0.16561633  0.20167767  0.64977967  1
  O  O191  1  0.03606133  0.83438367  0.64977967  1
  O  O192  1  0.83438367  0.03606133  0.35022033  1
  O  O193  1  0.96393867  0.79832233  0.35022033  1
  O  O194  1  0.20167767  0.16561633  0.35022033  1
  O  O195  1  0.86684200  0.80304700  0.57232900  1
  O  O196  1  0.93620500  0.13315800  0.57232900  1
  O  O197  1  0.19695300  0.06379500  0.57232900  1
  O  O198  1  0.06379500  0.19695300  0.42767100  1
  O  O199  1  0.80304700  0.86684200  0.42767100  1
  O  O200  1  0.13315800  0.93620500  0.42767100  1
  O  O201  1  0.73342900  0.81943600  0.73883300  1
  O  O202  1  0.08600700  0.26657100  0.73883300  1
  O  O203  1  0.18056400  0.91399300  0.73883300  1
  O  O204  1  0.91399300  0.18056400  0.26116700  1
  O  O205  1  0.81943600  0.73342900  0.26116700  1
  O  O206  1  0.26657100  0.08600700  0.26116700  1
  O  O207  1  0.24859267  0.44351033  0.52972933  1
  O  O208  1  0.19491767  0.75140733  0.52972933  1
  O  O209  1  0.55648967  0.80508233  0.52972933  1
  O  O210  1  0.80508233  0.55648967  0.47027067  1
  O  O211  1  0.44351033  0.24859267  0.47027067  1
  O  O212  1  0.75140733  0.19491767  0.47027067  1
  O  O213  1  0.66666667  0.48479233  0.33333333  1
  O  O214  1  0.81812567  0.33333333  0.33333333  1
  O  O215  1  0.18187433  0.51520767  0.66666667  1
  O  O216  1  0.33333333  0.13153867  0.66666667  1
  O  O217  1  0.79820533  0.66666667  0.66666667  1
  O  O218  1  0.53512800  0.53512800  0.00000000  1
  O  O219  1  0.96739800  0.70615100  0.74618700  1
  O  O220  1  0.73875300  0.03260200  0.74618700  1
  O  O221  1  0.29384900  0.26124700  0.74618700  1
  O  O222  1  0.59458033  0.96051567  0.92047967  1
  O  O223  1  0.03948433  0.63406467  0.92047967  1
  O  O224  1  0.36593533  0.40541967  0.92047967  1
  O  O225  1  0.46498900  0.29727200  0.98311300  1
  O  O226  1  0.83228300  0.53501100  0.98311300  1
  O  O227  1  0.70272800  0.16771700  0.98311300  1
  O  O228  1  0.50105033  0.36939467  0.68355367  1
  O  O229  1  0.63060533  0.13165567  0.68355367  1
  O  O230  1  0.86834433  0.49894967  0.68355367  1
  O  O231  1  0.53350867  0.13638033  0.90566233  1
  O  O232  1  0.60287167  0.46649133  0.90566233  1
  O  O233  1  0.86361967  0.39712833  0.90566233  1
  O  O234  1  0.73046167  0.53028633  0.76100433  1
  O  O235  1  0.46971367  0.20017533  0.76100433  1
  O  O236  1  0.79982467  0.26953833  0.76100433  1
  O  O237  1  0.40009567  0.15276933  0.07216633  1
  O  O238  1  0.75267367  0.59990433  0.07216633  1
  O  O239  1  0.84723067  0.24732633  0.07216633  1
  O  O240  1  0.58065967  0.51389733  0.59450033  1
  O  O241  1  0.48610267  0.06676233  0.59450033  1
  O  O242  1  0.93323767  0.41934033  0.59450033  1
  O  O243  1  0.91525933  0.77684367  0.86306267  1
  O  O244  1  0.86158433  0.08474067  0.86306267  1
  O  O245  1  0.22315633  0.13841567  0.86306267  1
  O  O246  1  0.47174900  0.88982300  0.80360400  1
  O  O247  1  0.11017700  0.58192600  0.80360400  1
  O  O248  1  0.41807400  0.52825100  0.80360400  1
  O  O249  1  0.33333333  0.81812567  0.66666667  1
  O  O250  1  0.48479233  0.66666667  0.66666667  1
  O  O251  1  0.84854100  0.84854100  0.00000000  1
