# generated using pymatgen
data_H13S2N3O8
_symmetry_space_group_name_H-M   'P 1'
_cell_length_a   15.68856400
_cell_length_b   5.89225000
_cell_length_c   10.35338843
_cell_angle_alpha   90.00000000
_cell_angle_beta   100.31917061
_cell_angle_gamma   90.00000000
_symmetry_Int_Tables_number   1
_chemical_formula_structural   H13S2N3O8
_chemical_formula_sum   'H52 S8 N12 O32'
_cell_volume   941.59640185
_cell_formula_units_Z   4
loop_
 _symmetry_equiv_pos_site_id
 _symmetry_equiv_pos_as_xyz
  1  'x, y, z'
loop_
 _atom_site_type_symbol
 _atom_site_label
 _atom_site_symmetry_multiplicity
 _atom_site_fract_x
 _atom_site_fract_y
 _atom_site_fract_z
 _atom_site_occupancy
  H  H0  1  0.53217350  0.87851450  0.82478000  1
  H  H1  1  0.53217350  0.12148550  0.32478000  1
  H  H2  1  0.96782650  0.62148550  0.17522000  1
  H  H3  1  0.96782650  0.37851450  0.67522000  1
  H  H4  1  0.54628600  0.67777000  0.71786200  1
  H  H5  1  0.54628600  0.32223000  0.21786200  1
  H  H6  1  0.95371400  0.82223000  0.28213800  1
  H  H7  1  0.95371400  0.17777000  0.78213800  1
  H  H8  1  0.67486250  0.80516150  0.24302700  1
  H  H9  1  0.67486250  0.19483850  0.74302700  1
  H  H10  1  0.82513750  0.69483850  0.75697300  1
  H  H11  1  0.82513750  0.30516150  0.25697300  1
  H  H12  1  0.75635000  0.80193200  0.15585900  1
  H  H13  1  0.75635000  0.19806800  0.65585900  1
  H  H14  1  0.74365000  0.69806800  0.84414100  1
  H  H15  1  0.74365000  0.30193200  0.34414100  1
  H  H16  1  0.65854650  0.88864250  0.08381600  1
  H  H17  1  0.65854650  0.11135750  0.58381600  1
  H  H18  1  0.84145350  0.61135750  0.91618400  1
  H  H19  1  0.84145350  0.38864250  0.41618400  1
  H  H20  1  0.67411250  0.60914850  0.12434800  1
  H  H21  1  0.67411250  0.39085150  0.62434800  1
  H  H22  1  0.82588750  0.89085150  0.87565200  1
  H  H23  1  0.82588750  0.10914850  0.37565200  1
  H  H24  1  0.00000000  0.00000000  0.50000000  1
  H  H25  1  0.00000000  0.00000000  0.00000000  1
  H  H26  1  0.03217350  0.37851450  0.82478000  1
  H  H27  1  0.03217350  0.62148550  0.32478000  1
  H  H28  1  0.46782650  0.12148550  0.17522000  1
  H  H29  1  0.46782650  0.87851450  0.67522000  1
  H  H30  1  0.04628600  0.17777000  0.71786200  1
  H  H31  1  0.04628600  0.82223000  0.21786200  1
  H  H32  1  0.45371400  0.32223000  0.28213800  1
  H  H33  1  0.45371400  0.67777000  0.78213800  1
  H  H34  1  0.17486250  0.30516150  0.24302700  1
  H  H35  1  0.17486250  0.69483850  0.74302700  1
  H  H36  1  0.32513750  0.19483850  0.75697300  1
  H  H37  1  0.32513750  0.80516150  0.25697300  1
  H  H38  1  0.25635000  0.30193200  0.15585900  1
  H  H39  1  0.25635000  0.69806800  0.65585900  1
  H  H40  1  0.24365000  0.19806800  0.84414100  1
  H  H41  1  0.24365000  0.80193200  0.34414100  1
  H  H42  1  0.15854650  0.38864250  0.08381600  1
  H  H43  1  0.15854650  0.61135750  0.58381600  1
  H  H44  1  0.34145350  0.11135750  0.91618400  1
  H  H45  1  0.34145350  0.88864250  0.41618400  1
  H  H46  1  0.17411250  0.10914850  0.12434800  1
  H  H47  1  0.17411250  0.89085150  0.62434800  1
  H  H48  1  0.32588750  0.39085150  0.87565200  1
  H  H49  1  0.32588750  0.60914850  0.37565200  1
  H  H50  1  0.50000000  0.50000000  0.50000000  1
  H  H51  1  0.50000000  0.50000000  0.00000000  1
  S  S52  1  0.61261050  0.29272550  0.96121500  1
  S  S53  1  0.61261050  0.70727450  0.46121500  1
  S  S54  1  0.88738950  0.20727450  0.03878500  1
  S  S55  1  0.88738950  0.79272550  0.53878500  1
  S  S56  1  0.11261050  0.79272550  0.96121500  1
  S  S57  1  0.11261050  0.20727450  0.46121500  1
  S  S58  1  0.38738950  0.70727450  0.03878500  1
  S  S59  1  0.38738950  0.29272550  0.53878500  1
  N  N60  1  0.00000000  0.72328100  0.25000000  1
  N  N61  1  0.00000000  0.27671900  0.75000000  1
  N  N62  1  0.69091600  0.77639100  0.15190900  1
  N  N63  1  0.69091600  0.22360900  0.65190900  1
  N  N64  1  0.80908400  0.72360900  0.84809100  1
  N  N65  1  0.80908400  0.27639100  0.34809100  1
  N  N66  1  0.50000000  0.22328100  0.25000000  1
  N  N67  1  0.50000000  0.77671900  0.75000000  1
  N  N68  1  0.19091600  0.27639100  0.15190900  1
  N  N69  1  0.19091600  0.72360900  0.65190900  1
  N  N70  1  0.30908400  0.22360900  0.84809100  1
  N  N71  1  0.30908400  0.77639100  0.34809100  1
  O  O72  1  0.64945800  0.47747100  0.89229200  1
  O  O73  1  0.64945800  0.52252900  0.39229200  1
  O  O74  1  0.85054200  0.02252900  0.10770800  1
  O  O75  1  0.85054200  0.97747100  0.60770800  1
  O  O76  1  0.51365300  0.32684300  0.94443700  1
  O  O77  1  0.51365300  0.67315700  0.44443700  1
  O  O78  1  0.98634700  0.17315700  0.05556300  1
  O  O79  1  0.98634700  0.82684300  0.55556300  1
  O  O80  1  0.64800150  0.29773050  0.10426600  1
  O  O81  1  0.64800150  0.70226950  0.60426600  1
  O  O82  1  0.85199850  0.20226950  0.89573400  1
  O  O83  1  0.85199850  0.79773050  0.39573400  1
  O  O84  1  0.62497300  0.06731300  0.90304400  1
  O  O85  1  0.62497300  0.93268700  0.40304400  1
  O  O86  1  0.87502700  0.43268700  0.09695600  1
  O  O87  1  0.87502700  0.56731300  0.59695600  1
  O  O88  1  0.14945800  0.97747100  0.89229200  1
  O  O89  1  0.14945800  0.02252900  0.39229200  1
  O  O90  1  0.35054200  0.52252900  0.10770800  1
  O  O91  1  0.35054200  0.47747100  0.60770800  1
  O  O92  1  0.01365300  0.82684300  0.94443700  1
  O  O93  1  0.01365300  0.17315700  0.44443700  1
  O  O94  1  0.48634700  0.67315700  0.05556300  1
  O  O95  1  0.48634700  0.32684300  0.55556300  1
  O  O96  1  0.14800150  0.79773050  0.10426600  1
  O  O97  1  0.14800150  0.20226950  0.60426600  1
  O  O98  1  0.35199850  0.70226950  0.89573400  1
  O  O99  1  0.35199850  0.29773050  0.39573400  1
  O  O100  1  0.12497300  0.56731300  0.90304400  1
  O  O101  1  0.12497300  0.43268700  0.40304400  1
  O  O102  1  0.37502700  0.93268700  0.09695600  1
  O  O103  1  0.37502700  0.06731300  0.59695600  1
