# generated using pymatgen
data_Li2FeNi3O8
_symmetry_space_group_name_H-M   'P 1'
_cell_length_a   5.64094575
_cell_length_b   9.96287215
_cell_length_c   9.29208632
_cell_angle_alpha   90.00000000
_cell_angle_beta   90.00000000
_cell_angle_gamma   90.00000000
_symmetry_Int_Tables_number   1
_chemical_formula_structural   Li2FeNi3O8
_chemical_formula_sum   'Li8 Fe4 Ni12 O32'
_cell_volume   522.21544910
_cell_formula_units_Z   4
loop_
 _symmetry_equiv_pos_site_id
 _symmetry_equiv_pos_as_xyz
  1  'x, y, z'
loop_
 _atom_site_type_symbol
 _atom_site_label
 _atom_site_symmetry_multiplicity
 _atom_site_fract_x
 _atom_site_fract_y
 _atom_site_fract_z
 _atom_site_occupancy
  Li  Li0  1  0.00000000  0.33379850  0.10727200  1
  Li  Li1  1  0.00000000  0.00177200  0.00164100  1
  Li  Li2  1  0.50000000  0.49822800  0.50164100  1
  Li  Li3  1  0.50000000  0.16620150  0.60727200  1
  Li  Li4  1  0.50000000  0.83379850  0.10727200  1
  Li  Li5  1  0.50000000  0.50177200  0.00164100  1
  Li  Li6  1  0.00000000  0.99822800  0.50164100  1
  Li  Li7  1  0.00000000  0.66620150  0.60727200  1
  Fe  Fe8  1  0.00000000  0.33554750  0.50672800  1
  Fe  Fe9  1  0.50000000  0.16445250  0.00672800  1
  Fe  Fe10  1  0.50000000  0.83554750  0.50672800  1
  Fe  Fe11  1  0.00000000  0.66445250  0.00672800  1
  Ni  Ni12  1  0.75047300  0.41483350  0.78664000  1
  Ni  Ni13  1  0.24952700  0.41483350  0.78664000  1
  Ni  Ni14  1  0.00000000  0.16940350  0.78354800  1
  Ni  Ni15  1  0.50000000  0.33059650  0.28354800  1
  Ni  Ni16  1  0.25047300  0.08516650  0.28664000  1
  Ni  Ni17  1  0.74952700  0.08516650  0.28664000  1
  Ni  Ni18  1  0.25047300  0.91483350  0.78664000  1
  Ni  Ni19  1  0.74952700  0.91483350  0.78664000  1
  Ni  Ni20  1  0.50000000  0.66940350  0.78354800  1
  Ni  Ni21  1  0.00000000  0.83059650  0.28354800  1
  Ni  Ni22  1  0.75047300  0.58516650  0.28664000  1
  Ni  Ni23  1  0.24952700  0.58516650  0.28664000  1
  O  O24  1  0.73748100  0.42156550  0.39464400  1
  O  O25  1  0.00000000  0.48243850  0.66945500  1
  O  O26  1  0.00000000  0.34290600  0.89494500  1
  O  O27  1  0.50000000  0.48936200  0.68835600  1
  O  O28  1  0.00000000  0.01063800  0.18835600  1
  O  O29  1  0.26251900  0.42156550  0.39464400  1
  O  O30  1  0.77401300  0.26073750  0.66824100  1
  O  O31  1  0.22598700  0.26073750  0.66824100  1
  O  O32  1  0.50000000  0.33987450  0.89828700  1
  O  O33  1  0.00000000  0.16012550  0.39828700  1
  O  O34  1  0.27401300  0.23926250  0.16824100  1
  O  O35  1  0.72598700  0.23926250  0.16824100  1
  O  O36  1  0.50000000  0.15709400  0.39494500  1
  O  O37  1  0.23748100  0.07843450  0.89464400  1
  O  O38  1  0.50000000  0.01756150  0.16945500  1
  O  O39  1  0.76251900  0.07843450  0.89464400  1
  O  O40  1  0.23748100  0.92156550  0.39464400  1
  O  O41  1  0.50000000  0.98243850  0.66945500  1
  O  O42  1  0.50000000  0.84290600  0.89494500  1
  O  O43  1  0.00000000  0.98936200  0.68835600  1
  O  O44  1  0.50000000  0.51063800  0.18835600  1
  O  O45  1  0.76251900  0.92156550  0.39464400  1
  O  O46  1  0.27401300  0.76073750  0.66824100  1
  O  O47  1  0.72598700  0.76073750  0.66824100  1
  O  O48  1  0.00000000  0.83987450  0.89828700  1
  O  O49  1  0.50000000  0.66012550  0.39828700  1
  O  O50  1  0.77401300  0.73926250  0.16824100  1
  O  O51  1  0.22598700  0.73926250  0.16824100  1
  O  O52  1  0.00000000  0.65709400  0.39494500  1
  O  O53  1  0.73748100  0.57843450  0.89464400  1
  O  O54  1  0.00000000  0.51756150  0.16945500  1
  O  O55  1  0.26251900  0.57843450  0.89464400  1
