# generated using pymatgen
data_Rb2O2
_symmetry_space_group_name_H-M   'P 1'
_cell_length_a   4.26769800
_cell_length_b   6.06830200
_cell_length_c   7.19564400
_cell_angle_alpha   90.00000000
_cell_angle_beta   90.00000000
_cell_angle_gamma   90.00000000
_symmetry_Int_Tables_number   1
_chemical_formula_structural   Rb2O2
_chemical_formula_sum   'Rb4 O4'
_cell_volume   186.35048793
_cell_formula_units_Z   2
loop_
 _symmetry_equiv_pos_site_id
 _symmetry_equiv_pos_as_xyz
  1  'x, y, z'
loop_
 _atom_site_type_symbol
 _atom_site_label
 _atom_site_symmetry_multiplicity
 _atom_site_fract_x
 _atom_site_fract_y
 _atom_site_fract_z
 _atom_site_occupancy
  Rb  Rb0  1  0.00000000  0.00000000  0.25879200  1
  Rb  Rb1  1  0.00000000  0.00000000  0.74120800  1
  Rb  Rb2  1  0.50000000  0.50000000  0.75879200  1
  Rb  Rb3  1  0.50000000  0.50000000  0.24120800  1
  O  O4  1  0.50000000  0.12584000  0.50000000  1
  O  O5  1  0.50000000  0.87416000  0.50000000  1
  O  O6  1  0.00000000  0.62584000  0.00000000  1
  O  O7  1  0.00000000  0.37416000  0.00000000  1
