# generated using pymatgen
data_Li4V2Co3Sb3O16
_symmetry_space_group_name_H-M   'P 1'
_cell_length_a   10.65332209
_cell_length_b   6.09815665
_cell_length_c   9.74016335
_cell_angle_alpha   90.00000000
_cell_angle_beta   90.91001014
_cell_angle_gamma   90.00000000
_symmetry_Int_Tables_number   1
_chemical_formula_structural   Li4V2Co3Sb3O16
_chemical_formula_sum   'Li8 V4 Co6 Sb6 O32'
_cell_volume   632.69600858
_cell_formula_units_Z   2
loop_
 _symmetry_equiv_pos_site_id
 _symmetry_equiv_pos_as_xyz
  1  'x, y, z'
loop_
 _atom_site_type_symbol
 _atom_site_label
 _atom_site_symmetry_multiplicity
 _atom_site_fract_x
 _atom_site_fract_y
 _atom_site_fract_z
 _atom_site_occupancy
  Li  Li0  1  0.16963500  0.50000000  0.88670400  1
  Li  Li1  1  0.47830350  0.50000000  0.98058300  1
  Li  Li2  1  0.49392350  0.50000000  0.50788800  1
  Li  Li3  1  0.32449950  0.00000000  0.40338400  1
  Li  Li4  1  0.66963500  0.00000000  0.88670400  1
  Li  Li5  1  0.97830350  0.00000000  0.98058300  1
  Li  Li6  1  0.99392350  0.00000000  0.50788800  1
  Li  Li7  1  0.82449950  0.50000000  0.40338400  1
  V  V8  1  0.17835400  0.50000000  0.49999800  1
  V  V9  1  0.34729450  0.00000000  0.97561800  1
  V  V10  1  0.67835400  0.00000000  0.49999800  1
  V  V11  1  0.84729450  0.50000000  0.97561800  1
  Co  Co12  1  0.32911000  0.50000000  0.21546700  1
  Co  Co13  1  0.42545350  0.76719550  0.71661500  1
  Co  Co14  1  0.42545350  0.23280450  0.71661500  1
  Co  Co15  1  0.82911000  0.00000000  0.21546700  1
  Co  Co16  1  0.92545350  0.26719550  0.71661500  1
  Co  Co17  1  0.92545350  0.73280450  0.71661500  1
  Sb  Sb18  1  0.08139550  0.25251250  0.21519600  1
  Sb  Sb19  1  0.08139550  0.74748750  0.21519600  1
  Sb  Sb20  1  0.17662600  0.00000000  0.71336000  1
  Sb  Sb21  1  0.58139550  0.75251250  0.21519600  1
  Sb  Sb22  1  0.58139550  0.24748750  0.21519600  1
  Sb  Sb23  1  0.67662600  0.50000000  0.71336000  1
  O  O24  1  0.09263000  0.24790000  0.59275800  1
  O  O25  1  0.01366750  0.50000000  0.33858600  1
  O  O26  1  0.15633200  0.50000000  0.10289900  1
  O  O27  1  0.00381250  0.00000000  0.32027300  1
  O  O28  1  0.00823050  0.00000000  0.79784400  1
  O  O29  1  0.09263000  0.75210000  0.59275800  1
  O  O30  1  0.23052950  0.27539850  0.33965000  1
  O  O31  1  0.23052950  0.72460150  0.33965000  1
  O  O32  1  0.15656300  0.00000000  0.10333900  1
  O  O33  1  0.32295750  0.50000000  0.58132000  1
  O  O34  1  0.25835800  0.78197400  0.84453000  1
  O  O35  1  0.25835800  0.21802600  0.84453000  1
  O  O36  1  0.33235500  0.00000000  0.60346200  1
  O  O37  1  0.42334350  0.74306850  0.10358100  1
  O  O38  1  0.48660700  0.00000000  0.85281300  1
  O  O39  1  0.42334350  0.25693150  0.10358100  1
  O  O40  1  0.59263000  0.74790000  0.59275800  1
  O  O41  1  0.51366750  0.00000000  0.33858600  1
  O  O42  1  0.65633200  0.00000000  0.10289900  1
  O  O43  1  0.50381250  0.50000000  0.32027300  1
  O  O44  1  0.50823050  0.50000000  0.79784400  1
  O  O45  1  0.59263000  0.25210000  0.59275800  1
  O  O46  1  0.73052950  0.77539850  0.33965000  1
  O  O47  1  0.73052950  0.22460150  0.33965000  1
  O  O48  1  0.65656300  0.50000000  0.10333900  1
  O  O49  1  0.82295750  0.00000000  0.58132000  1
  O  O50  1  0.75835800  0.28197400  0.84453000  1
  O  O51  1  0.75835800  0.71802600  0.84453000  1
  O  O52  1  0.83235500  0.50000000  0.60346200  1
  O  O53  1  0.92334350  0.24306850  0.10358100  1
  O  O54  1  0.98660700  0.50000000  0.85281300  1
  O  O55  1  0.92334350  0.75693150  0.10358100  1
