# generated using pymatgen
data_Hf2N2O
_symmetry_space_group_name_H-M   'P 1'
_cell_length_a   13.70239600
_cell_length_b   3.25723400
_cell_length_c   8.17680185
_cell_angle_alpha   90.00000000
_cell_angle_beta   100.45594187
_cell_angle_gamma   90.00000000
_symmetry_Int_Tables_number   1
_chemical_formula_structural   Hf2N2O
_chemical_formula_sum   'Hf12 N12 O6'
_cell_volume   358.88626054
_cell_formula_units_Z   6
loop_
 _symmetry_equiv_pos_site_id
 _symmetry_equiv_pos_as_xyz
  1  'x, y, z'
loop_
 _atom_site_type_symbol
 _atom_site_label
 _atom_site_symmetry_multiplicity
 _atom_site_fract_x
 _atom_site_fract_y
 _atom_site_fract_z
 _atom_site_occupancy
  Hf  Hf0  1  0.96974200  0.00000000  0.19106900  1
  Hf  Hf1  1  0.87079600  0.50000000  0.52535300  1
  Hf  Hf2  1  0.80385700  0.50000000  0.86772400  1
  Hf  Hf3  1  0.69614300  0.00000000  0.13227600  1
  Hf  Hf4  1  0.62920400  0.00000000  0.47464700  1
  Hf  Hf5  1  0.53025800  0.50000000  0.80893100  1
  Hf  Hf6  1  0.46974200  0.50000000  0.19106900  1
  Hf  Hf7  1  0.37079600  0.00000000  0.52535300  1
  Hf  Hf8  1  0.30385700  0.00000000  0.86772400  1
  Hf  Hf9  1  0.19614300  0.50000000  0.13227600  1
  Hf  Hf10  1  0.12920400  0.50000000  0.47464700  1
  Hf  Hf11  1  0.03025800  0.00000000  0.80893100  1
  N  N12  1  0.96484200  0.50000000  0.34335100  1
  N  N13  1  0.82822900  0.00000000  0.03566900  1
  N  N14  1  0.87338000  0.00000000  0.71454800  1
  N  N15  1  0.62662000  0.50000000  0.28545200  1
  N  N16  1  0.67177100  0.50000000  0.96433100  1
  N  N17  1  0.53515800  0.00000000  0.65664900  1
  N  N18  1  0.46484200  0.00000000  0.34335100  1
  N  N19  1  0.32822900  0.50000000  0.03566900  1
  N  N20  1  0.37338000  0.50000000  0.71454800  1
  N  N21  1  0.12662000  0.00000000  0.28545200  1
  N  N22  1  0.17177100  0.00000000  0.96433100  1
  N  N23  1  0.03515800  0.50000000  0.65664900  1
  O  O24  1  0.79017100  0.00000000  0.38258700  1
  O  O25  1  0.70982900  0.50000000  0.61741300  1
  O  O26  1  0.00000000  0.50000000  0.00000000  1
  O  O27  1  0.29017100  0.50000000  0.38258700  1
  O  O28  1  0.20982900  0.00000000  0.61741300  1
  O  O29  1  0.50000000  0.00000000  0.00000000  1
