# generated using pymatgen
data_La2B4O9
_symmetry_space_group_name_H-M   'P 1'
_cell_length_a   6.39377200
_cell_length_b   6.74158523
_cell_length_c   7.76321777
_cell_angle_alpha   101.59617109
_cell_angle_beta   96.61736245
_cell_angle_gamma   102.41085571
_symmetry_Int_Tables_number   1
_chemical_formula_structural   La2B4O9
_chemical_formula_sum   'La4 B8 O18'
_cell_volume   315.71596875
_cell_formula_units_Z   2
loop_
 _symmetry_equiv_pos_site_id
 _symmetry_equiv_pos_as_xyz
  1  'x, y, z'
loop_
 _atom_site_type_symbol
 _atom_site_label
 _atom_site_symmetry_multiplicity
 _atom_site_fract_x
 _atom_site_fract_y
 _atom_site_fract_z
 _atom_site_occupancy
  La  La0  1  0.11351400  0.32242000  0.64352800  1
  La  La1  1  0.45601500  0.90743400  0.71783200  1
  La  La2  1  0.54398500  0.09256600  0.28216800  1
  La  La3  1  0.88648600  0.67758000  0.35647200  1
  B  B4  1  0.00532700  0.84527100  0.81769100  1
  B  B5  1  0.27419600  0.66342500  0.01905800  1
  B  B6  1  0.37196400  0.64081000  0.34248900  1
  B  B7  1  0.33816800  0.32837100  0.07608600  1
  B  B8  1  0.66183200  0.67162900  0.92391400  1
  B  B9  1  0.62803600  0.35919000  0.65751100  1
  B  B10  1  0.72580400  0.33657500  0.98094200  1
  B  B11  1  0.99467300  0.15472900  0.18230900  1
  O  O12  1  0.06066500  0.94375800  0.68433200  1
  O  O13  1  0.14231900  0.72153600  0.86845700  1
  O  O14  1  0.23111400  0.43697000  0.96534000  1
  O  O15  1  0.22421600  0.59328500  0.46900300  1
  O  O16  1  0.24335900  0.73122000  0.20478600  1
  O  O17  1  0.18472300  0.14631700  0.11530000  1
  O  O18  1  0.43131900  0.19147100  0.56553700  1
  O  O19  1  0.49544100  0.22508600  0.98846900  1
  O  O20  1  0.54813300  0.53565600  0.75052400  1
  O  O21  1  0.45186700  0.46434400  0.24947600  1
  O  O22  1  0.50455900  0.77491400  0.01153100  1
  O  O23  1  0.56868100  0.80852900  0.43446300  1
  O  O24  1  0.81527700  0.85368300  0.88470000  1
  O  O25  1  0.75664100  0.26878000  0.79521400  1
  O  O26  1  0.77578400  0.40671500  0.53099700  1
  O  O27  1  0.76888600  0.56303000  0.03466000  1
  O  O28  1  0.85768100  0.27846400  0.13154300  1
  O  O29  1  0.93933500  0.05624200  0.31566800  1
