# generated using pymatgen
data_CsSi3HO7
_symmetry_space_group_name_H-M   'P 1'
_cell_length_a   4.99321500
_cell_length_b   10.54835100
_cell_length_c   14.39865700
_cell_angle_alpha   90.00000000
_cell_angle_beta   90.00000000
_cell_angle_gamma   90.00000000
_symmetry_Int_Tables_number   1
_chemical_formula_structural   CsSi3HO7
_chemical_formula_sum   'Cs4 Si12 H4 O28'
_cell_volume   758.37991986
_cell_formula_units_Z   4
loop_
 _symmetry_equiv_pos_site_id
 _symmetry_equiv_pos_as_xyz
  1  'x, y, z'
loop_
 _atom_site_type_symbol
 _atom_site_label
 _atom_site_symmetry_multiplicity
 _atom_site_fract_x
 _atom_site_fract_y
 _atom_site_fract_z
 _atom_site_occupancy
  Cs  Cs0  1  0.03062700  0.08123500  0.74986500  1
  Cs  Cs1  1  0.46937300  0.91876500  0.24986500  1
  Cs  Cs2  1  0.53062700  0.41876500  0.25013500  1
  Cs  Cs3  1  0.96937300  0.58123500  0.75013500  1
  Si  Si4  1  0.02115600  0.91609400  0.00779000  1
  Si  Si5  1  0.02583000  0.65130400  0.10765800  1
  Si  Si6  1  0.10295300  0.20384300  0.05584500  1
  Si  Si7  1  0.39704700  0.79615700  0.55584500  1
  Si  Si8  1  0.47417000  0.34869600  0.60765800  1
  Si  Si9  1  0.47884400  0.08390600  0.50779000  1
  Si  Si10  1  0.52115600  0.58390600  0.99221000  1
  Si  Si11  1  0.52583000  0.84869600  0.89234200  1
  Si  Si12  1  0.60295300  0.29615700  0.94415500  1
  Si  Si13  1  0.89704700  0.70384300  0.44415500  1
  Si  Si14  1  0.97417000  0.15130400  0.39234200  1
  Si  Si15  1  0.97884400  0.41609400  0.49221000  1
  H  H16  1  0.02682000  0.69569800  0.28682200  1
  H  H17  1  0.47318000  0.30430200  0.78682200  1
  H  H18  1  0.52682000  0.80430200  0.71317800  1
  H  H19  1  0.97318000  0.19569800  0.21317800  1
  O  O20  1  0.02586700  0.25946000  0.15692700  1
  O  O21  1  0.05435200  0.80574800  0.08647900  1
  O  O22  1  0.09316300  0.75031700  0.52881900  1
  O  O23  1  0.09871000  0.61967400  0.21225800  1
  O  O24  1  0.10072200  0.04765000  0.05955500  1
  O  O25  1  0.21378000  0.88916200  0.91814800  1
  O  O26  1  0.21388000  0.57671700  0.03003000  1
  O  O27  1  0.28612000  0.42328300  0.53003000  1
  O  O28  1  0.28622000  0.11083800  0.41814800  1
  O  O29  1  0.39927800  0.95235000  0.55955500  1
  O  O30  1  0.40129000  0.38032600  0.71225800  1
  O  O31  1  0.40683700  0.24968300  0.02881900  1
  O  O32  1  0.44564800  0.19425200  0.58647900  1
  O  O33  1  0.47413300  0.74054000  0.65692700  1
  O  O34  1  0.52586700  0.24054000  0.84307300  1
  O  O35  1  0.55435200  0.69425200  0.91352100  1
  O  O36  1  0.59316300  0.74968300  0.47118100  1
  O  O37  1  0.59871000  0.88032600  0.78774200  1
  O  O38  1  0.60072200  0.45235000  0.94044500  1
  O  O39  1  0.71378000  0.61083800  0.08185200  1
  O  O40  1  0.71388000  0.92328300  0.96997000  1
  O  O41  1  0.78612000  0.07671700  0.46997000  1
  O  O42  1  0.78622000  0.38916200  0.58185200  1
  O  O43  1  0.89927800  0.54765000  0.44044500  1
  O  O44  1  0.90129000  0.11967400  0.28774200  1
  O  O45  1  0.90683700  0.25031700  0.97118100  1
  O  O46  1  0.94564800  0.30574800  0.41352100  1
  O  O47  1  0.97413300  0.75946000  0.34307300  1
