# generated using pymatgen
data_Na2FePCO7
_symmetry_space_group_name_H-M   'P 1'
_cell_length_a   10.36318100
_cell_length_b   6.53056700
_cell_length_c   10.49619138
_cell_angle_alpha   90.00000000
_cell_angle_beta   120.21099904
_cell_angle_gamma   90.00000000
_symmetry_Int_Tables_number   1
_chemical_formula_structural   Na2FePCO7
_chemical_formula_sum   'Na8 Fe4 P4 C4 O28'
_cell_volume   613.87370495
_cell_formula_units_Z   4
loop_
 _symmetry_equiv_pos_site_id
 _symmetry_equiv_pos_as_xyz
  1  'x, y, z'
loop_
 _atom_site_type_symbol
 _atom_site_label
 _atom_site_symmetry_multiplicity
 _atom_site_fract_x
 _atom_site_fract_y
 _atom_site_fract_z
 _atom_site_occupancy
  Na  Na0  1  0.08026600  0.73946900  0.42264000  1
  Na  Na1  1  0.08026600  0.76053100  0.92264000  1
  Na  Na2  1  0.26350600  0.51355600  0.25856300  1
  Na  Na3  1  0.26350600  0.98644400  0.75856300  1
  Na  Na4  1  0.73649400  0.01355600  0.24143700  1
  Na  Na5  1  0.73649400  0.48644400  0.74143700  1
  Na  Na6  1  0.91973400  0.23946900  0.07736000  1
  Na  Na7  1  0.91973400  0.26053100  0.57736000  1
  Fe  Fe8  1  0.34549400  0.24688300  0.06458200  1
  Fe  Fe9  1  0.34549400  0.25311700  0.56458200  1
  Fe  Fe10  1  0.65450600  0.74688300  0.43541800  1
  Fe  Fe11  1  0.65450600  0.75311700  0.93541800  1
  P  P12  1  0.42423000  0.74816100  0.06673700  1
  P  P13  1  0.42423000  0.75183900  0.56673700  1
  P  P14  1  0.57577000  0.24816100  0.43326300  1
  P  P15  1  0.57577000  0.25183900  0.93326300  1
  C  C16  1  0.06464500  0.24328400  0.39702700  1
  C  C17  1  0.06464500  0.25671600  0.89702700  1
  C  C18  1  0.93535500  0.74328400  0.10297300  1
  C  C19  1  0.93535500  0.75671600  0.60297300  1
  O  O20  1  0.07571600  0.73791200  0.18679900  1
  O  O21  1  0.07571600  0.76208800  0.68679900  1
  O  O22  1  0.12867000  0.26633400  0.04151400  1
  O  O23  1  0.12867000  0.23366600  0.54151400  1
  O  O24  1  0.15699900  0.26022000  0.34679300  1
  O  O25  1  0.15699900  0.23978000  0.84679300  1
  O  O26  1  0.32246900  0.93852600  0.03816100  1
  O  O27  1  0.32619400  0.56134600  0.05380600  1
  O  O28  1  0.32619400  0.93865400  0.55380600  1
  O  O29  1  0.32246900  0.56147400  0.53816100  1
  O  O30  1  0.43194400  0.25780500  0.28086200  1
  O  O31  1  0.43194400  0.24219500  0.78086200  1
  O  O32  1  0.46909100  0.75157500  0.44534500  1
  O  O33  1  0.46909100  0.74842500  0.94534500  1
  O  O34  1  0.53090900  0.25157500  0.05465500  1
  O  O35  1  0.53090900  0.24842500  0.55465500  1
  O  O36  1  0.56805600  0.75780500  0.21913800  1
  O  O37  1  0.56805600  0.74219500  0.71913800  1
  O  O38  1  0.67753100  0.43852600  0.46183900  1
  O  O39  1  0.67380600  0.06134600  0.44619400  1
  O  O40  1  0.67753100  0.06147400  0.96183900  1
  O  O41  1  0.67380600  0.43865400  0.94619400  1
  O  O42  1  0.84300100  0.76022000  0.15320700  1
  O  O43  1  0.84300100  0.73978000  0.65320700  1
  O  O44  1  0.87133000  0.76633400  0.45848600  1
  O  O45  1  0.87133000  0.73366600  0.95848600  1
  O  O46  1  0.92428400  0.23791200  0.31320100  1
  O  O47  1  0.92428400  0.26208800  0.81320100  1
