# generated using pymatgen
data_LiMnF4
_symmetry_space_group_name_H-M   'P 1'
_cell_length_a   15.25017800
_cell_length_b   3.98063400
_cell_length_c   12.54865280
_cell_angle_alpha   90.00000000
_cell_angle_beta   122.92579867
_cell_angle_gamma   90.00000000
_symmetry_Int_Tables_number   1
_chemical_formula_structural   LiMnF4
_chemical_formula_sum   'Li8 Mn8 F32'
_cell_volume   639.41143625
_cell_formula_units_Z   8
loop_
 _symmetry_equiv_pos_site_id
 _symmetry_equiv_pos_as_xyz
  1  'x, y, z'
loop_
 _atom_site_type_symbol
 _atom_site_label
 _atom_site_symmetry_multiplicity
 _atom_site_fract_x
 _atom_site_fract_y
 _atom_site_fract_z
 _atom_site_occupancy
  Li  Li0  1  0.31409700  0.50000000  0.83273300  1
  Li  Li1  1  0.14933300  0.50000000  0.32784000  1
  Li  Li2  1  0.85066700  0.50000000  0.67216000  1
  Li  Li3  1  0.68590300  0.50000000  0.16726700  1
  Li  Li4  1  0.81409700  0.00000000  0.83273300  1
  Li  Li5  1  0.64933300  0.00000000  0.32784000  1
  Li  Li6  1  0.35066700  0.00000000  0.67216000  1
  Li  Li7  1  0.18590300  0.00000000  0.16726700  1
  Mn  Mn8  1  0.04391500  0.00000000  0.87168700  1
  Mn  Mn9  1  0.14572100  0.00000000  0.64346000  1
  Mn  Mn10  1  0.85427900  0.00000000  0.35654000  1
  Mn  Mn11  1  0.95608500  0.00000000  0.12831300  1
  Mn  Mn12  1  0.54391500  0.50000000  0.87168700  1
  Mn  Mn13  1  0.64572100  0.50000000  0.64346000  1
  Mn  Mn14  1  0.35427900  0.50000000  0.35654000  1
  Mn  Mn15  1  0.45608500  0.50000000  0.12831300  1
  F  F16  1  0.02942300  0.50000000  0.85190500  1
  F  F17  1  0.09517700  0.00000000  0.75070700  1
  F  F18  1  0.67706500  0.50000000  0.00894200  1
  F  F19  1  0.16431100  0.50000000  0.66534400  1
  F  F20  1  0.29802000  0.00000000  0.78870400  1
  F  F21  1  0.19846800  0.00000000  0.54136900  1
  F  F22  1  0.09949200  0.00000000  0.26448500  1
  F  F23  1  0.90050800  0.00000000  0.73551500  1
  F  F24  1  0.80153200  0.00000000  0.45863100  1
  F  F25  1  0.70198000  0.00000000  0.21129600  1
  F  F26  1  0.83568900  0.50000000  0.33465600  1
  F  F27  1  0.32293500  0.50000000  0.99105800  1
  F  F28  1  0.00000000  0.00000000  0.50000000  1
  F  F29  1  0.90482300  0.00000000  0.24929300  1
  F  F30  1  0.97057700  0.50000000  0.14809500  1
  F  F31  1  0.00000000  0.00000000  0.00000000  1
  F  F32  1  0.52942300  0.00000000  0.85190500  1
  F  F33  1  0.59517700  0.50000000  0.75070700  1
  F  F34  1  0.17706500  0.00000000  0.00894200  1
  F  F35  1  0.66431100  0.00000000  0.66534400  1
  F  F36  1  0.79802000  0.50000000  0.78870400  1
  F  F37  1  0.69846800  0.50000000  0.54136900  1
  F  F38  1  0.59949200  0.50000000  0.26448500  1
  F  F39  1  0.40050800  0.50000000  0.73551500  1
  F  F40  1  0.30153200  0.50000000  0.45863100  1
  F  F41  1  0.20198000  0.50000000  0.21129600  1
  F  F42  1  0.33568900  0.00000000  0.33465600  1
  F  F43  1  0.82293500  0.00000000  0.99105800  1
  F  F44  1  0.50000000  0.50000000  0.50000000  1
  F  F45  1  0.40482300  0.50000000  0.24929300  1
  F  F46  1  0.47057700  0.00000000  0.14809500  1
  F  F47  1  0.50000000  0.50000000  0.00000000  1
