# generated using pymatgen
data_Er3TaO7
_symmetry_space_group_name_H-M   'P 1'
_cell_length_a   7.46962200
_cell_length_b   10.48832800
_cell_length_c   7.45337800
_cell_angle_alpha   90.00000000
_cell_angle_beta   90.00000000
_cell_angle_gamma   90.00000000
_symmetry_Int_Tables_number   1
_chemical_formula_structural   Er3TaO7
_chemical_formula_sum   'Er12 Ta4 O28'
_cell_volume   583.92629502
_cell_formula_units_Z   4
loop_
 _symmetry_equiv_pos_site_id
 _symmetry_equiv_pos_as_xyz
  1  'x, y, z'
loop_
 _atom_site_type_symbol
 _atom_site_label
 _atom_site_symmetry_multiplicity
 _atom_site_fract_x
 _atom_site_fract_y
 _atom_site_fract_z
 _atom_site_occupancy
  Er  Er0  1  0.73230500  0.73312500  0.74680600  1
  Er  Er1  1  0.26769500  0.73312500  0.75319400  1
  Er  Er2  1  0.52557700  0.00000000  0.50000000  1
  Er  Er3  1  0.47442300  0.00000000  0.00000000  1
  Er  Er4  1  0.73230500  0.26687500  0.25319400  1
  Er  Er5  1  0.26769500  0.26687500  0.24680600  1
  Er  Er6  1  0.23230500  0.23312500  0.74680600  1
  Er  Er7  1  0.76769500  0.23312500  0.75319400  1
  Er  Er8  1  0.02557700  0.50000000  0.50000000  1
  Er  Er9  1  0.97442300  0.50000000  0.00000000  1
  Er  Er10  1  0.23230500  0.76687500  0.25319400  1
  Er  Er11  1  0.76769500  0.76687500  0.24680600  1
  Ta  Ta12  1  0.00231900  0.00000000  0.50000000  1
  Ta  Ta13  1  0.99768100  0.00000000  0.00000000  1
  Ta  Ta14  1  0.50231900  0.50000000  0.50000000  1
  Ta  Ta15  1  0.49768100  0.50000000  0.00000000  1
  O  O16  1  0.50000000  0.43007800  0.25000000  1
  O  O17  1  0.18821350  0.12821150  0.46173400  1
  O  O18  1  0.20459700  0.12330800  0.02971900  1
  O  O19  1  0.50000000  0.13900600  0.25000000  1
  O  O20  1  0.50000000  0.12910700  0.75000000  1
  O  O21  1  0.20459700  0.87669200  0.97028100  1
  O  O22  1  0.18821350  0.87178850  0.53826600  1
  O  O23  1  0.81178650  0.12821150  0.03826600  1
  O  O24  1  0.79540300  0.12330800  0.47028100  1
  O  O25  1  0.50000000  0.87089300  0.25000000  1
  O  O26  1  0.50000000  0.86099400  0.75000000  1
  O  O27  1  0.79540300  0.87669200  0.52971900  1
  O  O28  1  0.81178650  0.87178850  0.96173400  1
  O  O29  1  0.50000000  0.56992200  0.75000000  1
  O  O30  1  0.00000000  0.93007800  0.25000000  1
  O  O31  1  0.68821350  0.62821150  0.46173400  1
  O  O32  1  0.70459700  0.62330800  0.02971900  1
  O  O33  1  0.00000000  0.63900600  0.25000000  1
  O  O34  1  0.00000000  0.62910700  0.75000000  1
  O  O35  1  0.70459700  0.37669200  0.97028100  1
  O  O36  1  0.68821350  0.37178850  0.53826600  1
  O  O37  1  0.31178650  0.62821150  0.03826600  1
  O  O38  1  0.29540300  0.62330800  0.47028100  1
  O  O39  1  0.00000000  0.37089300  0.25000000  1
  O  O40  1  0.00000000  0.36099400  0.75000000  1
  O  O41  1  0.29540300  0.37669200  0.52971900  1
  O  O42  1  0.31178650  0.37178850  0.96173400  1
  O  O43  1  0.00000000  0.06992200  0.75000000  1
