# generated using pymatgen
data_Sb3PO7
_symmetry_space_group_name_H-M   'P 1'
_cell_length_a   13.54673800
_cell_length_b   13.58910000
_cell_length_c   12.50392840
_cell_angle_alpha   90.00000000
_cell_angle_beta   109.75610805
_cell_angle_gamma   90.00000000
_symmetry_Int_Tables_number   1
_chemical_formula_structural   Sb3PO7
_chemical_formula_sum   'Sb36 P12 O84'
_cell_volume   2166.33756086
_cell_formula_units_Z   12
loop_
 _symmetry_equiv_pos_site_id
 _symmetry_equiv_pos_as_xyz
  1  'x, y, z'
loop_
 _atom_site_type_symbol
 _atom_site_label
 _atom_site_symmetry_multiplicity
 _atom_site_fract_x
 _atom_site_fract_y
 _atom_site_fract_z
 _atom_site_occupancy
  Sb  Sb0  1  0.28158600  0.15783600  0.95116500  1
  Sb  Sb1  1  0.28158600  0.84216400  0.95116500  1
  Sb  Sb2  1  0.33252800  0.15342000  0.62280200  1
  Sb  Sb3  1  0.33252800  0.84658000  0.62280200  1
  Sb  Sb4  1  0.50959200  0.31313500  0.82155900  1
  Sb  Sb5  1  0.50959200  0.68686500  0.82155900  1
  Sb  Sb6  1  0.37829900  0.84423800  0.27146400  1
  Sb  Sb7  1  0.37829900  0.15576200  0.27146400  1
  Sb  Sb8  1  0.46781850  0.35148550  0.50366300  1
  Sb  Sb9  1  0.46781850  0.64851450  0.50366300  1
  Sb  Sb10  1  0.50451800  0.33020400  0.16266900  1
  Sb  Sb11  1  0.50451800  0.66979600  0.16266900  1
  Sb  Sb12  1  0.65275900  0.83303400  0.67514800  1
  Sb  Sb13  1  0.65275900  0.16696600  0.67514800  1
  Sb  Sb14  1  0.69192200  0.18180300  0.37626100  1
  Sb  Sb15  1  0.69192200  0.81819700  0.37626100  1
  Sb  Sb16  1  0.66111550  0.17722550  0.07364800  1
  Sb  Sb17  1  0.66111550  0.82277450  0.07364800  1
  Sb  Sb18  1  0.78158600  0.65783600  0.95116500  1
  Sb  Sb19  1  0.78158600  0.34216400  0.95116500  1
  Sb  Sb20  1  0.83252800  0.65342000  0.62280200  1
  Sb  Sb21  1  0.83252800  0.34658000  0.62280200  1
  Sb  Sb22  1  0.00959200  0.81313500  0.82155900  1
  Sb  Sb23  1  0.00959200  0.18686500  0.82155900  1
  Sb  Sb24  1  0.87829900  0.34423800  0.27146400  1
  Sb  Sb25  1  0.87829900  0.65576200  0.27146400  1
  Sb  Sb26  1  0.96781850  0.85148550  0.50366300  1
  Sb  Sb27  1  0.96781850  0.14851450  0.50366300  1
  Sb  Sb28  1  0.00451800  0.83020400  0.16266900  1
  Sb  Sb29  1  0.00451800  0.16979600  0.16266900  1
  Sb  Sb30  1  0.15275900  0.33303400  0.67514800  1
  Sb  Sb31  1  0.15275900  0.66696600  0.67514800  1
  Sb  Sb32  1  0.19192200  0.68180300  0.37626100  1
  Sb  Sb33  1  0.19192200  0.31819700  0.37626100  1
  Sb  Sb34  1  0.16111550  0.67722550  0.07364800  1
  Sb  Sb35  1  0.16111550  0.32277450  0.07364800  1
  P  P36  1  0.16758400  0.00000000  0.71432500  1
  P  P37  1  0.17489300  0.00000000  0.08523200  1
  P  P38  1  0.50423300  0.00000000  0.53850900  1
  P  P39  1  0.47817400  0.00000000  0.12326600  1
  P  P40  1  0.85812300  0.00000000  0.64988600  1
  P  P41  1  0.82164400  0.00000000  0.27338400  1
  P  P42  1  0.66758400  0.50000000  0.71432500  1
  P  P43  1  0.67489300  0.50000000  0.08523200  1
  P  P44  1  0.00423300  0.50000000  0.53850900  1
  P  P45  1  0.97817400  0.50000000  0.12326600  1
  P  P46  1  0.35812300  0.50000000  0.64988600  1
  P  P47  1  0.32164400  0.50000000  0.27338400  1
  O  O48  1  0.07176600  0.00000000  0.60367600  1
  O  O49  1  0.16833350  0.90504550  0.78390000  1
  O  O50  1  0.16833350  0.09495450  0.78390000  1
  O  O51  1  0.07379200  0.00000000  0.11437500  1
  O  O52  1  0.27206400  0.00000000  0.68372100  1
  O  O53  1  0.38145550  0.78141950  0.77349900  1
  O  O54  1  0.38145550  0.21858050  0.77349900  1
  O  O55  1  0.17131500  0.09284400  0.00891000  1
  O  O56  1  0.17131500  0.90715600  0.00891000  1
  O  O57  1  0.27421000  0.00000000  0.19020000  1
  O  O58  1  0.33746900  0.25596700  0.44107300  1
  O  O59  1  0.33746900  0.74403300  0.44107300  1
  O  O60  1  0.40307000  0.00000000  0.43871000  1
  O  O61  1  0.50000600  0.00000000  0.66026900  1
  O  O62  1  0.31427300  0.76729400  0.11380300  1
  O  O63  1  0.31427300  0.23270600  0.11380300  1
  O  O64  1  0.51940000  0.25625600  0.66165800  1
  O  O65  1  0.51940000  0.74374400  0.66165800  1
  O  O66  1  0.36991300  0.00000000  0.02484000  1
  O  O67  1  0.65409950  0.76375250  0.90457400  1
  O  O68  1  0.65409950  0.23624750  0.90457400  1
  O  O69  1  0.49023550  0.26445350  0.30899900  1
  O  O70  1  0.49023550  0.73554650  0.30899900  1
  O  O71  1  0.56774700  0.90252600  0.52712000  1
  O  O72  1  0.56774700  0.09747400  0.52712000  1
  O  O73  1  0.48585950  0.90645450  0.20004400  1
  O  O74  1  0.48585950  0.09354550  0.20004400  1
  O  O75  1  0.51774350  0.75364250  0.02901300  1
  O  O76  1  0.51774350  0.24635750  0.02901300  1
  O  O77  1  0.69607500  0.73268500  0.57826700  1
  O  O78  1  0.69607500  0.26731500  0.57826700  1
  O  O79  1  0.75198900  0.00000000  0.66727700  1
  O  O80  1  0.57039200  0.00000000  0.07966000  1
  O  O81  1  0.65802200  0.73115300  0.23219900  1
  O  O82  1  0.65802200  0.26884700  0.23219900  1
  O  O83  1  0.86083400  0.90603200  0.57552300  1
  O  O84  1  0.86083400  0.09396800  0.57552300  1
  O  O85  1  0.75532400  0.90533200  0.27744200  1
  O  O86  1  0.75532400  0.09466800  0.27744200  1
  O  O87  1  0.95201300  0.00000000  0.75942600  1
  O  O88  1  0.84687500  0.00000000  0.16562900  1
  O  O89  1  0.91755300  0.00000000  0.38712900  1
  O  O90  1  0.57176600  0.50000000  0.60367600  1
  O  O91  1  0.66833350  0.40504550  0.78390000  1
  O  O92  1  0.66833350  0.59495450  0.78390000  1
  O  O93  1  0.57379200  0.50000000  0.11437500  1
  O  O94  1  0.77206400  0.50000000  0.68372100  1
  O  O95  1  0.88145550  0.28141950  0.77349900  1
  O  O96  1  0.88145550  0.71858050  0.77349900  1
  O  O97  1  0.67131500  0.59284400  0.00891000  1
  O  O98  1  0.67131500  0.40715600  0.00891000  1
  O  O99  1  0.77421000  0.50000000  0.19020000  1
  O  O100  1  0.83746900  0.75596700  0.44107300  1
  O  O101  1  0.83746900  0.24403300  0.44107300  1
  O  O102  1  0.90307000  0.50000000  0.43871000  1
  O  O103  1  0.00000600  0.50000000  0.66026900  1
  O  O104  1  0.81427300  0.26729400  0.11380300  1
  O  O105  1  0.81427300  0.73270600  0.11380300  1
  O  O106  1  0.01940000  0.75625600  0.66165800  1
  O  O107  1  0.01940000  0.24374400  0.66165800  1
  O  O108  1  0.86991300  0.50000000  0.02484000  1
  O  O109  1  0.15409950  0.26375250  0.90457400  1
  O  O110  1  0.15409950  0.73624750  0.90457400  1
  O  O111  1  0.99023550  0.76445350  0.30899900  1
  O  O112  1  0.99023550  0.23554650  0.30899900  1
  O  O113  1  0.06774700  0.40252600  0.52712000  1
  O  O114  1  0.06774700  0.59747400  0.52712000  1
  O  O115  1  0.98585950  0.40645450  0.20004400  1
  O  O116  1  0.98585950  0.59354550  0.20004400  1
  O  O117  1  0.01774350  0.25364250  0.02901300  1
  O  O118  1  0.01774350  0.74635750  0.02901300  1
  O  O119  1  0.19607500  0.23268500  0.57826700  1
  O  O120  1  0.19607500  0.76731500  0.57826700  1
  O  O121  1  0.25198900  0.50000000  0.66727700  1
  O  O122  1  0.07039200  0.50000000  0.07966000  1
  O  O123  1  0.15802200  0.23115300  0.23219900  1
  O  O124  1  0.15802200  0.76884700  0.23219900  1
  O  O125  1  0.36083400  0.40603200  0.57552300  1
  O  O126  1  0.36083400  0.59396800  0.57552300  1
  O  O127  1  0.25532400  0.40533200  0.27744200  1
  O  O128  1  0.25532400  0.59466800  0.27744200  1
  O  O129  1  0.45201300  0.50000000  0.75942600  1
  O  O130  1  0.34687500  0.50000000  0.16562900  1
  O  O131  1  0.41755300  0.50000000  0.38712900  1
