# generated using pymatgen
data_Sc2V2O7
_symmetry_space_group_name_H-M   'P 1'
_cell_length_a   6.31635400
_cell_length_b   9.06570800
_cell_length_c   5.19295838
_cell_angle_alpha   90.00000000
_cell_angle_beta   100.03150866
_cell_angle_gamma   90.00000000
_symmetry_Int_Tables_number   1
_chemical_formula_structural   Sc2V2O7
_chemical_formula_sum   'Sc4 V4 O14'
_cell_volume   292.81431812
_cell_formula_units_Z   2
loop_
 _symmetry_equiv_pos_site_id
 _symmetry_equiv_pos_as_xyz
  1  'x, y, z'
loop_
 _atom_site_type_symbol
 _atom_site_label
 _atom_site_symmetry_multiplicity
 _atom_site_fract_x
 _atom_site_fract_y
 _atom_site_fract_z
 _atom_site_occupancy
  Sc  Sc0  1  0.50000000  0.81397400  0.50000000  1
  Sc  Sc1  1  0.50000000  0.18602600  0.50000000  1
  Sc  Sc2  1  0.00000000  0.31397400  0.50000000  1
  Sc  Sc3  1  0.00000000  0.68602600  0.50000000  1
  V  V4  1  0.25361200  0.00000000  0.89247100  1
  V  V5  1  0.74638800  0.00000000  0.10752900  1
  V  V6  1  0.75361200  0.50000000  0.89247100  1
  V  V7  1  0.24638800  0.50000000  0.10752900  1
  O  O8  1  0.22499900  0.82961300  0.69757000  1
  O  O9  1  0.22499900  0.17038700  0.69757000  1
  O  O10  1  0.43072400  0.00000000  0.22984700  1
  O  O11  1  0.56927600  0.00000000  0.77015300  1
  O  O12  1  0.00000000  0.00000000  0.00000000  1
  O  O13  1  0.77500100  0.82961300  0.30243000  1
  O  O14  1  0.77500100  0.17038700  0.30243000  1
  O  O15  1  0.72499900  0.32961300  0.69757000  1
  O  O16  1  0.72499900  0.67038700  0.69757000  1
  O  O17  1  0.93072400  0.50000000  0.22984700  1
  O  O18  1  0.06927600  0.50000000  0.77015300  1
  O  O19  1  0.50000000  0.50000000  0.00000000  1
  O  O20  1  0.27500100  0.32961300  0.30243000  1
  O  O21  1  0.27500100  0.67038700  0.30243000  1
