# generated using pymatgen
data_Ca3Tl4O9
_symmetry_space_group_name_H-M   'P 1'
_cell_length_a   11.28700100
_cell_length_b   6.75669200
_cell_length_c   12.49799027
_cell_angle_alpha   90.00000000
_cell_angle_beta   102.54178489
_cell_angle_gamma   90.00000000
_symmetry_Int_Tables_number   1
_chemical_formula_structural   Ca3Tl4O9
_chemical_formula_sum   'Ca12 Tl16 O36'
_cell_volume   930.38787966
_cell_formula_units_Z   4
loop_
 _symmetry_equiv_pos_site_id
 _symmetry_equiv_pos_as_xyz
  1  'x, y, z'
loop_
 _atom_site_type_symbol
 _atom_site_label
 _atom_site_symmetry_multiplicity
 _atom_site_fract_x
 _atom_site_fract_y
 _atom_site_fract_z
 _atom_site_occupancy
  Ca  Ca0  1  0.80197900  0.12775800  0.29331200  1
  Ca  Ca1  1  0.80001200  0.62257900  0.28636000  1
  Ca  Ca2  1  0.98557800  0.87625300  0.87215800  1
  Ca  Ca3  1  0.01442200  0.12374700  0.12784200  1
  Ca  Ca4  1  0.19998800  0.37742100  0.71364000  1
  Ca  Ca5  1  0.19802100  0.87224200  0.70668800  1
  Ca  Ca6  1  0.30001200  0.87742100  0.28636000  1
  Ca  Ca7  1  0.30197900  0.37224200  0.29331200  1
  Ca  Ca8  1  0.48557800  0.62374700  0.87215800  1
  Ca  Ca9  1  0.51442200  0.37625300  0.12784200  1
  Ca  Ca10  1  0.69802100  0.62775800  0.70668800  1
  Ca  Ca11  1  0.69998800  0.12257900  0.71364000  1
  Tl  Tl12  1  0.89899100  0.87528800  0.56487200  1
  Tl  Tl13  1  0.90104600  0.37453500  0.56267400  1
  Tl  Tl14  1  0.98969400  0.37225000  0.87082300  1
  Tl  Tl15  1  0.01030600  0.62775000  0.12917700  1
  Tl  Tl16  1  0.09895400  0.62546500  0.43732600  1
  Tl  Tl17  1  0.10100900  0.12471200  0.43512800  1
  Tl  Tl18  1  0.25234600  0.12563500  0.99951900  1
  Tl  Tl19  1  0.24765400  0.62563500  0.00048100  1
  Tl  Tl20  1  0.39899100  0.62471200  0.56487200  1
  Tl  Tl21  1  0.40104600  0.12546500  0.56267400  1
  Tl  Tl22  1  0.48969400  0.12775000  0.87082300  1
  Tl  Tl23  1  0.51030600  0.87225000  0.12917700  1
  Tl  Tl24  1  0.59895400  0.87453500  0.43732600  1
  Tl  Tl25  1  0.60100900  0.37528800  0.43512800  1
  Tl  Tl26  1  0.74765400  0.87436500  0.00048100  1
  Tl  Tl27  1  0.75234600  0.37436500  0.99951900  1
  O  O28  1  0.87860900  0.12918000  0.94646200  1
  O  O29  1  0.88255200  0.62256800  0.95270000  1
  O  O30  1  0.84076300  0.87380200  0.71663400  1
  O  O31  1  0.84538600  0.37646600  0.72022000  1
  O  O32  1  0.87598500  0.37926400  0.16279300  1
  O  O33  1  0.87486800  0.87392200  0.16172900  1
  O  O34  1  0.94456300  0.37677600  0.39710100  1
  O  O35  1  0.94263600  0.87331400  0.39874600  1
  O  O36  1  0.05736400  0.12668600  0.60125400  1
  O  O37  1  0.05543700  0.62322400  0.60289900  1
  O  O38  1  0.12401500  0.62073600  0.83720700  1
  O  O39  1  0.12513200  0.12607800  0.83827100  1
  O  O40  1  0.15461400  0.62353400  0.27978000  1
  O  O41  1  0.15923700  0.12619800  0.28336600  1
  O  O42  1  0.11744800  0.37743200  0.04730000  1
  O  O43  1  0.12139100  0.87082000  0.05353800  1
  O  O44  1  0.25118900  0.37504400  0.49855700  1
  O  O45  1  0.24881100  0.87504400  0.50144300  1
  O  O46  1  0.37860900  0.37082000  0.94646200  1
  O  O47  1  0.38255200  0.87743200  0.95270000  1
  O  O48  1  0.34076300  0.62619800  0.71663400  1
  O  O49  1  0.34538600  0.12353400  0.72022000  1
  O  O50  1  0.37598500  0.12073600  0.16279300  1
  O  O51  1  0.37486800  0.62607800  0.16172900  1
  O  O52  1  0.44263600  0.62668600  0.39874600  1
  O  O53  1  0.44456300  0.12322400  0.39710100  1
  O  O54  1  0.55543700  0.87677600  0.60289900  1
  O  O55  1  0.55736400  0.37331400  0.60125400  1
  O  O56  1  0.62401500  0.87926400  0.83720700  1
  O  O57  1  0.62513200  0.37392200  0.83827100  1
  O  O58  1  0.65461400  0.87646600  0.27978000  1
  O  O59  1  0.65923700  0.37380200  0.28336600  1
  O  O60  1  0.61744800  0.12256800  0.04730000  1
  O  O61  1  0.62139100  0.62918000  0.05353800  1
  O  O62  1  0.75118900  0.12495600  0.49855700  1
  O  O63  1  0.74881100  0.62495600  0.50144300  1
