# generated using pymatgen
data_HfZrO4
_symmetry_space_group_name_H-M   'P 1'
_cell_length_a   12.62452200
_cell_length_b   7.24429000
_cell_length_c   7.24383602
_cell_angle_alpha   90.00000000
_cell_angle_beta   124.98227719
_cell_angle_gamma   90.00000000
_symmetry_Int_Tables_number   1
_chemical_formula_structural   HfZrO4
_chemical_formula_sum   'Hf8 Zr8 O32'
_cell_volume   542.79761858
_cell_formula_units_Z   8
loop_
 _symmetry_equiv_pos_site_id
 _symmetry_equiv_pos_as_xyz
  1  'x, y, z'
loop_
 _atom_site_type_symbol
 _atom_site_label
 _atom_site_symmetry_multiplicity
 _atom_site_fract_x
 _atom_site_fract_y
 _atom_site_fract_z
 _atom_site_occupancy
  Hf  Hf0  1  0.36408700  0.50000000  0.62167600  1
  Hf  Hf1  1  0.11439900  0.24925100  0.12340800  1
  Hf  Hf2  1  0.11439900  0.75074900  0.12340800  1
  Hf  Hf3  1  0.36500900  0.50000000  0.12366900  1
  Hf  Hf4  1  0.86408700  0.00000000  0.62167600  1
  Hf  Hf5  1  0.61439900  0.74925100  0.12340800  1
  Hf  Hf6  1  0.61439900  0.25074900  0.12340800  1
  Hf  Hf7  1  0.86500900  0.00000000  0.12366900  1
  Zr  Zr8  1  0.11580850  0.75070050  0.62550700  1
  Zr  Zr9  1  0.36594800  0.00000000  0.12658300  1
  Zr  Zr10  1  0.36545500  0.00000000  0.62528000  1
  Zr  Zr11  1  0.11580850  0.24929950  0.62550700  1
  Zr  Zr12  1  0.61580850  0.25070050  0.62550700  1
  Zr  Zr13  1  0.86594800  0.50000000  0.12658300  1
  Zr  Zr14  1  0.86545500  0.50000000  0.62528000  1
  Zr  Zr15  1  0.61580850  0.74929950  0.62550700  1
  O  O16  1  0.22097600  0.72620500  0.98405700  1
  O  O17  1  0.25500300  0.00000000  0.25018300  1
  O  O18  1  0.47306100  0.26663300  0.73321200  1
  O  O19  1  0.00819700  0.50000000  0.53737800  1
  O  O20  1  0.01071400  0.00000000  0.04353500  1
  O  O21  1  0.26020300  0.50000000  0.75603700  1
  O  O22  1  0.47250650  0.76133450  0.22614200  1
  O  O23  1  0.00712700  0.00000000  0.49476000  1
  O  O24  1  0.22107400  0.76864500  0.47628900  1
  O  O25  1  0.25674800  0.00000000  0.77947500  1
  O  O26  1  0.47250650  0.23866550  0.22614200  1
  O  O27  1  0.01145900  0.50000000  0.99953700  1
  O  O28  1  0.25830800  0.50000000  0.28121500  1
  O  O29  1  0.47306100  0.73336700  0.73321200  1
  O  O30  1  0.22097600  0.27379500  0.98405700  1
  O  O31  1  0.22107400  0.23135500  0.47628900  1
  O  O32  1  0.72097600  0.22620500  0.98405700  1
  O  O33  1  0.75500300  0.50000000  0.25018300  1
  O  O34  1  0.97306100  0.76663300  0.73321200  1
  O  O35  1  0.50819700  0.00000000  0.53737800  1
  O  O36  1  0.51071400  0.50000000  0.04353500  1
  O  O37  1  0.76020300  0.00000000  0.75603700  1
  O  O38  1  0.97250650  0.26133450  0.22614200  1
  O  O39  1  0.50712700  0.50000000  0.49476000  1
  O  O40  1  0.72107400  0.26864500  0.47628900  1
  O  O41  1  0.75674800  0.50000000  0.77947500  1
  O  O42  1  0.97250650  0.73866550  0.22614200  1
  O  O43  1  0.51145900  0.00000000  0.99953700  1
  O  O44  1  0.75830800  0.00000000  0.28121500  1
  O  O45  1  0.97306100  0.23336700  0.73321200  1
  O  O46  1  0.72097600  0.77379500  0.98405700  1
  O  O47  1  0.72107400  0.73135500  0.47628900  1
