# generated using pymatgen
data_Zr2N2O
_symmetry_space_group_name_H-M   'P 1'
_cell_length_a   8.85745700
_cell_length_b   8.87256289
_cell_length_c   8.87519539
_cell_angle_alpha   109.49941942
_cell_angle_beta   109.35291138
_cell_angle_gamma   109.32343789
_symmetry_Int_Tables_number   1
_chemical_formula_structural   Zr2N2O
_chemical_formula_sum   'Zr16 N16 O8'
_cell_volume   538.49518311
_cell_formula_units_Z   8
loop_
 _symmetry_equiv_pos_site_id
 _symmetry_equiv_pos_as_xyz
  1  'x, y, z'
loop_
 _atom_site_type_symbol
 _atom_site_label
 _atom_site_symmetry_multiplicity
 _atom_site_fract_x
 _atom_site_fract_y
 _atom_site_fract_z
 _atom_site_occupancy
  Zr  Zr0  1  0.98793000  0.48059000  0.98967700  1
  Zr  Zr1  1  0.76000200  0.72201300  0.97435500  1
  Zr  Zr2  1  0.53500600  0.25100400  0.78628400  1
  Zr  Zr3  1  0.96307800  0.74786300  0.71279100  1
  Zr  Zr4  1  0.21812700  0.96917400  0.26064800  1
  Zr  Zr5  1  0.70421600  0.46164600  0.24345100  1
  Zr  Zr6  1  0.25217100  0.78526400  0.54299200  1
  Zr  Zr7  1  0.51233700  0.51286100  0.50215600  1
  Zr  Zr8  1  0.99954400  0.01058500  0.50214800  1
  Zr  Zr9  1  0.48858400  0.00223700  0.00303000  1
  Zr  Zr10  1  0.74624800  0.21097500  0.46856600  1
  Zr  Zr11  1  0.79419700  0.03092500  0.74838300  1
  Zr  Zr12  1  0.27459000  0.53119900  0.74082300  1
  Zr  Zr13  1  0.03846300  0.25264500  0.28649800  1
  Zr  Zr14  1  0.46238400  0.74911900  0.21180300  1
  Zr  Zr15  1  0.24719700  0.29019500  0.02997100  1
  N  N16  1  0.95647700  0.96745700  0.22454800  1
  N  N17  1  0.77597200  0.51809700  0.04911900  1
  N  N18  1  0.27678000  0.04411100  0.53292500  1
  N  N19  1  0.74056400  0.46771200  0.50865100  1
  N  N20  1  0.45850900  0.22517200  0.99055900  1
  N  N21  1  0.75840400  0.27012900  0.72795600  1
  N  N22  1  0.26281600  0.53649300  0.48546200  1
  N  N23  1  0.23019600  0.76431400  0.77469200  1
  N  N24  1  0.72677800  0.94961300  0.46215400  1
  N  N25  1  0.99031800  0.26249100  0.03652600  1
  N  N26  1  0.46220000  0.00878200  0.23380800  1
  N  N27  1  0.03199300  0.27326900  0.54403000  1
  N  N28  1  0.72610100  0.77112800  0.74245200  1
  N  N29  1  0.22788300  0.49121100  0.95539100  1
  N  N30  1  0.51001500  0.54445900  0.27294200  1
  N  N31  1  0.04712800  0.03204300  0.77032600  1
  O  O32  1  0.48538500  0.45430400  0.72925800  1
  O  O33  1  0.27565200  0.22844500  0.26803200  1
  O  O34  1  0.97074200  0.72524800  0.45512900  1
  O  O35  1  0.53378000  0.98717400  0.76281700  1
  O  O36  1  0.01386500  0.73822200  0.96601500  1
  O  O37  1  0.77099400  0.23183900  0.22296000  1
  O  O38  1  0.23681800  0.72868400  0.27063000  1
  O  O39  1  0.54655600  0.77131000  0.01004100  1
