# generated using pymatgen
data_Na3FeO4
_symmetry_space_group_name_H-M   'P 1'
_cell_length_a   10.97013800
_cell_length_b   12.81476600
_cell_length_c   5.73575279
_cell_angle_alpha   90.00000000
_cell_angle_beta   109.97231053
_cell_angle_gamma   90.00000000
_symmetry_Int_Tables_number   1
_chemical_formula_structural   Na3FeO4
_chemical_formula_sum   'Na24 Fe8 O32'
_cell_volume   757.83619952
_cell_formula_units_Z   8
loop_
 _symmetry_equiv_pos_site_id
 _symmetry_equiv_pos_as_xyz
  1  'x, y, z'
loop_
 _atom_site_type_symbol
 _atom_site_label
 _atom_site_symmetry_multiplicity
 _atom_site_fract_x
 _atom_site_fract_y
 _atom_site_fract_z
 _atom_site_occupancy
  Na  Na0  1  0.75810900  0.12239300  0.48447300  1
  Na  Na1  1  0.75810900  0.87760700  0.48447300  1
  Na  Na2  1  0.25000000  0.25000000  0.00000000  1
  Na  Na3  1  0.00000000  0.00000000  0.50000000  1
  Na  Na4  1  0.50000000  0.75669700  0.50000000  1
  Na  Na5  1  0.50000000  0.00000000  0.50000000  1
  Na  Na6  1  0.50000000  0.24330300  0.50000000  1
  Na  Na7  1  0.50000000  0.87557100  0.00000000  1
  Na  Na8  1  0.50000000  0.12442900  0.00000000  1
  Na  Na9  1  0.24189100  0.87760700  0.51552700  1
  Na  Na10  1  0.24189100  0.12239300  0.51552700  1
  Na  Na11  1  0.25000000  0.75000000  0.00000000  1
  Na  Na12  1  0.25810900  0.62239300  0.48447300  1
  Na  Na13  1  0.25810900  0.37760700  0.48447300  1
  Na  Na14  1  0.75000000  0.75000000  0.00000000  1
  Na  Na15  1  0.50000000  0.50000000  0.50000000  1
  Na  Na16  1  0.00000000  0.25669700  0.50000000  1
  Na  Na17  1  0.00000000  0.50000000  0.50000000  1
  Na  Na18  1  0.00000000  0.74330300  0.50000000  1
  Na  Na19  1  0.00000000  0.37557100  0.00000000  1
  Na  Na20  1  0.00000000  0.62442900  0.00000000  1
  Na  Na21  1  0.74189100  0.37760700  0.51552700  1
  Na  Na22  1  0.74189100  0.62239300  0.51552700  1
  Na  Na23  1  0.75000000  0.25000000  0.00000000  1
  Fe  Fe24  1  0.75039500  0.00000000  0.97061800  1
  Fe  Fe25  1  0.50000000  0.62401700  0.00000000  1
  Fe  Fe26  1  0.50000000  0.37598300  0.00000000  1
  Fe  Fe27  1  0.24960500  0.00000000  0.02938200  1
  Fe  Fe28  1  0.25039500  0.50000000  0.97061800  1
  Fe  Fe29  1  0.00000000  0.12401700  0.00000000  1
  Fe  Fe30  1  0.00000000  0.87598300  0.00000000  1
  Fe  Fe31  1  0.74960500  0.50000000  0.02938200  1
  O  O32  1  0.87975550  0.89152550  0.17751200  1
  O  O33  1  0.87975550  0.10847450  0.17751200  1
  O  O34  1  0.89069500  0.00000000  0.80866700  1
  O  O35  1  0.66468700  0.00000000  0.19193700  1
  O  O36  1  0.59647950  0.27871950  0.21867300  1
  O  O37  1  0.59647950  0.72128050  0.21867300  1
  O  O38  1  0.65060650  0.10364550  0.77159600  1
  O  O39  1  0.65060650  0.89635450  0.77159600  1
  O  O40  1  0.34939350  0.89635450  0.22840400  1
  O  O41  1  0.34939350  0.10364550  0.22840400  1
  O  O42  1  0.40352050  0.72128050  0.78132700  1
  O  O43  1  0.40352050  0.27871950  0.78132700  1
  O  O44  1  0.33531300  0.00000000  0.80806300  1
  O  O45  1  0.10930500  0.00000000  0.19133300  1
  O  O46  1  0.12024450  0.89152550  0.82248800  1
  O  O47  1  0.12024450  0.10847450  0.82248800  1
  O  O48  1  0.37975550  0.39152550  0.17751200  1
  O  O49  1  0.37975550  0.60847450  0.17751200  1
  O  O50  1  0.39069500  0.50000000  0.80866700  1
  O  O51  1  0.16468700  0.50000000  0.19193700  1
  O  O52  1  0.09647950  0.77871950  0.21867300  1
  O  O53  1  0.09647950  0.22128050  0.21867300  1
  O  O54  1  0.15060650  0.60364550  0.77159600  1
  O  O55  1  0.15060650  0.39635450  0.77159600  1
  O  O56  1  0.84939350  0.39635450  0.22840400  1
  O  O57  1  0.84939350  0.60364550  0.22840400  1
  O  O58  1  0.90352050  0.22128050  0.78132700  1
  O  O59  1  0.90352050  0.77871950  0.78132700  1
  O  O60  1  0.83531300  0.50000000  0.80806300  1
  O  O61  1  0.60930500  0.50000000  0.19133300  1
  O  O62  1  0.62024450  0.39152550  0.82248800  1
  O  O63  1  0.62024450  0.60847450  0.82248800  1
