# generated using pymatgen
data_Li8Fe3Sn(PO4)6
_symmetry_space_group_name_H-M   'P 1'
_cell_length_a   9.07371872
_cell_length_b   9.07371872
_cell_length_c   21.40159139
_cell_angle_alpha   90.00000000
_cell_angle_beta   90.00000000
_cell_angle_gamma   120.00000000
_symmetry_Int_Tables_number   1
_chemical_formula_structural   Li8Fe3Sn(PO4)6
_chemical_formula_sum   'Li24 Fe9 Sn3 P18 O72'
_cell_volume   1525.97466935
_cell_formula_units_Z   3
loop_
 _symmetry_equiv_pos_site_id
 _symmetry_equiv_pos_as_xyz
  1  'x, y, z'
loop_
 _atom_site_type_symbol
 _atom_site_label
 _atom_site_symmetry_multiplicity
 _atom_site_fract_x
 _atom_site_fract_y
 _atom_site_fract_z
 _atom_site_occupancy
  Li  Li0  1  0.01089700  0.58233600  0.22660900  1
  Li  Li1  1  0.33333333  0.66666667  0.63595067  1
  Li  Li2  1  0.57143900  0.98910300  0.22660900  1
  Li  Li3  1  0.41766400  0.42856100  0.22660900  1
  Li  Li4  1  0.25155667  0.91427333  0.05729733  1
  Li  Li5  1  0.33333333  0.66666667  0.14178667  1
  Li  Li6  1  0.08572667  0.33728333  0.05729733  1
  Li  Li7  1  0.66271667  0.74844333  0.05729733  1
  Li  Li8  1  0.67756367  0.91566933  0.55994233  1
  Li  Li9  1  0.00000000  0.00000000  0.96928400  1
  Li  Li10  1  0.23810567  0.32243633  0.55994233  1
  Li  Li11  1  0.08433067  0.76189433  0.55994233  1
  Li  Li12  1  0.91822333  0.24760667  0.39063067  1
  Li  Li13  1  0.00000000  0.00000000  0.47512000  1
  Li  Li14  1  0.75239333  0.67061667  0.39063067  1
  Li  Li15  1  0.32938333  0.08177667  0.39063067  1
  Li  Li16  1  0.34423033  0.24900267  0.89327567  1
  Li  Li17  1  0.66666667  0.33333333  0.30261733  1
  Li  Li18  1  0.90477233  0.65576967  0.89327567  1
  Li  Li19  1  0.75099733  0.09522767  0.89327567  1
  Li  Li20  1  0.58489000  0.58094000  0.72396400  1
  Li  Li21  1  0.66666667  0.33333333  0.80845333  1
  Li  Li22  1  0.41906000  0.00395000  0.72396400  1
  Li  Li23  1  0.99605000  0.41511000  0.72396400  1
  Fe  Fe24  1  0.33333333  0.66666667  0.51173767  1
  Fe  Fe25  1  0.33333333  0.66666667  0.01262567  1
  Fe  Fe26  1  0.33333333  0.66666667  0.31308167  1
  Fe  Fe27  1  0.00000000  0.00000000  0.84507100  1
  Fe  Fe28  1  0.00000000  0.00000000  0.34595900  1
  Fe  Fe29  1  0.00000000  0.00000000  0.64641500  1
  Fe  Fe30  1  0.66666667  0.33333333  0.17840433  1
  Fe  Fe31  1  0.66666667  0.33333333  0.67929233  1
  Fe  Fe32  1  0.66666667  0.33333333  0.97974833  1
  Sn  Sn33  1  0.33333333  0.66666667  0.81165867  1
  Sn  Sn34  1  0.00000000  0.00000000  0.14499200  1
  Sn  Sn35  1  0.66666667  0.33333333  0.47832533  1
  P  P36  1  0.70017533  0.70075367  0.24980767  1
  P  P37  1  0.29924633  0.99942167  0.24980767  1
  P  P38  1  0.00057833  0.29982467  0.24980767  1
  P  P39  1  0.66534367  0.03342333  0.08487433  1
  P  P40  1  0.36807967  0.33465633  0.08487433  1
  P  P41  1  0.96657667  0.63192033  0.08487433  1
  P  P42  1  0.36684200  0.03408700  0.58314100  1
  P  P43  1  0.96591300  0.33275500  0.58314100  1
  P  P44  1  0.66724500  0.63315800  0.58314100  1
  P  P45  1  0.33201033  0.36675667  0.41820767  1
  P  P46  1  0.03474633  0.66798967  0.41820767  1
  P  P47  1  0.63324333  0.96525367  0.41820767  1
  P  P48  1  0.03350867  0.36742033  0.91647433  1
  P  P49  1  0.63257967  0.66608833  0.91647433  1
  P  P50  1  0.33391167  0.96649133  0.91647433  1
  P  P51  1  0.99867700  0.70009000  0.75154100  1
  P  P52  1  0.70141300  0.00132300  0.75154100  1
  P  P53  1  0.29991000  0.29858700  0.75154100  1
  O  O54  1  0.67290367  0.51711833  0.24886533  1
  O  O55  1  0.12689000  0.45112300  0.97733000  1
  O  O56  1  0.52205000  0.68479400  0.24381900  1
  O  O57  1  0.54887700  0.67576700  0.97733000  1
  O  O58  1  0.31520600  0.83725600  0.24381900  1
  O  O59  1  0.32423300  0.87311000  0.97733000  1
  O  O60  1  0.80307100  0.80611600  0.19167300  1
  O  O61  1  0.48288167  0.15578533  0.24886533  1
  O  O62  1  0.19388400  0.99695500  0.19167300  1
  O  O63  1  0.84421467  0.32709633  0.24886533  1
  O  O64  1  0.00304500  0.19692900  0.19167300  1
  O  O65  1  0.16274400  0.47795000  0.24381900  1
  O  O66  1  0.51244733  0.84806067  0.08418067  1
  O  O67  1  0.65960933  0.11344667  0.14748067  1
  O  O68  1  0.82857633  0.00747167  0.08024167  1
  O  O69  1  0.45383733  0.34039067  0.14748067  1
  O  O70  1  0.17889533  0.17142367  0.08024167  1
  O  O71  1  0.88655333  0.54616267  0.14748067  1
  O  O72  1  0.34367867  0.47356033  0.36151533  1
  O  O73  1  0.33561333  0.48755267  0.08418067  1
  O  O74  1  0.12988167  0.65632133  0.36151533  1
  O  O75  1  0.15193933  0.66438667  0.08418067  1
  O  O76  1  0.52643967  0.87011833  0.36151533  1
  O  O77  1  0.99252833  0.82110467  0.08024167  1
  O  O78  1  0.33957033  0.85045167  0.58219867  1
  O  O79  1  0.79355667  0.78445633  0.31066333  1
  O  O80  1  0.18871667  0.01812733  0.57715233  1
  O  O81  1  0.21554367  0.00910033  0.31066333  1
  O  O82  1  0.98187267  0.17058933  0.57715233  1
  O  O83  1  0.99089967  0.20644333  0.31066333  1
  O  O84  1  0.46973767  0.13944933  0.52500633  1
  O  O85  1  0.14954833  0.48911867  0.58219867  1
  O  O86  1  0.86055067  0.33028833  0.52500633  1
  O  O87  1  0.51088133  0.66042967  0.58219867  1
  O  O88  1  0.66971167  0.53026233  0.52500633  1
  O  O89  1  0.82941067  0.81128333  0.57715233  1
  O  O90  1  0.17911400  0.18139400  0.41751400  1
  O  O91  1  0.32627600  0.44678000  0.48081400  1
  O  O92  1  0.49524300  0.34080500  0.41357500  1
  O  O93  1  0.12050400  0.67372400  0.48081400  1
  O  O94  1  0.84556200  0.50475700  0.41357500  1
  O  O95  1  0.55322000  0.87949600  0.48081400  1
  O  O96  1  0.01034533  0.80689367  0.69484867  1
  O  O97  1  0.00228000  0.82088600  0.41751400  1
  O  O98  1  0.79654833  0.98965467  0.69484867  1
  O  O99  1  0.81860600  0.99772000  0.41751400  1
  O  O100  1  0.19310633  0.20345167  0.69484867  1
  O  O101  1  0.65919500  0.15443800  0.41357500  1
  O  O102  1  0.00623700  0.18378500  0.91553200  1
  O  O103  1  0.46022333  0.11778967  0.64399667  1
  O  O104  1  0.85538333  0.35146067  0.91048567  1
  O  O105  1  0.88221033  0.34243367  0.64399667  1
  O  O106  1  0.64853933  0.50392267  0.91048567  1
  O  O107  1  0.65756633  0.53977667  0.64399667  1
  O  O108  1  0.13640433  0.47278267  0.85833967  1
  O  O109  1  0.81621500  0.82245200  0.91553200  1
  O  O110  1  0.52721733  0.66362167  0.85833967  1
  O  O111  1  0.17754800  0.99376300  0.91553200  1
  O  O112  1  0.33637833  0.86359567  0.85833967  1
  O  O113  1  0.49607733  0.14461667  0.91048567  1
  O  O114  1  0.84578067  0.51472733  0.75084733  1
  O  O115  1  0.99294267  0.78011333  0.81414733  1
  O  O116  1  0.16190967  0.67413833  0.74690833  1
  O  O117  1  0.78717067  0.00705733  0.81414733  1
  O  O118  1  0.51222867  0.83809033  0.74690833  1
  O  O119  1  0.21988667  0.21282933  0.81414733  1
  O  O120  1  0.67701200  0.14022700  0.02818200  1
  O  O121  1  0.66894667  0.15421933  0.75084733  1
  O  O122  1  0.46321500  0.32298800  0.02818200  1
  O  O123  1  0.48527267  0.33105333  0.75084733  1
  O  O124  1  0.85977300  0.53678500  0.02818200  1
  O  O125  1  0.32586167  0.48777133  0.74690833  1
