# generated using pymatgen
data_Rb4LiH3(SO4)4
_symmetry_space_group_name_H-M   'P 1'
_cell_length_a   7.65100300
_cell_length_b   30.62441100
_cell_length_c   7.75927630
_cell_angle_alpha   90.00000000
_cell_angle_beta   91.29874223
_cell_angle_gamma   90.00000000
_symmetry_Int_Tables_number   1
_chemical_formula_structural   Rb4LiH3(SO4)4
_chemical_formula_sum   'Rb16 Li4 H12 S16 O64'
_cell_volume   1817.58927960
_cell_formula_units_Z   4
loop_
 _symmetry_equiv_pos_site_id
 _symmetry_equiv_pos_as_xyz
  1  'x, y, z'
loop_
 _atom_site_type_symbol
 _atom_site_label
 _atom_site_symmetry_multiplicity
 _atom_site_fract_x
 _atom_site_fract_y
 _atom_site_fract_z
 _atom_site_occupancy
  Rb  Rb0  1  0.00507100  0.53989100  0.75793600  1
  Rb  Rb1  1  0.99492900  0.03989100  0.24206400  1
  Rb  Rb2  1  0.02040300  0.30938200  0.01255200  1
  Rb  Rb3  1  0.97959700  0.80938200  0.98744800  1
  Rb  Rb4  1  0.61383900  0.19478100  0.92387600  1
  Rb  Rb5  1  0.38616100  0.69478100  0.07612400  1
  Rb  Rb6  1  0.15710300  0.42097600  0.38887800  1
  Rb  Rb7  1  0.84289700  0.92097600  0.61112200  1
  Rb  Rb8  1  0.72483300  0.30202000  0.50045100  1
  Rb  Rb9  1  0.27516700  0.80202000  0.49954900  1
  Rb  Rb10  1  0.47133200  0.05670400  0.50265600  1
  Rb  Rb11  1  0.52866800  0.55670400  0.49734400  1
  Rb  Rb12  1  0.12142400  0.18309800  0.63343800  1
  Rb  Rb13  1  0.87857600  0.68309800  0.36656200  1
  Rb  Rb14  1  0.45177700  0.43000000  0.87193700  1
  Rb  Rb15  1  0.54822300  0.93000000  0.12806300  1
  Li  Li16  1  0.82063300  0.48322200  0.13542600  1
  Li  Li17  1  0.17936700  0.98322200  0.86457400  1
  Li  Li18  1  0.37643500  0.24616900  0.26621400  1
  Li  Li19  1  0.62356500  0.74616900  0.73378600  1
  H  H20  1  0.72409500  0.62746300  0.93417000  1
  H  H21  1  0.27590500  0.12746300  0.06583000  1
  H  H22  1  0.35563500  0.33885600  0.74733300  1
  H  H23  1  0.64436500  0.83885600  0.25266700  1
  H  H24  1  0.80796700  0.39366700  0.66186000  1
  H  H25  1  0.19203300  0.89366700  0.33814000  1
  H  H26  1  0.77197100  0.09505300  0.83376600  1
  H  H27  1  0.22802900  0.59505300  0.16623400  1
  H  H28  1  0.81630300  0.14028400  0.30671700  1
  H  H29  1  0.18369700  0.64028400  0.69328300  1
  H  H30  1  0.49578600  0.50395400  0.14779500  1
  H  H31  1  0.50421400  0.00395400  0.85220500  1
  S  S32  1  0.08740600  0.17866000  0.12573700  1
  S  S33  1  0.91259400  0.67866000  0.87426300  1
  S  S34  1  0.20355900  0.30474300  0.53503400  1
  S  S35  1  0.79644100  0.80474300  0.46496600  1
  S  S36  1  0.96765400  0.42715500  0.86443800  1
  S  S37  1  0.03234600  0.92715500  0.13556200  1
  S  S38  1  0.03601600  0.55687500  0.29955900  1
  S  S39  1  0.96398400  0.05687500  0.70044100  1
  S  S40  1  0.62368700  0.17595100  0.45587400  1
  S  S41  1  0.37631300  0.67595100  0.54412600  1
  S  S42  1  0.63488500  0.43625400  0.41288900  1
  S  S43  1  0.36511500  0.93625400  0.58711100  1
  S  S44  1  0.49820800  0.05826700  0.03081600  1
  S  S45  1  0.50179200  0.55826700  0.96918400  1
  S  S46  1  0.54558600  0.30432600  0.99105000  1
  S  S47  1  0.45441400  0.80432600  0.00895000  1
  O  O48  1  0.17023700  0.20666400  0.25659300  1
  O  O49  1  0.82976300  0.70666400  0.74340700  1
  O  O50  1  0.24203300  0.15671200  0.01730800  1
  O  O51  1  0.75796700  0.65671200  0.98269200  1
  O  O52  1  0.99522400  0.14131800  0.20331700  1
  O  O53  1  0.00477600  0.64131800  0.79668300  1
  O  O54  1  0.98525000  0.20260500  0.99670300  1
  O  O55  1  0.01475000  0.70260500  0.00329700  1
  O  O56  1  0.35357900  0.27767100  0.48282900  1
  O  O57  1  0.64642100  0.77767100  0.51717100  1
  O  O58  1  0.28210000  0.34601400  0.62877000  1
  O  O59  1  0.71790000  0.84601400  0.37123000  1
  O  O60  1  0.10297500  0.32254500  0.38717700  1
  O  O61  1  0.89702500  0.82254500  0.61282300  1
  O  O62  1  0.09241600  0.28136700  0.65690900  1
  O  O63  1  0.90758400  0.78136700  0.34309100  1
  O  O64  1  0.08403200  0.44691100  0.73804900  1
  O  O65  1  0.91596800  0.94691100  0.26195100  1
  O  O66  1  0.82487600  0.45779900  0.90867300  1
  O  O67  1  0.17512400  0.95779900  0.09132700  1
  O  O68  1  0.87867200  0.38605000  0.77884300  1
  O  O69  1  0.12132800  0.88605000  0.22115700  1
  O  O70  1  0.06119800  0.41088000  0.01814700  1
  O  O71  1  0.93880200  0.91088000  0.98185300  1
  O  O72  1  0.88733600  0.57224100  0.39786400  1
  O  O73  1  0.11266400  0.07224100  0.60213600  1
  O  O74  1  0.17081000  0.53469000  0.40435100  1
  O  O75  1  0.82919000  0.03469000  0.59564900  1
  O  O76  1  0.11919900  0.60157900  0.23139000  1
  O  O77  1  0.88080100  0.10157900  0.76861000  1
  O  O78  1  0.98728300  0.53168600  0.14360600  1
  O  O79  1  0.01271700  0.03168600  0.85639400  1
  O  O80  1  0.57128000  0.20484800  0.31227500  1
  O  O81  1  0.42872000  0.70484800  0.68772500  1
  O  O82  1  0.47806200  0.15810800  0.55259300  1
  O  O83  1  0.52193800  0.65810800  0.44740700  1
  O  O84  1  0.76087700  0.19545000  0.56567900  1
  O  O85  1  0.23912300  0.69545000  0.43432100  1
  O  O86  1  0.70433400  0.13308700  0.36816800  1
  O  O87  1  0.29566600  0.63308700  0.63183200  1
  O  O88  1  0.79179900  0.46255400  0.36397300  1
  O  O89  1  0.20820100  0.96255400  0.63602700  1
  O  O90  1  0.70147500  0.39555600  0.50499200  1
  O  O91  1  0.29852500  0.89555600  0.49500800  1
  O  O92  1  0.52483500  0.46202200  0.53237200  1
  O  O93  1  0.47516500  0.96202200  0.46762800  1
  O  O94  1  0.53084000  0.42431800  0.25675300  1
  O  O95  1  0.46916000  0.92431800  0.74324700  1
  O  O96  1  0.41116800  0.27107700  0.04209500  1
  O  O97  1  0.58883200  0.77107700  0.95790500  1
  O  O98  1  0.40988800  0.02181900  0.89981800  1
  O  O99  1  0.59011200  0.52181900  0.10018200  1
  O  O100  1  0.62114500  0.03379300  0.13864300  1
  O  O101  1  0.37885500  0.53379300  0.86135700  1
  O  O102  1  0.57701700  0.09040100  0.91588000  1
  O  O103  1  0.42298300  0.59040100  0.08412000  1
  O  O104  1  0.34822200  0.07593600  0.12232200  1
  O  O105  1  0.65177800  0.57593600  0.87767800  1
  O  O106  1  0.66709400  0.28441500  0.86603900  1
  O  O107  1  0.33290600  0.78441500  0.13396100  1
  O  O108  1  0.44633300  0.34136900  0.90345400  1
  O  O109  1  0.55366700  0.84136900  0.09654600  1
  O  O110  1  0.64321400  0.32096500  0.14280300  1
  O  O111  1  0.35678600  0.82096500  0.85719700  1
