# generated using pymatgen
data_Na10Zn7Sn7H24(S13O6)2
_symmetry_space_group_name_H-M   'P 1'
_cell_length_a   12.76563796
_cell_length_b   12.76563796
_cell_length_c   31.29428063
_cell_angle_alpha   90.00000000
_cell_angle_beta   90.00000000
_cell_angle_gamma   120.00000000
_symmetry_Int_Tables_number   1
_chemical_formula_structural   Na10Zn7Sn7H24(S13O6)2
_chemical_formula_sum   'Na30 Zn21 Sn21 H72 S78 O36'
_cell_volume   4416.52457645
_cell_formula_units_Z   3
loop_
 _symmetry_equiv_pos_site_id
 _symmetry_equiv_pos_as_xyz
  1  'x, y, z'
loop_
 _atom_site_type_symbol
 _atom_site_label
 _atom_site_symmetry_multiplicity
 _atom_site_fract_x
 _atom_site_fract_y
 _atom_site_fract_z
 _atom_site_occupancy
  Na  Na0  1  0.66666667  0.33333333  0.08311233  1
  Na  Na1  1  0.33333333  0.66666667  0.31093267  1
  Na  Na2  1  0.52893800  0.46944500  0.11983100  1
  Na  Na3  1  0.94050700  0.47106200  0.11983100  1
  Na  Na4  1  0.53055500  0.05949300  0.11983100  1
  Na  Na5  1  0.85768967  0.71625333  0.28416333  1
  Na  Na6  1  0.85856367  0.14231033  0.28416333  1
  Na  Na7  1  0.00000000  0.00000000  0.24973200  1
  Na  Na8  1  0.28374667  0.14143633  0.28416333  1
  Na  Na9  1  0.00000000  0.00000000  0.14520900  1
  Na  Na10  1  0.33333333  0.66666667  0.41644567  1
  Na  Na11  1  0.00000000  0.00000000  0.64426600  1
  Na  Na12  1  0.19560467  0.80277833  0.45316433  1
  Na  Na13  1  0.60717367  0.80439533  0.45316433  1
  Na  Na14  1  0.19722167  0.39282633  0.45316433  1
  Na  Na15  1  0.52435633  0.04958667  0.61749667  1
  Na  Na16  1  0.52523033  0.47564367  0.61749667  1
  Na  Na17  1  0.66666667  0.33333333  0.58306533  1
  Na  Na18  1  0.95041333  0.47476967  0.61749667  1
  Na  Na19  1  0.66666667  0.33333333  0.47854233  1
  Na  Na20  1  0.00000000  0.00000000  0.74977900  1
  Na  Na21  1  0.66666667  0.33333333  0.97759933  1
  Na  Na22  1  0.86227133  0.13611167  0.78649767  1
  Na  Na23  1  0.27384033  0.13772867  0.78649767  1
  Na  Na24  1  0.86388833  0.72615967  0.78649767  1
  Na  Na25  1  0.19102300  0.38292000  0.95083000  1
  Na  Na26  1  0.19189700  0.80897700  0.95083000  1
  Na  Na27  1  0.33333333  0.66666667  0.91639867  1
  Na  Na28  1  0.61708000  0.80810300  0.95083000  1
  Na  Na29  1  0.33333333  0.66666667  0.81187567  1
  Zn  Zn30  1  0.66666667  0.33333333  0.25778633  1
  Zn  Zn31  1  0.90000500  0.10053600  0.02401800  1
  Zn  Zn32  1  0.20053100  0.09999500  0.02401800  1
  Zn  Zn33  1  0.89946400  0.79946900  0.02401800  1
  Zn  Zn34  1  0.22530833  0.45339967  0.19381567  1
  Zn  Zn35  1  0.54660033  0.77190867  0.19381567  1
  Zn  Zn36  1  0.22809133  0.77469167  0.19381567  1
  Zn  Zn37  1  0.33333333  0.66666667  0.59111967  1
  Zn  Zn38  1  0.56667167  0.43386933  0.35735133  1
  Zn  Zn39  1  0.86719767  0.43332833  0.35735133  1
  Zn  Zn40  1  0.56613067  0.13280233  0.35735133  1
  Zn  Zn41  1  0.89197500  0.78673300  0.52714900  1
  Zn  Zn42  1  0.21326700  0.10524200  0.52714900  1
  Zn  Zn43  1  0.89475800  0.10802500  0.52714900  1
  Zn  Zn44  1  0.00000000  0.00000000  0.92445300  1
  Zn  Zn45  1  0.23333833  0.76720267  0.69068467  1
  Zn  Zn46  1  0.53386433  0.76666167  0.69068467  1
  Zn  Zn47  1  0.23279733  0.46613567  0.69068467  1
  Zn  Zn48  1  0.55864167  0.12006633  0.86048233  1
  Zn  Zn49  1  0.87993367  0.43857533  0.86048233  1
  Zn  Zn50  1  0.56142467  0.44135833  0.86048233  1
  Sn  Sn51  1  0.50106400  0.50018500  0.25009300  1
  Sn  Sn52  1  0.99912100  0.49893600  0.25009300  1
  Sn  Sn53  1  0.49981500  0.00087900  0.25009300  1
  Sn  Sn54  1  0.16510933  0.32144567  0.08355867  1
  Sn  Sn55  1  0.33333333  0.66666667  0.09327867  1
  Sn  Sn56  1  0.67855433  0.84366367  0.08355867  1
  Sn  Sn57  1  0.15633633  0.83489067  0.08355867  1
  Sn  Sn58  1  0.16773067  0.83351833  0.58342633  1
  Sn  Sn59  1  0.66578767  0.83226933  0.58342633  1
  Sn  Sn60  1  0.16648167  0.33421233  0.58342633  1
  Sn  Sn61  1  0.83177600  0.65477900  0.41689200  1
  Sn  Sn62  1  0.00000000  0.00000000  0.42661200  1
  Sn  Sn63  1  0.34522100  0.17699700  0.41689200  1
  Sn  Sn64  1  0.82300300  0.16822400  0.41689200  1
  Sn  Sn65  1  0.83439733  0.16685167  0.91675967  1
  Sn  Sn66  1  0.33245433  0.16560267  0.91675967  1
  Sn  Sn67  1  0.83314833  0.66754567  0.91675967  1
  Sn  Sn68  1  0.49844267  0.98811233  0.75022533  1
  Sn  Sn69  1  0.66666667  0.33333333  0.75994533  1
  Sn  Sn70  1  0.01188767  0.51033033  0.75022533  1
  Sn  Sn71  1  0.48966967  0.50155733  0.75022533  1
  H  H72  1  0.74450900  0.23435900  0.15810400  1
  H  H73  1  0.48985000  0.25549100  0.15810400  1
  H  H74  1  0.40914267  0.19379233  0.11760233  1
  H  H75  1  0.80620767  0.21535033  0.11760233  1
  H  H76  1  0.76564100  0.51015000  0.15810400  1
  H  H77  1  0.61516233  0.10936967  0.03229567  1
  H  H78  1  0.50150333  0.12485367  0.02460967  1
  H  H79  1  0.78464967  0.59085733  0.11760233  1
  H  H80  1  0.49420733  0.38483767  0.03229567  1
  H  H81  1  0.87514633  0.37664967  0.02460967  1
  H  H82  1  0.89063033  0.50579267  0.03229567  1
  H  H83  1  0.62335033  0.49849667  0.02460967  1
  H  H84  1  0.82199800  0.90197100  0.32390000  1
  H  H85  1  0.09802900  0.92002700  0.32390000  1
  H  H86  1  0.11839433  0.86020067  0.28361067  1
  H  H87  1  0.74180633  0.88160567  0.28361067  1
  H  H88  1  0.07997300  0.17800200  0.32390000  1
  H  H89  1  0.82672667  0.77498833  0.19913933  1
  H  H90  1  0.95467267  0.78854833  0.19256933  1
  H  H91  1  0.13979933  0.25819367  0.28361067  1
  H  H92  1  0.22501167  0.05173833  0.19913933  1
  H  H93  1  0.83387567  0.04532733  0.19256933  1
  H  H94  1  0.94826167  0.17327333  0.19913933  1
  H  H95  1  0.21145167  0.16612433  0.19256933  1
  H  H96  1  0.41117567  0.56769233  0.49143733  1
  H  H97  1  0.15651667  0.58882433  0.49143733  1
  H  H98  1  0.07580933  0.52712567  0.45093567  1
  H  H99  1  0.47287433  0.54868367  0.45093567  1
  H  H100  1  0.43230767  0.84348333  0.49143733  1
  H  H101  1  0.28182900  0.44270300  0.36562900  1
  H  H102  1  0.16817000  0.45818700  0.35794300  1
  H  H103  1  0.45131633  0.92419067  0.45093567  1
  H  H104  1  0.16087400  0.71817100  0.36562900  1
  H  H105  1  0.54181300  0.70998300  0.35794300  1
  H  H106  1  0.55729700  0.83912600  0.36562900  1
  H  H107  1  0.29001700  0.83183000  0.35794300  1
  H  H108  1  0.48866467  0.23530433  0.65723333  1
  H  H109  1  0.76469567  0.25336033  0.65723333  1
  H  H110  1  0.78506100  0.19353400  0.61694400  1
  H  H111  1  0.40847300  0.21493900  0.61694400  1
  H  H112  1  0.74663967  0.51133533  0.65723333  1
  H  H113  1  0.49339333  0.10832167  0.53247267  1
  H  H114  1  0.62133933  0.12188167  0.52590267  1
  H  H115  1  0.80646600  0.59152700  0.61694400  1
  H  H116  1  0.89167833  0.38507167  0.53247267  1
  H  H117  1  0.50054233  0.37866067  0.52590267  1
  H  H118  1  0.61492833  0.50660667  0.53247267  1
  H  H119  1  0.87811833  0.49945767  0.52590267  1
  H  H120  1  0.07784233  0.90102567  0.82477067  1
  H  H121  1  0.82318333  0.92215767  0.82477067  1
  H  H122  1  0.74247600  0.86045900  0.78426900  1
  H  H123  1  0.13954100  0.88201700  0.78426900  1
  H  H124  1  0.09897433  0.17681667  0.82477067  1
  H  H125  1  0.94849567  0.77603633  0.69896233  1
  H  H126  1  0.83483667  0.79152033  0.69127633  1
  H  H127  1  0.11798300  0.25752400  0.78426900  1
  H  H128  1  0.82754067  0.05150433  0.69896233  1
  H  H129  1  0.20847967  0.04331633  0.69127633  1
  H  H130  1  0.22396367  0.17245933  0.69896233  1
  H  H131  1  0.95668367  0.16516333  0.69127633  1
  H  H132  1  0.15533133  0.56863767  0.99056667  1
  H  H133  1  0.43136233  0.58669367  0.99056667  1
  H  H134  1  0.45172767  0.52686733  0.95027733  1
  H  H135  1  0.07513967  0.54827233  0.95027733  1
  H  H136  1  0.41330633  0.84466867  0.99056667  1
  H  H137  1  0.16006000  0.44165500  0.86580600  1
  H  H138  1  0.28800600  0.45521500  0.85923600  1
  H  H139  1  0.47313267  0.92486033  0.95027733  1
  H  H140  1  0.55834500  0.71840500  0.86580600  1
  H  H141  1  0.16720900  0.71199400  0.85923600  1
  H  H142  1  0.28159500  0.83994000  0.86580600  1
  H  H143  1  0.54478500  0.83279100  0.85923600  1
  S  S144  1  0.66666667  0.33333333  0.33325233  1
  S  S145  1  0.99239833  0.39165667  0.31498167  1
  S  S146  1  0.60834333  0.60074167  0.31498167  1
  S  S147  1  0.48340833  0.30809267  0.23139067  1
  S  S148  1  0.29511333  0.45794367  0.26222167  1
  S  S149  1  0.82468433  0.51659167  0.23139067  1
  S  S150  1  0.02075300  0.38619800  0.19132100  1
  S  S151  1  0.16283033  0.70488667  0.26222167  1
  S  S152  1  0.39925833  0.00760167  0.31498167  1
  S  S153  1  0.28063833  0.34688367  0.14745167  1
  S  S154  1  0.54205633  0.83716967  0.26222167  1
  S  S155  1  0.95747900  0.17056100  0.09487400  1
  S  S156  1  0.61380200  0.63455500  0.19132100  1
  S  S157  1  0.33333333  0.66666667  0.17049767  1
  S  S158  1  0.06624533  0.71936167  0.14745167  1
  S  S159  1  0.28032600  0.31119100  0.02479500  1
  S  S160  1  0.36544500  0.97924700  0.19132100  1
  S  S161  1  0.14661867  0.50380533  0.06424533  1
  S  S162  1  0.69190733  0.17531567  0.23139067  1
  S  S163  1  0.65311633  0.93375467  0.14745167  1
  S  S164  1  0.49619467  0.64281333  0.06424533  1
  S  S165  1  0.82943900  0.78691800  0.09487400  1
  S  S166  1  0.35718667  0.85338133  0.06424533  1
  S  S167  1  0.03086500  0.71967400  0.02479500  1
  S  S168  1  0.21308200  0.04252100  0.09487400  1
  S  S169  1  0.68880900  0.96913500  0.02479500  1
  S  S170  1  0.33333333  0.66666667  0.66658567  1
  S  S171  1  0.65906500  0.72499000  0.64831500  1
  S  S172  1  0.27501000  0.93407500  0.64831500  1
  S  S173  1  0.15007500  0.64142600  0.56472400  1
  S  S174  1  0.96178000  0.79127700  0.59555500  1
  S  S175  1  0.49135100  0.84992500  0.56472400  1
  S  S176  1  0.68741967  0.71953133  0.52465433  1
  S  S177  1  0.82949700  0.03822000  0.59555500  1
  S  S178  1  0.06592500  0.34093500  0.64831500  1
  S  S179  1  0.94730500  0.68021700  0.48078500  1
  S  S180  1  0.20872300  0.17050300  0.59555500  1
  S  S181  1  0.62414567  0.50389433  0.42820733  1
  S  S182  1  0.28046867  0.96788833  0.52465433  1
  S  S183  1  0.00000000  0.00000000  0.50383100  1
  S  S184  1  0.73291200  0.05269500  0.48078500  1
  S  S185  1  0.94699267  0.64452433  0.35812833  1
  S  S186  1  0.03211167  0.31258033  0.52465433  1
  S  S187  1  0.81328533  0.83713867  0.39757867  1
  S  S188  1  0.35857400  0.50864900  0.56472400  1
  S  S189  1  0.31978300  0.26708800  0.48078500  1
  S  S190  1  0.16286133  0.97614667  0.39757867  1
  S  S191  1  0.49610567  0.12025133  0.42820733  1
  S  S192  1  0.02385333  0.18671467  0.39757867  1
  S  S193  1  0.69753167  0.05300733  0.35812833  1
  S  S194  1  0.87974867  0.37585433  0.42820733  1
  S  S195  1  0.35547567  0.30246833  0.35812833  1
  S  S196  1  0.00000000  0.00000000  0.99991900  1
  S  S197  1  0.32573167  0.05832333  0.98164833  1
  S  S198  1  0.94167667  0.26740833  0.98164833  1
  S  S199  1  0.81674167  0.97475933  0.89805733  1
  S  S200  1  0.62844667  0.12461033  0.92888833  1
  S  S201  1  0.15801767  0.18325833  0.89805733  1
  S  S202  1  0.35408633  0.05286467  0.85798767  1
  S  S203  1  0.49616367  0.37155333  0.92888833  1
  S  S204  1  0.73259167  0.67426833  0.98164833  1
  S  S205  1  0.61397167  0.01355033  0.81411833  1
  S  S206  1  0.87538967  0.50383633  0.92888833  1
  S  S207  1  0.29081233  0.83722767  0.76154067  1
  S  S208  1  0.94713533  0.30122167  0.85798767  1
  S  S209  1  0.66666667  0.33333333  0.83716433  1
  S  S210  1  0.39957867  0.38602833  0.81411833  1
  S  S211  1  0.61365933  0.97785767  0.69146167  1
  S  S212  1  0.69877833  0.64591367  0.85798767  1
  S  S213  1  0.47995200  0.17047200  0.73091200  1
  S  S214  1  0.02524067  0.84198233  0.89805733  1
  S  S215  1  0.98644967  0.60042133  0.81411833  1
  S  S216  1  0.82952800  0.30948000  0.73091200  1
  S  S217  1  0.16277233  0.45358467  0.76154067  1
  S  S218  1  0.69052000  0.52004800  0.73091200  1
  S  S219  1  0.36419833  0.38634067  0.69146167  1
  S  S220  1  0.54641533  0.70918767  0.76154067  1
  S  S221  1  0.02214233  0.63580167  0.69146167  1
  O  O222  1  0.49438400  0.24758600  0.12678000  1
  O  O223  1  0.75241400  0.24679800  0.12678000  1
  O  O224  1  0.57841667  0.15871633  0.04088933  1
  O  O225  1  0.75320200  0.50561600  0.12678000  1
  O  O226  1  0.84128367  0.41970033  0.04088933  1
  O  O227  1  0.58029967  0.42158333  0.04088933  1
  O  O228  1  0.08653400  0.91322500  0.29274600  1
  O  O229  1  0.82669100  0.91346600  0.29274600  1
  O  O230  1  0.08677500  0.17330900  0.29274600  1
  O  O231  1  0.91329900  0.82754800  0.20639200  1
  O  O232  1  0.91424900  0.08670100  0.20639200  1
  O  O233  1  0.17245200  0.08575100  0.20639200  1
  O  O234  1  0.16105067  0.58091933  0.46011333  1
  O  O235  1  0.41908067  0.58013133  0.46011333  1
  O  O236  1  0.24508333  0.49204967  0.37422267  1
  O  O237  1  0.41986867  0.83894933  0.46011333  1
  O  O238  1  0.50795033  0.75303367  0.37422267  1
  O  O239  1  0.24696633  0.75491667  0.37422267  1
  O  O240  1  0.75320067  0.24655833  0.62607933  1
  O  O241  1  0.49335767  0.24679933  0.62607933  1
  O  O242  1  0.75344167  0.50664233  0.62607933  1
  O  O243  1  0.57996567  0.16088133  0.53972533  1
  O  O244  1  0.58091567  0.42003433  0.53972533  1
  O  O245  1  0.83911867  0.41908433  0.53972533  1
  O  O246  1  0.82771733  0.91425267  0.79344667  1
  O  O247  1  0.08574733  0.91346467  0.79344667  1
  O  O248  1  0.91175000  0.82538300  0.70755600  1
  O  O249  1  0.08653533  0.17228267  0.79344667  1
  O  O250  1  0.17461700  0.08636700  0.70755600  1
  O  O251  1  0.91363300  0.08825000  0.70755600  1
  O  O252  1  0.41986733  0.57989167  0.95941267  1
  O  O253  1  0.16002433  0.58013267  0.95941267  1
  O  O254  1  0.42010833  0.83997567  0.95941267  1
  O  O255  1  0.24663233  0.49421467  0.87305867  1
  O  O256  1  0.24758233  0.75336767  0.87305867  1
  O  O257  1  0.50578533  0.75241767  0.87305867  1
