# generated using pymatgen
data_Li4Mn3Fe3(SbO8)2
_symmetry_space_group_name_H-M   'P 1'
_cell_length_a   10.41482400
_cell_length_b   5.99900600
_cell_length_c   9.80115848
_cell_angle_alpha   90.00000000
_cell_angle_beta   90.74990529
_cell_angle_gamma   90.00000000
_symmetry_Int_Tables_number   1
_chemical_formula_structural   Li4Mn3Fe3(SbO8)2
_chemical_formula_sum   'Li8 Mn6 Fe6 Sb4 O32'
_cell_volume   612.31012899
_cell_formula_units_Z   2
loop_
 _symmetry_equiv_pos_site_id
 _symmetry_equiv_pos_as_xyz
  1  'x, y, z'
loop_
 _atom_site_type_symbol
 _atom_site_label
 _atom_site_symmetry_multiplicity
 _atom_site_fract_x
 _atom_site_fract_y
 _atom_site_fract_z
 _atom_site_occupancy
  Li  Li0  1  0.66763900  0.00000000  0.90534800  1
  Li  Li1  1  0.99871600  0.00000000  0.98796800  1
  Li  Li2  1  0.99942200  0.00000000  0.48746700  1
  Li  Li3  1  0.83385300  0.50000000  0.40356300  1
  Li  Li4  1  0.16763900  0.50000000  0.90534800  1
  Li  Li5  1  0.49871600  0.50000000  0.98796800  1
  Li  Li6  1  0.49942200  0.50000000  0.48746700  1
  Li  Li7  1  0.33385300  0.00000000  0.40356300  1
  Mn  Mn8  1  0.82977600  0.00000000  0.21052800  1
  Mn  Mn9  1  0.91604850  0.74542450  0.71155000  1
  Mn  Mn10  1  0.91604850  0.25457550  0.71155000  1
  Mn  Mn11  1  0.32977600  0.50000000  0.21052800  1
  Mn  Mn12  1  0.41604850  0.24542450  0.71155000  1
  Mn  Mn13  1  0.41604850  0.75457550  0.71155000  1
  Fe  Fe14  1  0.58546500  0.24606500  0.21379500  1
  Fe  Fe15  1  0.58546500  0.75393500  0.21379500  1
  Fe  Fe16  1  0.67017200  0.50000000  0.71515200  1
  Fe  Fe17  1  0.08546500  0.74606500  0.21379500  1
  Fe  Fe18  1  0.08546500  0.25393500  0.21379500  1
  Fe  Fe19  1  0.17017200  0.00000000  0.71515200  1
  Sb  Sb20  1  0.66633100  0.00000000  0.48470800  1
  Sb  Sb21  1  0.83405800  0.50000000  0.98573500  1
  Sb  Sb22  1  0.16633100  0.50000000  0.48470800  1
  Sb  Sb23  1  0.33405800  0.00000000  0.98573500  1
  O  O24  1  0.58672800  0.25141100  0.59423300  1
  O  O25  1  0.51696700  0.00000000  0.34592400  1
  O  O26  1  0.67002400  0.00000000  0.11059000  1
  O  O27  1  0.99467300  0.00000000  0.30032900  1
  O  O28  1  0.99530100  0.00000000  0.79895100  1
  O  O29  1  0.58672800  0.74858900  0.59423300  1
  O  O30  1  0.73653000  0.22707700  0.34874900  1
  O  O31  1  0.73653000  0.77292300  0.34874900  1
  O  O32  1  0.66774100  0.50000000  0.09562300  1
  O  O33  1  0.83341400  0.00000000  0.58964500  1
  O  O34  1  0.75564500  0.72049500  0.84775700  1
  O  O35  1  0.75564500  0.27950500  0.84775700  1
  O  O36  1  0.83917900  0.50000000  0.61429200  1
  O  O37  1  0.91856750  0.74697750  0.09375200  1
  O  O38  1  0.98308200  0.50000000  0.85230200  1
  O  O39  1  0.91856750  0.25302250  0.09375200  1
  O  O40  1  0.08672800  0.75141100  0.59423300  1
  O  O41  1  0.01696700  0.50000000  0.34592400  1
  O  O42  1  0.17002400  0.50000000  0.11059000  1
  O  O43  1  0.49467300  0.50000000  0.30032900  1
  O  O44  1  0.49530100  0.50000000  0.79895100  1
  O  O45  1  0.08672800  0.24858900  0.59423300  1
  O  O46  1  0.23653000  0.72707700  0.34874900  1
  O  O47  1  0.23653000  0.27292300  0.34874900  1
  O  O48  1  0.16774100  0.00000000  0.09562300  1
  O  O49  1  0.33341400  0.50000000  0.58964500  1
  O  O50  1  0.25564500  0.22049500  0.84775700  1
  O  O51  1  0.25564500  0.77950500  0.84775700  1
  O  O52  1  0.33917900  0.00000000  0.61429200  1
  O  O53  1  0.41856750  0.24697750  0.09375200  1
  O  O54  1  0.48308200  0.00000000  0.85230200  1
  O  O55  1  0.41856750  0.75302250  0.09375200  1
