# generated using pymatgen
data_NaMnPCO7
_symmetry_space_group_name_H-M   'P 1'
_cell_length_a   10.49339800
_cell_length_b   12.55198000
_cell_length_c   10.30199817
_cell_angle_alpha   90.00000000
_cell_angle_beta   118.53426393
_cell_angle_gamma   90.00000000
_symmetry_Int_Tables_number   1
_chemical_formula_structural   NaMnPCO7
_chemical_formula_sum   'Na8 Mn8 P8 C8 O56'
_cell_volume   1192.08505340
_cell_formula_units_Z   8
loop_
 _symmetry_equiv_pos_site_id
 _symmetry_equiv_pos_as_xyz
  1  'x, y, z'
loop_
 _atom_site_type_symbol
 _atom_site_label
 _atom_site_symmetry_multiplicity
 _atom_site_fract_x
 _atom_site_fract_y
 _atom_site_fract_z
 _atom_site_occupancy
  Na  Na0  1  0.61606100  0.85501100  0.24349600  1
  Na  Na1  1  0.61606100  0.14498900  0.24349600  1
  Na  Na2  1  0.63334800  0.12513700  0.76613500  1
  Na  Na3  1  0.63334800  0.87486300  0.76613500  1
  Na  Na4  1  0.11606100  0.35501100  0.24349600  1
  Na  Na5  1  0.11606100  0.64498900  0.24349600  1
  Na  Na6  1  0.13334800  0.62513700  0.76613500  1
  Na  Na7  1  0.13334800  0.37486300  0.76613500  1
  Mn  Mn8  1  0.94395900  0.00000000  0.34539100  1
  Mn  Mn9  1  0.42806900  0.00000000  0.33909700  1
  Mn  Mn10  1  0.31255350  0.75021450  0.65680700  1
  Mn  Mn11  1  0.31255350  0.24978550  0.65680700  1
  Mn  Mn12  1  0.44395900  0.50000000  0.34539100  1
  Mn  Mn13  1  0.92806900  0.50000000  0.33909700  1
  Mn  Mn14  1  0.81255350  0.25021450  0.65680700  1
  Mn  Mn15  1  0.81255350  0.74978550  0.65680700  1
  P  P16  1  0.45116050  0.25113550  0.43170900  1
  P  P17  1  0.45116050  0.74886450  0.43170900  1
  P  P18  1  0.30135300  0.00000000  0.57195600  1
  P  P19  1  0.79594700  0.00000000  0.56393500  1
  P  P20  1  0.95116050  0.75113550  0.43170900  1
  P  P21  1  0.95116050  0.24886450  0.43170900  1
  P  P22  1  0.80135300  0.50000000  0.57195600  1
  P  P23  1  0.29594700  0.50000000  0.56393500  1
  C  C24  1  0.78045800  0.00000000  0.08140600  1
  C  C25  1  0.27551200  0.00000000  0.07209700  1
  C  C26  1  0.47298250  0.74350850  0.92203400  1
  C  C27  1  0.47298250  0.25649150  0.92203400  1
  C  C28  1  0.28045800  0.50000000  0.08140600  1
  C  C29  1  0.77551200  0.50000000  0.07209700  1
  C  C30  1  0.97298250  0.24350850  0.92203400  1
  C  C31  1  0.97298250  0.75649150  0.92203400  1
  O  O32  1  0.55619050  0.25654550  0.05551600  1
  O  O33  1  0.55619050  0.74345450  0.05551600  1
  O  O34  1  0.42076800  0.00000000  0.14030300  1
  O  O35  1  0.92101200  0.00000000  0.14210100  1
  O  O36  1  0.73683700  0.00000000  0.18360300  1
  O  O37  1  0.22974500  0.00000000  0.17130700  1
  O  O38  1  0.43521800  0.15435600  0.33110100  1
  O  O39  1  0.42980100  0.34718800  0.32924900  1
  O  O40  1  0.42980100  0.65281200  0.32924900  1
  O  O41  1  0.43521800  0.84564400  0.33110100  1
  O  O42  1  0.15307600  0.00000000  0.43380000  1
  O  O43  1  0.32767900  0.74819200  0.47507400  1
  O  O44  1  0.32767900  0.25180800  0.47507400  1
  O  O45  1  0.64909300  0.00000000  0.41955000  1
  O  O46  1  0.59879500  0.25036400  0.57324300  1
  O  O47  1  0.42491500  0.00000000  0.52686800  1
  O  O48  1  0.91842100  0.00000000  0.52146500  1
  O  O49  1  0.59879500  0.74963600  0.57324300  1
  O  O50  1  0.32991900  0.09744100  0.67487600  1
  O  O51  1  0.32991900  0.90255900  0.67487600  1
  O  O52  1  0.80564050  0.09595450  0.66402000  1
  O  O53  1  0.80564050  0.90404550  0.66402000  1
  O  O54  1  0.51478350  0.74401350  0.81905000  1
  O  O55  1  0.51478350  0.25598650  0.81905000  1
  O  O56  1  0.33019850  0.74486550  0.85895300  1
  O  O57  1  0.33019850  0.25513450  0.85895300  1
  O  O58  1  0.69488500  0.00000000  0.94615200  1
  O  O59  1  0.19728500  0.00000000  0.93844300  1
  O  O60  1  0.05619050  0.75654550  0.05551600  1
  O  O61  1  0.05619050  0.24345450  0.05551600  1
  O  O62  1  0.92076800  0.50000000  0.14030300  1
  O  O63  1  0.42101200  0.50000000  0.14210100  1
  O  O64  1  0.23683700  0.50000000  0.18360300  1
  O  O65  1  0.72974500  0.50000000  0.17130700  1
  O  O66  1  0.93521800  0.65435600  0.33110100  1
  O  O67  1  0.92980100  0.84718800  0.32924900  1
  O  O68  1  0.92980100  0.15281200  0.32924900  1
  O  O69  1  0.93521800  0.34564400  0.33110100  1
  O  O70  1  0.65307600  0.50000000  0.43380000  1
  O  O71  1  0.82767900  0.24819200  0.47507400  1
  O  O72  1  0.82767900  0.75180800  0.47507400  1
  O  O73  1  0.14909300  0.50000000  0.41955000  1
  O  O74  1  0.09879500  0.75036400  0.57324300  1
  O  O75  1  0.92491500  0.50000000  0.52686800  1
  O  O76  1  0.41842100  0.50000000  0.52146500  1
  O  O77  1  0.09879500  0.24963600  0.57324300  1
  O  O78  1  0.82991900  0.59744100  0.67487600  1
  O  O79  1  0.82991900  0.40255900  0.67487600  1
  O  O80  1  0.30564050  0.59595450  0.66402000  1
  O  O81  1  0.30564050  0.40404550  0.66402000  1
  O  O82  1  0.01478350  0.24401350  0.81905000  1
  O  O83  1  0.01478350  0.75598650  0.81905000  1
  O  O84  1  0.83019850  0.24486550  0.85895300  1
  O  O85  1  0.83019850  0.75513450  0.85895300  1
  O  O86  1  0.19488500  0.50000000  0.94615200  1
  O  O87  1  0.69728500  0.50000000  0.93844300  1
