# generated using pymatgen
data_Mg3P2(HO)16
_symmetry_space_group_name_H-M   'P 1'
_cell_length_a   4.68227600
_cell_length_b   27.85013200
_cell_length_c   10.00757931
_cell_angle_alpha   90.00000000
_cell_angle_beta   101.42116950
_cell_angle_gamma   90.00000000
_symmetry_Int_Tables_number   1
_chemical_formula_structural   Mg3P2(HO)16
_chemical_formula_sum   'Mg12 P8 H64 O64'
_cell_volume   1279.16672854
_cell_formula_units_Z   4
loop_
 _symmetry_equiv_pos_site_id
 _symmetry_equiv_pos_as_xyz
  1  'x, y, z'
loop_
 _atom_site_type_symbol
 _atom_site_label
 _atom_site_symmetry_multiplicity
 _atom_site_fract_x
 _atom_site_fract_y
 _atom_site_fract_z
 _atom_site_occupancy
  Mg  Mg0  1  0.50000000  0.31701500  0.75000000  1
  Mg  Mg1  1  0.50000000  0.42393600  0.75000000  1
  Mg  Mg2  1  0.00000000  0.37274300  0.25000000  1
  Mg  Mg3  1  0.50000000  0.12725700  0.75000000  1
  Mg  Mg4  1  0.00000000  0.18298500  0.25000000  1
  Mg  Mg5  1  0.00000000  0.07606400  0.25000000  1
  Mg  Mg6  1  0.00000000  0.81701500  0.75000000  1
  Mg  Mg7  1  0.00000000  0.92393600  0.75000000  1
  Mg  Mg8  1  0.50000000  0.87274300  0.25000000  1
  Mg  Mg9  1  0.00000000  0.62725700  0.75000000  1
  Mg  Mg10  1  0.50000000  0.68298500  0.25000000  1
  Mg  Mg11  1  0.50000000  0.57606400  0.25000000  1
  P  P12  1  0.42709050  0.13066550  0.06273100  1
  P  P13  1  0.57290950  0.13066550  0.43726900  1
  P  P14  1  0.92709050  0.36933450  0.56273100  1
  P  P15  1  0.07290950  0.36933450  0.93726900  1
  P  P16  1  0.92709050  0.63066550  0.06273100  1
  P  P17  1  0.07290950  0.63066550  0.43726900  1
  P  P18  1  0.42709050  0.86933450  0.56273100  1
  P  P19  1  0.57290950  0.86933450  0.93726900  1
  H  H20  1  0.50621050  0.41086850  0.12571300  1
  H  H21  1  0.51555250  0.33083350  0.12934700  1
  H  H22  1  0.48444750  0.33083350  0.37065300  1
  H  H23  1  0.49378950  0.41086850  0.37428700  1
  H  H24  1  0.31437850  0.48960550  0.34946600  1
  H  H25  1  0.22940900  0.26619100  0.20742700  1
  H  H26  1  0.23790400  0.42498400  0.45012400  1
  H  H27  1  0.22763300  0.31028900  0.43624800  1
  H  H28  1  0.63966400  0.22473200  0.37535300  1
  H  H29  1  0.63580450  0.03750150  0.37675100  1
  H  H30  1  0.81437850  0.01039450  0.84946600  1
  H  H31  1  0.72940900  0.23380900  0.70742700  1
  H  H32  1  0.73790400  0.07501600  0.95012400  1
  H  H33  1  0.72763300  0.18971100  0.93624800  1
  H  H34  1  0.36419550  0.03750150  0.12324900  1
  H  H35  1  0.36033600  0.22473200  0.12464700  1
  H  H36  1  0.13966400  0.27526800  0.87535300  1
  H  H37  1  0.13580450  0.46249850  0.87675100  1
  H  H38  1  0.77236700  0.31028900  0.06375200  1
  H  H39  1  0.76209600  0.42498400  0.04987600  1
  H  H40  1  0.77059100  0.26619100  0.29257300  1
  H  H41  1  0.68562150  0.48960550  0.15053400  1
  H  H42  1  0.86419550  0.46249850  0.62324900  1
  H  H43  1  0.86033600  0.27526800  0.62464700  1
  H  H44  1  0.27236700  0.18971100  0.56375200  1
  H  H45  1  0.26209600  0.07501600  0.54987600  1
  H  H46  1  0.27059100  0.23380900  0.79257300  1
  H  H47  1  0.18562150  0.01039450  0.65053400  1
  H  H48  1  0.00621050  0.08913150  0.62571300  1
  H  H49  1  0.01555250  0.16916650  0.62934700  1
  H  H50  1  0.98444750  0.16916650  0.87065300  1
  H  H51  1  0.99378950  0.08913150  0.87428700  1
  H  H52  1  0.00621050  0.91086850  0.12571300  1
  H  H53  1  0.01555250  0.83083350  0.12934700  1
  H  H54  1  0.98444750  0.83083350  0.37065300  1
  H  H55  1  0.99378950  0.91086850  0.37428700  1
  H  H56  1  0.81437850  0.98960550  0.34946600  1
  H  H57  1  0.72940900  0.76619100  0.20742700  1
  H  H58  1  0.73790400  0.92498400  0.45012400  1
  H  H59  1  0.72763300  0.81028900  0.43624800  1
  H  H60  1  0.13966400  0.72473200  0.37535300  1
  H  H61  1  0.13580450  0.53750150  0.37675100  1
  H  H62  1  0.31437850  0.51039450  0.84946600  1
  H  H63  1  0.22940900  0.73380900  0.70742700  1
  H  H64  1  0.23790400  0.57501600  0.95012400  1
  H  H65  1  0.22763300  0.68971100  0.93624800  1
  H  H66  1  0.86419550  0.53750150  0.12324900  1
  H  H67  1  0.86033600  0.72473200  0.12464700  1
  H  H68  1  0.63966400  0.77526800  0.87535300  1
  H  H69  1  0.63580450  0.96249850  0.87675100  1
  H  H70  1  0.27236700  0.81028900  0.06375200  1
  H  H71  1  0.26209600  0.92498400  0.04987600  1
  H  H72  1  0.27059100  0.76619100  0.29257300  1
  H  H73  1  0.18562150  0.98960550  0.15053400  1
  H  H74  1  0.36419550  0.96249850  0.62324900  1
  H  H75  1  0.36033600  0.77526800  0.62464700  1
  H  H76  1  0.77236700  0.68971100  0.56375200  1
  H  H77  1  0.76209600  0.57501600  0.54987600  1
  H  H78  1  0.77059100  0.73380900  0.79257300  1
  H  H79  1  0.68562150  0.51039450  0.65053400  1
  H  H80  1  0.50621050  0.58913150  0.62571300  1
  H  H81  1  0.51555250  0.66916650  0.62934700  1
  H  H82  1  0.48444750  0.66916650  0.87065300  1
  H  H83  1  0.49378950  0.58913150  0.87428700  1
  O  O84  1  0.68069850  0.26290850  0.65179400  1
  O  O85  1  0.22220300  0.37001200  0.09251100  1
  O  O86  1  0.81526100  0.13011300  0.35168300  1
  O  O87  1  0.81753500  0.02518200  0.35250600  1
  O  O88  1  0.28488650  0.31626850  0.34615600  1
  O  O89  1  0.29403850  0.42563150  0.35694000  1
  O  O90  1  0.61617350  0.08416650  0.09059200  1
  O  O91  1  0.61290100  0.17728500  0.09046700  1
  O  O92  1  0.72220300  0.12998800  0.59251100  1
  O  O93  1  0.31930150  0.26290850  0.84820600  1
  O  O94  1  0.31526100  0.36988700  0.85168300  1
  O  O95  1  0.31753500  0.47481800  0.85250600  1
  O  O96  1  0.78488650  0.18373150  0.84615600  1
  O  O97  1  0.79403850  0.07436850  0.85694000  1
  O  O98  1  0.11617350  0.41583350  0.59059200  1
  O  O99  1  0.11290100  0.32271500  0.59046700  1
  O  O100  1  0.38709900  0.17728500  0.40953300  1
  O  O101  1  0.38382650  0.08416650  0.40940800  1
  O  O102  1  0.70596150  0.42563150  0.14306000  1
  O  O103  1  0.71511350  0.31626850  0.15384400  1
  O  O104  1  0.18246500  0.02518200  0.14749400  1
  O  O105  1  0.18473900  0.13011300  0.14831700  1
  O  O106  1  0.18069850  0.23709150  0.15179400  1
  O  O107  1  0.77779700  0.37001200  0.40748900  1
  O  O108  1  0.88709900  0.32271500  0.90953300  1
  O  O109  1  0.88382650  0.41583350  0.90940800  1
  O  O110  1  0.20596150  0.07436850  0.64306000  1
  O  O111  1  0.21511350  0.18373150  0.65384400  1
  O  O112  1  0.68246500  0.47481800  0.64749400  1
  O  O113  1  0.68473900  0.36988700  0.64831700  1
  O  O114  1  0.27779700  0.12998800  0.90748900  1
  O  O115  1  0.81930150  0.23709150  0.34820600  1
  O  O116  1  0.18069850  0.76290850  0.65179400  1
  O  O117  1  0.72220300  0.87001200  0.09251100  1
  O  O118  1  0.31526100  0.63011300  0.35168300  1
  O  O119  1  0.31753500  0.52518200  0.35250600  1
  O  O120  1  0.78488650  0.81626850  0.34615600  1
  O  O121  1  0.79403850  0.92563150  0.35694000  1
  O  O122  1  0.11617350  0.58416650  0.09059200  1
  O  O123  1  0.11290100  0.67728500  0.09046700  1
  O  O124  1  0.22220300  0.62998800  0.59251100  1
  O  O125  1  0.81930150  0.76290850  0.84820600  1
  O  O126  1  0.81526100  0.86988700  0.85168300  1
  O  O127  1  0.81753500  0.97481800  0.85250600  1
  O  O128  1  0.28488650  0.68373150  0.84615600  1
  O  O129  1  0.29403850  0.57436850  0.85694000  1
  O  O130  1  0.61617350  0.91583350  0.59059200  1
  O  O131  1  0.61290100  0.82271500  0.59046700  1
  O  O132  1  0.88709900  0.67728500  0.40953300  1
  O  O133  1  0.88382650  0.58416650  0.40940800  1
  O  O134  1  0.20596150  0.92563150  0.14306000  1
  O  O135  1  0.21511350  0.81626850  0.15384400  1
  O  O136  1  0.68246500  0.52518200  0.14749400  1
  O  O137  1  0.68473900  0.63011300  0.14831700  1
  O  O138  1  0.68069850  0.73709150  0.15179400  1
  O  O139  1  0.27779700  0.87001200  0.40748900  1
  O  O140  1  0.38709900  0.82271500  0.90953300  1
  O  O141  1  0.38382650  0.91583350  0.90940800  1
  O  O142  1  0.70596150  0.57436850  0.64306000  1
  O  O143  1  0.71511350  0.68373150  0.65384400  1
  O  O144  1  0.18246500  0.97481800  0.64749400  1
  O  O145  1  0.18473900  0.86988700  0.64831700  1
  O  O146  1  0.77779700  0.62998800  0.90748900  1
  O  O147  1  0.31930150  0.73709150  0.34820600  1
