# generated using pymatgen
data_BaYF5
_symmetry_space_group_name_H-M   'P 1'
_cell_length_a   5.45960000
_cell_length_b   5.62668200
_cell_length_c   15.50201900
_cell_angle_alpha   90.00000000
_cell_angle_beta   90.00000000
_cell_angle_gamma   90.00000000
_symmetry_Int_Tables_number   1
_chemical_formula_structural   BaYF5
_chemical_formula_sum   'Ba4 Y4 F20'
_cell_volume   476.21323477
_cell_formula_units_Z   4
loop_
 _symmetry_equiv_pos_site_id
 _symmetry_equiv_pos_as_xyz
  1  'x, y, z'
loop_
 _atom_site_type_symbol
 _atom_site_label
 _atom_site_symmetry_multiplicity
 _atom_site_fract_x
 _atom_site_fract_y
 _atom_site_fract_z
 _atom_site_occupancy
  Ba  Ba0  1  0.50411700  0.44144100  0.10421200  1
  Ba  Ba1  1  0.49588300  0.94144100  0.39578800  1
  Ba  Ba2  1  0.99588300  0.55855900  0.60421200  1
  Ba  Ba3  1  0.00411700  0.05855900  0.89578800  1
  Y  Y4  1  0.01863500  0.93998900  0.17312800  1
  Y  Y5  1  0.98136500  0.43998900  0.32687200  1
  Y  Y6  1  0.48136500  0.06001100  0.67312800  1
  Y  Y7  1  0.51863500  0.56001100  0.82687200  1
  F  F8  1  0.96858300  0.59273200  0.11274900  1
  F  F9  1  0.86763000  0.10833300  0.05704000  1
  F  F10  1  0.36122500  0.92776000  0.09972900  1
  F  F11  1  0.75847900  0.21235100  0.23341700  1
  F  F12  1  0.24099500  0.23473000  0.23630600  1
  F  F13  1  0.75900500  0.73473000  0.26369400  1
  F  F14  1  0.24152100  0.71235100  0.26658300  1
  F  F15  1  0.63877500  0.42776000  0.40027100  1
  F  F16  1  0.13237000  0.60833300  0.44296000  1
  F  F17  1  0.03141700  0.09273200  0.38725100  1
  F  F18  1  0.53141700  0.40726800  0.61274900  1
  F  F19  1  0.63237000  0.89166700  0.55704000  1
  F  F20  1  0.13877500  0.07224000  0.59972900  1
  F  F21  1  0.74152100  0.78764900  0.73341700  1
  F  F22  1  0.25900500  0.76527000  0.73630600  1
  F  F23  1  0.74099500  0.26527000  0.76369400  1
  F  F24  1  0.25847900  0.28764900  0.76658300  1
  F  F25  1  0.86122500  0.57224000  0.90027100  1
  F  F26  1  0.36763000  0.39166700  0.94296000  1
  F  F27  1  0.46858300  0.90726800  0.88725100  1
