# generated using pymatgen
data_Ba2YI7
_symmetry_space_group_name_H-M   'P 1'
_cell_length_a   9.45408100
_cell_length_b   15.26648300
_cell_length_c   17.73307268
_cell_angle_alpha   90.00000000
_cell_angle_beta   120.78939928
_cell_angle_gamma   90.00000000
_symmetry_Int_Tables_number   1
_chemical_formula_structural   Ba2YI7
_chemical_formula_sum   'Ba8 Y4 I28'
_cell_volume   2198.68538121
_cell_formula_units_Z   4
loop_
 _symmetry_equiv_pos_site_id
 _symmetry_equiv_pos_as_xyz
  1  'x, y, z'
loop_
 _atom_site_type_symbol
 _atom_site_label
 _atom_site_symmetry_multiplicity
 _atom_site_fract_x
 _atom_site_fract_y
 _atom_site_fract_z
 _atom_site_occupancy
  Ba  Ba0  1  0.84911100  0.73093600  0.54427700  1
  Ba  Ba1  1  0.43865900  0.70654700  0.25191500  1
  Ba  Ba2  1  0.56134100  0.20654700  0.24808500  1
  Ba  Ba3  1  0.84911100  0.76906400  0.04427700  1
  Ba  Ba4  1  0.15088900  0.23093600  0.95572300  1
  Ba  Ba5  1  0.43865900  0.79345300  0.75191500  1
  Ba  Ba6  1  0.56134100  0.29345300  0.74808500  1
  Ba  Ba7  1  0.15088900  0.26906400  0.45572300  1
  Y  Y8  1  0.93556000  0.30456700  0.66490000  1
  Y  Y9  1  0.93556000  0.19543300  0.16490000  1
  Y  Y10  1  0.06444000  0.80456700  0.83510000  1
  Y  Y11  1  0.06444000  0.69543300  0.33510000  1
  I  I12  1  0.94296000  0.41220500  0.81078700  1
  I  I13  1  0.84430000  0.15035400  0.74000700  1
  I  I14  1  0.72058800  0.73709000  0.69314900  1
  I  I15  1  0.84194000  0.58669600  0.38135700  1
  I  I16  1  0.94296000  0.08779500  0.31078700  1
  I  I17  1  0.65339400  0.87811500  0.38805200  1
  I  I18  1  0.81793200  0.21785600  0.48555100  1
  I  I19  1  0.42860300  0.62776300  0.43233800  1
  I  I20  1  0.84430000  0.34964600  0.24000700  1
  I  I21  1  0.72058800  0.76291000  0.19314900  1
  I  I22  1  0.57139700  0.12776300  0.06766200  1
  I  I23  1  0.18206800  0.71785600  0.01444900  1
  I  I24  1  0.34660600  0.37811500  0.11194800  1
  I  I25  1  0.84194000  0.91330400  0.88135700  1
  I  I26  1  0.15806000  0.08669600  0.11864300  1
  I  I27  1  0.65339400  0.62188500  0.88805200  1
  I  I28  1  0.81793200  0.28214400  0.98555100  1
  I  I29  1  0.42860300  0.87223700  0.93233800  1
  I  I30  1  0.27941200  0.23709000  0.80685100  1
  I  I31  1  0.15570000  0.65035400  0.75999300  1
  I  I32  1  0.57139700  0.37223700  0.56766200  1
  I  I33  1  0.18206800  0.78214400  0.51444900  1
  I  I34  1  0.34660600  0.12188500  0.61194800  1
  I  I35  1  0.05704000  0.91220500  0.68921300  1
  I  I36  1  0.15806000  0.41330400  0.61864300  1
  I  I37  1  0.27941200  0.26291000  0.30685100  1
  I  I38  1  0.15570000  0.84964600  0.25999300  1
  I  I39  1  0.05704000  0.58779500  0.18921300  1
