# generated using pymatgen
data_Y4Ga2O9
_symmetry_space_group_name_H-M   'P 1'
_cell_length_a   6.09364400
_cell_length_b   11.10219700
_cell_length_c   11.53046500
_cell_angle_alpha   90.00000000
_cell_angle_beta   90.00000000
_cell_angle_gamma   90.00000000
_symmetry_Int_Tables_number   1
_chemical_formula_structural   Y4Ga2O9
_chemical_formula_sum   'Y16 Ga8 O36'
_cell_volume   780.06865922
_cell_formula_units_Z   4
loop_
 _symmetry_equiv_pos_site_id
 _symmetry_equiv_pos_as_xyz
  1  'x, y, z'
loop_
 _atom_site_type_symbol
 _atom_site_label
 _atom_site_symmetry_multiplicity
 _atom_site_fract_x
 _atom_site_fract_y
 _atom_site_fract_z
 _atom_site_occupancy
  Y  Y0  1  0.74888800  0.08460200  0.00249200  1
  Y  Y1  1  0.25111200  0.58460200  0.00249200  1
  Y  Y2  1  0.27454200  0.28982300  0.14212300  1
  Y  Y3  1  0.72545800  0.78982300  0.14212300  1
  Y  Y4  1  0.77454200  0.28982300  0.35787700  1
  Y  Y5  1  0.22545800  0.78982300  0.35787700  1
  Y  Y6  1  0.24888800  0.08460200  0.49750800  1
  Y  Y7  1  0.75111200  0.58460200  0.49750800  1
  Y  Y8  1  0.24888800  0.41539800  0.50249200  1
  Y  Y9  1  0.75111200  0.91539800  0.50249200  1
  Y  Y10  1  0.77454200  0.21017700  0.64212300  1
  Y  Y11  1  0.22545800  0.71017700  0.64212300  1
  Y  Y12  1  0.27454200  0.21017700  0.85787700  1
  Y  Y13  1  0.72545800  0.71017700  0.85787700  1
  Y  Y14  1  0.25111200  0.91539800  0.99750800  1
  Y  Y15  1  0.74888800  0.41539800  0.99750800  1
  Ga  Ga16  1  0.05972700  0.03735900  0.22518300  1
  Ga  Ga17  1  0.94027300  0.53735900  0.22518300  1
  Ga  Ga18  1  0.44027300  0.53735900  0.27481700  1
  Ga  Ga19  1  0.55972700  0.03735900  0.27481700  1
  Ga  Ga20  1  0.44027300  0.96264100  0.72518300  1
  Ga  Ga21  1  0.55972700  0.46264100  0.72518300  1
  Ga  Ga22  1  0.94027300  0.96264100  0.77481700  1
  Ga  Ga23  1  0.05972700  0.46264100  0.77481700  1
  O  O24  1  0.53338100  0.25000000  0.00000000  1
  O  O25  1  0.46661900  0.75000000  0.00000000  1
  O  O26  1  0.11678100  0.10917800  0.05680800  1
  O  O27  1  0.88321900  0.60917800  0.05680800  1
  O  O28  1  0.45603400  0.46699800  0.11799000  1
  O  O29  1  0.54396600  0.96699800  0.11799000  1
  O  O30  1  0.06463800  0.87332500  0.17396800  1
  O  O31  1  0.93536200  0.37332500  0.17396800  1
  O  O32  1  0.20089700  0.63325900  0.22192800  1
  O  O33  1  0.79910300  0.13325900  0.22192800  1
  O  O34  1  0.70089700  0.63325900  0.27807200  1
  O  O35  1  0.29910300  0.13325900  0.27807200  1
  O  O36  1  0.43536200  0.37332500  0.32603200  1
  O  O37  1  0.56463800  0.87332500  0.32603200  1
  O  O38  1  0.95603400  0.46699800  0.38201000  1
  O  O39  1  0.04396600  0.96699800  0.38201000  1
  O  O40  1  0.38321900  0.60917800  0.44319200  1
  O  O41  1  0.61678100  0.10917800  0.44319200  1
  O  O42  1  0.03338100  0.25000000  0.50000000  1
  O  O43  1  0.96661900  0.75000000  0.50000000  1
  O  O44  1  0.38321900  0.89082200  0.55680800  1
  O  O45  1  0.61678100  0.39082200  0.55680800  1
  O  O46  1  0.04396600  0.53300200  0.61799000  1
  O  O47  1  0.95603400  0.03300200  0.61799000  1
  O  O48  1  0.43536200  0.12667500  0.67396800  1
  O  O49  1  0.56463800  0.62667500  0.67396800  1
  O  O50  1  0.29910300  0.36674100  0.72192800  1
  O  O51  1  0.70089700  0.86674100  0.72192800  1
  O  O52  1  0.20089700  0.86674100  0.77807200  1
  O  O53  1  0.79910300  0.36674100  0.77807200  1
  O  O54  1  0.06463800  0.62667500  0.82603200  1
  O  O55  1  0.93536200  0.12667500  0.82603200  1
  O  O56  1  0.45603400  0.03300200  0.88201000  1
  O  O57  1  0.54396600  0.53300200  0.88201000  1
  O  O58  1  0.88321900  0.89082200  0.94319200  1
  O  O59  1  0.11678100  0.39082200  0.94319200  1
