# generated using pymatgen
data_RbHSO4
_symmetry_space_group_name_H-M   'P 1'
_cell_length_a   14.69723700
_cell_length_b   4.78317100
_cell_length_c   15.13329219
_cell_angle_alpha   90.00000000
_cell_angle_beta   119.34186641
_cell_angle_gamma   90.00000000
_symmetry_Int_Tables_number   1
_chemical_formula_structural   RbHSO4
_chemical_formula_sum   'Rb8 H8 S8 O32'
_cell_volume   927.38009504
_cell_formula_units_Z   8
loop_
 _symmetry_equiv_pos_site_id
 _symmetry_equiv_pos_as_xyz
  1  'x, y, z'
loop_
 _atom_site_type_symbol
 _atom_site_label
 _atom_site_symmetry_multiplicity
 _atom_site_fract_x
 _atom_site_fract_y
 _atom_site_fract_z
 _atom_site_occupancy
  Rb  Rb0  1  0.87756700  0.06026600  0.09020500  1
  Rb  Rb1  1  0.87756700  0.93973400  0.59020500  1
  Rb  Rb2  1  0.61833300  0.46300500  0.16107900  1
  Rb  Rb3  1  0.61833300  0.53699500  0.66107900  1
  Rb  Rb4  1  0.12100500  0.67956200  0.40875800  1
  Rb  Rb5  1  0.12100500  0.32043800  0.90875800  1
  Rb  Rb6  1  0.39487300  0.13788700  0.32279400  1
  Rb  Rb7  1  0.39487300  0.86211300  0.82279400  1
  H  H8  1  0.87314900  0.63019000  0.38005400  1
  H  H9  1  0.87314900  0.36981000  0.88005400  1
  H  H10  1  0.73119900  0.32791000  0.44800500  1
  H  H11  1  0.73119900  0.67209000  0.94800500  1
  H  H12  1  0.16486600  0.94126600  0.21723500  1
  H  H13  1  0.16486600  0.05873400  0.71723500  1
  H  H14  1  0.35448800  0.54422400  0.11118300  1
  H  H15  1  0.35448800  0.45577600  0.61118300  1
  S  S16  1  0.86476400  0.06416300  0.32294300  1
  S  S17  1  0.86476400  0.93583700  0.82294300  1
  S  S18  1  0.61476500  0.64151900  0.40363500  1
  S  S19  1  0.61476500  0.35848100  0.90363500  1
  S  S20  1  0.10647200  0.53508500  0.15159600  1
  S  S21  1  0.10647200  0.46491500  0.65159600  1
  S  S22  1  0.36455000  0.95238800  0.05449200  1
  S  S23  1  0.36455000  0.04761200  0.55449200  1
  O  O24  1  0.95585600  0.13553400  0.31227800  1
  O  O25  1  0.95585600  0.86446600  0.81227800  1
  O  O26  1  0.83340400  0.29550700  0.36744400  1
  O  O27  1  0.83340400  0.70449300  0.86744400  1
  O  O28  1  0.77753600  0.95120200  0.22980000  1
  O  O29  1  0.77753600  0.04879800  0.72980000  1
  O  O30  1  0.90319100  0.82163900  0.40733500  1
  O  O31  1  0.90319100  0.17836100  0.90733500  1
  O  O32  1  0.55348100  0.70069000  0.45402300  1
  O  O33  1  0.55348100  0.29931000  0.95402300  1
  O  O34  1  0.56080600  0.45862900  0.31542500  1
  O  O35  1  0.56080600  0.54137100  0.81542500  1
  O  O36  1  0.71311900  0.45267700  0.48887200  1
  O  O37  1  0.71311900  0.54732300  0.98887200  1
  O  O38  1  0.66396300  0.88511800  0.38718600  1
  O  O39  1  0.66396300  0.11488200  0.88718600  1
  O  O40  1  0.00579900  0.54846700  0.15042400  1
  O  O41  1  0.00579900  0.45153300  0.65042400  1
  O  O42  1  0.10195300  0.63406200  0.05887000  1
  O  O43  1  0.10195300  0.36593800  0.55887000  1
  O  O44  1  0.18314000  0.74243800  0.24190900  1
  O  O45  1  0.18314000  0.25756200  0.74190900  1
  O  O46  1  0.15948200  0.26461300  0.18771800  1
  O  O47  1  0.15948200  0.73538700  0.68771800  1
  O  O48  1  0.47165300  0.93641300  0.07212000  1
  O  O49  1  0.47165300  0.06358700  0.57212000  1
  O  O50  1  0.35519200  0.74499600  0.13222800  1
  O  O51  1  0.35519200  0.25500400  0.63222800  1
  O  O52  1  0.28630500  0.86772800  0.95162900  1
  O  O53  1  0.28630500  0.13227200  0.45162900  1
  O  O54  1  0.33928600  0.22168500  0.08476100  1
  O  O55  1  0.33928600  0.77831500  0.58476100  1
