# generated using pymatgen
data_V3FeO8
_symmetry_space_group_name_H-M   'P 1'
_cell_length_a   12.19925021
_cell_length_b   3.80623800
_cell_length_c   6.52669393
_cell_angle_alpha   90.00000000
_cell_angle_beta   106.83746525
_cell_angle_gamma   90.00000000
_symmetry_Int_Tables_number   1
_chemical_formula_structural   V3FeO8
_chemical_formula_sum   'V6 Fe2 O16'
_cell_volume   290.06370522
_cell_formula_units_Z   2
loop_
 _symmetry_equiv_pos_site_id
 _symmetry_equiv_pos_as_xyz
  1  'x, y, z'
loop_
 _atom_site_type_symbol
 _atom_site_label
 _atom_site_symmetry_multiplicity
 _atom_site_fract_x
 _atom_site_fract_y
 _atom_site_fract_z
 _atom_site_occupancy
  V  V0  1  0.20236100  0.50000000  0.28706100  1
  V  V1  1  0.09661700  0.50000000  0.70414200  1
  V  V2  1  0.39962000  0.00000000  0.28225600  1
  V  V3  1  0.70236100  0.00000000  0.28706100  1
  V  V4  1  0.59661700  0.00000000  0.70414200  1
  V  V5  1  0.89962000  0.50000000  0.28225600  1
  Fe  Fe6  1  0.29434000  0.00000000  0.69787600  1
  Fe  Fe7  1  0.79434000  0.50000000  0.69787600  1
  O  O8  1  0.36787400  0.50000000  0.30742700  1
  O  O9  1  0.25291800  0.50000000  0.63324100  1
  O  O10  1  0.14114300  0.50000000  0.01529400  1
  O  O11  1  0.05206300  0.50000000  0.36292700  1
  O  O12  1  0.44653500  0.00000000  0.63920800  1
  O  O13  1  0.36731700  0.00000000  0.01339800  1
  O  O14  1  0.24394400  0.00000000  0.34408300  1
  O  O15  1  0.13526800  0.00000000  0.71308700  1
  O  O16  1  0.86787400  0.00000000  0.30742700  1
  O  O17  1  0.75291800  0.00000000  0.63324100  1
  O  O18  1  0.64114300  0.00000000  0.01529400  1
  O  O19  1  0.55206300  0.00000000  0.36292700  1
  O  O20  1  0.94653500  0.50000000  0.63920800  1
  O  O21  1  0.86731700  0.50000000  0.01339800  1
  O  O22  1  0.74394400  0.50000000  0.34408300  1
  O  O23  1  0.63526800  0.50000000  0.71308700  1
