# generated using pymatgen
data_MnV3(PO4)6
_symmetry_space_group_name_H-M   'P 1'
_cell_length_a   8.50707565
_cell_length_b   8.50707565
_cell_length_c   21.57498943
_cell_angle_alpha   90.00000000
_cell_angle_beta   90.00000000
_cell_angle_gamma   120.00000000
_symmetry_Int_Tables_number   1
_chemical_formula_structural   MnV3(PO4)6
_chemical_formula_sum   'Mn3 V9 P18 O72'
_cell_volume   1352.20274403
_cell_formula_units_Z   3
loop_
 _symmetry_equiv_pos_site_id
 _symmetry_equiv_pos_as_xyz
  1  'x, y, z'
loop_
 _atom_site_type_symbol
 _atom_site_label
 _atom_site_symmetry_multiplicity
 _atom_site_fract_x
 _atom_site_fract_y
 _atom_site_fract_z
 _atom_site_occupancy
  Mn  Mn0  1  0.00000000  0.00000000  0.14360200  1
  Mn  Mn1  1  0.66666667  0.33333333  0.47693533  1
  Mn  Mn2  1  0.33333333  0.66666667  0.81026867  1
  V  V3  1  0.66666667  0.33333333  0.19156933  1
  V  V4  1  0.33333333  0.66666667  0.30707667  1
  V  V5  1  0.33333333  0.66666667  0.02738667  1
  V  V6  1  0.33333333  0.66666667  0.52490267  1
  V  V7  1  0.00000000  0.00000000  0.64041000  1
  V  V8  1  0.00000000  0.00000000  0.36072000  1
  V  V9  1  0.00000000  0.00000000  0.85823600  1
  V  V10  1  0.66666667  0.33333333  0.97374333  1
  V  V11  1  0.66666667  0.33333333  0.69405333  1
  P  P12  1  0.28136833  0.00103867  0.24989367  1
  P  P13  1  0.99896133  0.28032967  0.24989367  1
  P  P14  1  0.71967033  0.71863167  0.24989367  1
  P  P15  1  0.94943867  0.62015933  0.08370233  1
  P  P16  1  0.67072067  0.05056133  0.08370233  1
  P  P17  1  0.37984067  0.32927933  0.08370233  1
  P  P18  1  0.94803500  0.33437200  0.58322700  1
  P  P19  1  0.66562800  0.61366300  0.58322700  1
  P  P20  1  0.38633700  0.05196500  0.58322700  1
  P  P21  1  0.61610533  0.95349267  0.41703567  1
  P  P22  1  0.33738733  0.38389467  0.41703567  1
  P  P23  1  0.04650733  0.66261267  0.41703567  1
  P  P24  1  0.61470167  0.66770533  0.91656033  1
  P  P25  1  0.33229467  0.94699633  0.91656033  1
  P  P26  1  0.05300367  0.38529833  0.91656033  1
  P  P27  1  0.28277200  0.28682600  0.75036900  1
  P  P28  1  0.00405400  0.71722800  0.75036900  1
  P  P29  1  0.71317400  0.99594600  0.75036900  1
  O  O30  1  0.47212767  0.30711333  0.02535233  1
  O  O31  1  0.83498567  0.52787233  0.02535233  1
  O  O32  1  0.47012233  0.16845967  0.24421167  1
  O  O33  1  0.69288667  0.16501433  0.02535233  1
  O  O34  1  0.30477767  0.83189233  0.25843933  1
  O  O35  1  0.16520133  0.95999067  0.19118167  1
  O  O36  1  0.83154033  0.30166267  0.24421167  1
  O  O37  1  0.16810767  0.47288533  0.25843933  1
  O  O38  1  0.52711467  0.69522233  0.25843933  1
  O  O39  1  0.86925767  0.50387733  0.14177433  1
  O  O40  1  0.96923333  0.80830967  0.08770567  1
  O  O41  1  0.63461967  0.13074233  0.14177433  1
  O  O42  1  0.04000933  0.20521067  0.19118167  1
  O  O43  1  0.69833733  0.52987767  0.24421167  1
  O  O44  1  0.79478933  0.83479867  0.19118167  1
  O  O45  1  0.14022967  0.63771533  0.07531833  1
  O  O46  1  0.49748567  0.85977033  0.07531833  1
  O  O47  1  0.83907633  0.03076667  0.08770567  1
  O  O48  1  0.49612267  0.36538033  0.14177433  1
  O  O49  1  0.36228467  0.50251433  0.07531833  1
  O  O50  1  0.97180967  0.16475833  0.30809733  1
  O  O51  1  0.19169033  0.16092367  0.08770567  1
  O  O52  1  0.83524167  0.80705133  0.30809733  1
  O  O53  1  0.19294867  0.02819033  0.30809733  1
  O  O54  1  0.13879433  0.64044667  0.35868567  1
  O  O55  1  0.50165233  0.86120567  0.35868567  1
  O  O56  1  0.13678900  0.50179300  0.57754500  1
  O  O57  1  0.35955333  0.49834767  0.35868567  1
  O  O58  1  0.97144433  0.16522567  0.59177267  1
  O  O59  1  0.83186800  0.29332400  0.52451500  1
  O  O60  1  0.49820700  0.63499600  0.57754500  1
  O  O61  1  0.83477433  0.80621867  0.59177267  1
  O  O62  1  0.19378133  0.02855567  0.59177267  1
  O  O63  1  0.53592433  0.83721067  0.47510767  1
  O  O64  1  0.63590000  0.14164300  0.42103900  1
  O  O65  1  0.30128633  0.46407567  0.47510767  1
  O  O66  1  0.70667600  0.53854400  0.52451500  1
  O  O67  1  0.36500400  0.86321100  0.57754500  1
  O  O68  1  0.46145600  0.16813200  0.52451500  1
  O  O69  1  0.80689633  0.97104867  0.40865167  1
  O  O70  1  0.16415233  0.19310367  0.40865167  1
  O  O71  1  0.50574300  0.36410000  0.42103900  1
  O  O72  1  0.16278933  0.69871367  0.47510767  1
  O  O73  1  0.02895133  0.83584767  0.40865167  1
  O  O74  1  0.63847633  0.49809167  0.64143067  1
  O  O75  1  0.85835700  0.49425700  0.42103900  1
  O  O76  1  0.50190833  0.14038467  0.64143067  1
  O  O77  1  0.85961533  0.36152367  0.64143067  1
  O  O78  1  0.80546100  0.97378000  0.69201900  1
  O  O79  1  0.16831900  0.19453900  0.69201900  1
  O  O80  1  0.80345567  0.83512633  0.91087833  1
  O  O81  1  0.02622000  0.83168100  0.69201900  1
  O  O82  1  0.63811100  0.49855900  0.92510600  1
  O  O83  1  0.49853467  0.62665733  0.85784833  1
  O  O84  1  0.16487367  0.96832933  0.91087833  1
  O  O85  1  0.50144100  0.13955200  0.92510600  1
  O  O86  1  0.86044800  0.36188900  0.92510600  1
  O  O87  1  0.20259100  0.17054400  0.80844100  1
  O  O88  1  0.30256667  0.47497633  0.75437233  1
  O  O89  1  0.96795300  0.79740900  0.80844100  1
  O  O90  1  0.37334267  0.87187733  0.85784833  1
  O  O91  1  0.03167067  0.19654433  0.91087833  1
  O  O92  1  0.12812267  0.50146533  0.85784833  1
  O  O93  1  0.47356300  0.30438200  0.74198500  1
  O  O94  1  0.83081900  0.52643700  0.74198500  1
  O  O95  1  0.17240967  0.69743333  0.75437233  1
  O  O96  1  0.82945600  0.03204700  0.80844100  1
  O  O97  1  0.69561800  0.16918100  0.74198500  1
  O  O98  1  0.30514300  0.83142500  0.97476400  1
  O  O99  1  0.52502367  0.82759033  0.75437233  1
  O  O100  1  0.16857500  0.47371800  0.97476400  1
  O  O101  1  0.52628200  0.69485700  0.97476400  1
