# generated using pymatgen
data_Fe7(OF3)3
_symmetry_space_group_name_H-M   'P 1'
_cell_length_a   5.49466797
_cell_length_b   5.70534901
_cell_length_c   9.13027398
_cell_angle_alpha   104.57634900
_cell_angle_beta   89.50847980
_cell_angle_gamma   117.85925424
_symmetry_Int_Tables_number   1
_chemical_formula_structural   Fe7(OF3)3
_chemical_formula_sum   'Fe7 O3 F9'
_cell_volume   242.90972533
_cell_formula_units_Z   1
loop_
 _symmetry_equiv_pos_site_id
 _symmetry_equiv_pos_as_xyz
  1  'x, y, z'
loop_
 _atom_site_type_symbol
 _atom_site_label
 _atom_site_symmetry_multiplicity
 _atom_site_fract_x
 _atom_site_fract_y
 _atom_site_fract_z
 _atom_site_occupancy
  Fe  Fe0  1  0.21181700  0.36263100  0.07104500  1
  Fe  Fe1  1  0.03593600  0.37740700  0.66504700  1
  Fe  Fe2  1  0.47790200  0.13578300  0.81458900  1
  Fe  Fe3  1  0.32050900  0.14041300  0.43153500  1
  Fe  Fe4  1  0.49020400  0.89716900  0.17424400  1
  Fe  Fe5  1  0.94951600  0.62684700  0.31594600  1
  Fe  Fe6  1  0.78004600  0.91109900  0.58512700  1
  O  O7  1  0.18167600  0.10343000  0.62149600  1
  O  O8  1  0.24991400  0.01672600  0.23505300  1
  O  O9  1  0.75459500  0.27571400  0.47567500  1
  F  F10  1  0.19775300  0.46619900  0.27693600  1
  F  F11  1  0.24824100  0.77638800  0.96934500  1
  F  F12  1  0.35148200  0.72636200  0.54830500  1
  F  F13  1  0.28009400  0.34590200  0.86791700  1
  F  F14  1  0.63242600  0.62911300  0.14324700  1
  F  F15  1  0.72029200  0.97183000  0.77051100  1
  F  F16  1  0.76819400  0.20215900  0.01973800  1
  F  F17  1  0.77862500  0.53356000  0.69971100  1
  F  F18  1  0.78718700  0.86452100  0.38448400  1
