# generated using pymatgen
data_BaYI5
_symmetry_space_group_name_H-M   'P 1'
_cell_length_a   14.09061600
_cell_length_b   9.93582400
_cell_length_c   11.89193991
_cell_angle_alpha   90.00000000
_cell_angle_beta   115.20665219
_cell_angle_gamma   90.00000000
_symmetry_Int_Tables_number   1
_chemical_formula_structural   BaYI5
_chemical_formula_sum   'Ba4 Y4 I20'
_cell_volume   1506.35877473
_cell_formula_units_Z   4
loop_
 _symmetry_equiv_pos_site_id
 _symmetry_equiv_pos_as_xyz
  1  'x, y, z'
loop_
 _atom_site_type_symbol
 _atom_site_label
 _atom_site_symmetry_multiplicity
 _atom_site_fract_x
 _atom_site_fract_y
 _atom_site_fract_z
 _atom_site_occupancy
  Ba  Ba0  1  0.00000000  0.44128300  0.75000000  1
  Ba  Ba1  1  0.00000000  0.55871700  0.25000000  1
  Ba  Ba2  1  0.50000000  0.94128300  0.75000000  1
  Ba  Ba3  1  0.50000000  0.05871700  0.25000000  1
  Y  Y4  1  0.00000000  0.00000000  0.00000000  1
  Y  Y5  1  0.00000000  0.00000000  0.50000000  1
  Y  Y6  1  0.50000000  0.50000000  0.00000000  1
  Y  Y7  1  0.50000000  0.50000000  0.50000000  1
  I  I8  1  0.26676750  0.47915750  0.87826900  1
  I  I9  1  0.98631350  0.69685250  0.52950500  1
  I  I10  1  0.26676750  0.52084250  0.37826900  1
  I  I11  1  0.00000000  0.07916500  0.75000000  1
  I  I12  1  0.01368650  0.69685250  0.97049500  1
  I  I13  1  0.98631350  0.30314750  0.02950500  1
  I  I14  1  0.00000000  0.92083500  0.25000000  1
  I  I15  1  0.73323250  0.47915750  0.62173100  1
  I  I16  1  0.01368650  0.30314750  0.47049500  1
  I  I17  1  0.73323250  0.52084250  0.12173100  1
  I  I18  1  0.76676750  0.97915750  0.87826900  1
  I  I19  1  0.48631350  0.19685250  0.52950500  1
  I  I20  1  0.76676750  0.02084250  0.37826900  1
  I  I21  1  0.50000000  0.57916500  0.75000000  1
  I  I22  1  0.51368650  0.19685250  0.97049500  1
  I  I23  1  0.48631350  0.80314750  0.02950500  1
  I  I24  1  0.50000000  0.42083500  0.25000000  1
  I  I25  1  0.23323250  0.97915750  0.62173100  1
  I  I26  1  0.51368650  0.80314750  0.47049500  1
  I  I27  1  0.23323250  0.02084250  0.12173100  1
