# generated using pymatgen
data_Ca4Ta2O9
_symmetry_space_group_name_H-M   'P 1'
_cell_length_a   5.76092600
_cell_length_b   5.76243533
_cell_length_c   14.87329654
_cell_angle_alpha   89.90478930
_cell_angle_beta   90.19984401
_cell_angle_gamma   119.95415865
_symmetry_Int_Tables_number   1
_chemical_formula_structural   Ca4Ta2O9
_chemical_formula_sum   'Ca8 Ta4 O18'
_cell_volume   427.79333462
_cell_formula_units_Z   2
loop_
 _symmetry_equiv_pos_site_id
 _symmetry_equiv_pos_as_xyz
  1  'x, y, z'
loop_
 _atom_site_type_symbol
 _atom_site_label
 _atom_site_symmetry_multiplicity
 _atom_site_fract_x
 _atom_site_fract_y
 _atom_site_fract_z
 _atom_site_occupancy
  Ca  Ca0  1  0.00074200  0.99799700  0.25522500  1
  Ca  Ca1  1  0.00000000  0.00000000  0.50000000  1
  Ca  Ca2  1  0.00000000  0.00000000  0.00000000  1
  Ca  Ca3  1  0.33442000  0.66658900  0.34379200  1
  Ca  Ca4  1  0.33993600  0.66727800  0.09495600  1
  Ca  Ca5  1  0.66006400  0.33272200  0.90504400  1
  Ca  Ca6  1  0.66558000  0.33341100  0.65620800  1
  Ca  Ca7  1  0.99925800  0.00200300  0.74477500  1
  Ta  Ta8  1  0.32848000  0.66500700  0.84917300  1
  Ta  Ta9  1  0.33299400  0.66726200  0.64925500  1
  Ta  Ta10  1  0.66700600  0.33273800  0.35074500  1
  Ta  Ta11  1  0.67152000  0.33499300  0.15082700  1
  O  O12  1  0.03905700  0.61941000  0.75218300  1
  O  O13  1  0.29388400  0.94841500  0.59884400  1
  O  O14  1  0.28261200  0.93225400  0.91023000  1
  O  O15  1  0.05109300  0.34423100  0.60031500  1
  O  O16  1  0.06032900  0.35415800  0.91096000  1
  O  O17  1  0.57511300  0.95689700  0.75307300  1
  O  O18  1  0.38154400  0.42334900  0.75398800  1
  O  O19  1  0.36600000  0.29110800  0.08463900  1
  O  O20  1  0.34718200  0.29429000  0.40067300  1
  O  O21  1  0.65281800  0.70571000  0.59932700  1
  O  O22  1  0.63400000  0.70889200  0.91536100  1
  O  O23  1  0.61845600  0.57665100  0.24601200  1
  O  O24  1  0.42488700  0.04310300  0.24692700  1
  O  O25  1  0.93967100  0.64584200  0.08904000  1
  O  O26  1  0.94890700  0.65576900  0.39968500  1
  O  O27  1  0.71738800  0.06774600  0.08977000  1
  O  O28  1  0.70611600  0.05158500  0.40115600  1
  O  O29  1  0.96094300  0.38059000  0.24781700  1
