# generated using pymatgen
data_LiTi(PO3)4
_symmetry_space_group_name_H-M   'P 1'
_cell_length_a   15.57441200
_cell_length_b   7.29512200
_cell_length_c   9.51905118
_cell_angle_alpha   90.00000000
_cell_angle_beta   123.45775986
_cell_angle_gamma   90.00000000
_symmetry_Int_Tables_number   1
_chemical_formula_structural   LiTi(PO3)4
_chemical_formula_sum   'Li4 Ti4 P16 O48'
_cell_volume   902.31093244
_cell_formula_units_Z   4
loop_
 _symmetry_equiv_pos_site_id
 _symmetry_equiv_pos_as_xyz
  1  'x, y, z'
loop_
 _atom_site_type_symbol
 _atom_site_label
 _atom_site_symmetry_multiplicity
 _atom_site_fract_x
 _atom_site_fract_y
 _atom_site_fract_z
 _atom_site_occupancy
  Li  Li0  1  0.00000000  0.30511600  0.75000000  1
  Li  Li1  1  0.00000000  0.69488400  0.25000000  1
  Li  Li2  1  0.50000000  0.80511600  0.75000000  1
  Li  Li3  1  0.50000000  0.19488400  0.25000000  1
  Ti  Ti4  1  0.00000000  0.84754800  0.75000000  1
  Ti  Ti5  1  0.00000000  0.15245200  0.25000000  1
  Ti  Ti6  1  0.50000000  0.34754800  0.75000000  1
  Ti  Ti7  1  0.50000000  0.65245200  0.25000000  1
  P  P8  1  0.64026750  0.34264950  0.17445000  1
  P  P9  1  0.63184200  0.93775500  0.13021100  1
  P  P10  1  0.86815800  0.43775500  0.36978900  1
  P  P11  1  0.85973250  0.84264950  0.32555000  1
  P  P12  1  0.14026750  0.15735050  0.67445000  1
  P  P13  1  0.13184200  0.56224500  0.63021100  1
  P  P14  1  0.36815800  0.06224500  0.86978900  1
  P  P15  1  0.35973250  0.65735050  0.82555000  1
  P  P16  1  0.14026750  0.84264950  0.17445000  1
  P  P17  1  0.13184200  0.43775500  0.13021100  1
  P  P18  1  0.36815800  0.93775500  0.36978900  1
  P  P19  1  0.35973250  0.34264950  0.32555000  1
  P  P20  1  0.64026750  0.65735050  0.67445000  1
  P  P21  1  0.63184200  0.06224500  0.63021100  1
  P  P22  1  0.86815800  0.56224500  0.86978900  1
  P  P23  1  0.85973250  0.15735050  0.82555000  1
  O  O24  1  0.10466400  0.29498100  0.21413900  1
  O  O25  1  0.64562900  0.13055500  0.22487400  1
  O  O26  1  0.61934500  0.36470300  0.00117100  1
  O  O27  1  0.75065550  0.41269650  0.31836200  1
  O  O28  1  0.93581200  0.07613700  0.79182900  1
  O  O29  1  0.74934450  0.91269650  0.18163800  1
  O  O30  1  0.88065500  0.86470300  0.49882900  1
  O  O31  1  0.93086650  0.45753150  0.55604400  1
  O  O32  1  0.06913350  0.45753150  0.94395600  1
  O  O33  1  0.85437100  0.63055500  0.27512600  1
  O  O34  1  0.89533600  0.29498100  0.28586100  1
  O  O35  1  0.06418800  0.07613700  0.70817100  1
  O  O36  1  0.93581200  0.92386300  0.29182900  1
  O  O37  1  0.10466400  0.70501900  0.71413900  1
  O  O38  1  0.14562900  0.36944500  0.72487400  1
  O  O39  1  0.93086650  0.54246850  0.05604400  1
  O  O40  1  0.06913350  0.54246850  0.44395600  1
  O  O41  1  0.11934500  0.13529700  0.50117100  1
  O  O42  1  0.25065550  0.08730350  0.81836200  1
  O  O43  1  0.06418800  0.92386300  0.20817100  1
  O  O44  1  0.24934450  0.58730350  0.68163800  1
  O  O45  1  0.38065500  0.63529700  0.99882900  1
  O  O46  1  0.35437100  0.86944500  0.77512600  1
  O  O47  1  0.89533600  0.70501900  0.78586100  1
  O  O48  1  0.60466400  0.79498100  0.21413900  1
  O  O49  1  0.14562900  0.63055500  0.22487400  1
  O  O50  1  0.11934500  0.86470300  0.00117100  1
  O  O51  1  0.25065550  0.91269650  0.31836200  1
  O  O52  1  0.43581200  0.57613700  0.79182900  1
  O  O53  1  0.24934450  0.41269650  0.18163800  1
  O  O54  1  0.38065500  0.36470300  0.49882900  1
  O  O55  1  0.43086650  0.95753150  0.55604400  1
  O  O56  1  0.56913350  0.95753150  0.94395600  1
  O  O57  1  0.35437100  0.13055500  0.27512600  1
  O  O58  1  0.39533600  0.79498100  0.28586100  1
  O  O59  1  0.56418800  0.57613700  0.70817100  1
  O  O60  1  0.43581200  0.42386300  0.29182900  1
  O  O61  1  0.60466400  0.20501900  0.71413900  1
  O  O62  1  0.64562900  0.86944500  0.72487400  1
  O  O63  1  0.43086650  0.04246850  0.05604400  1
  O  O64  1  0.56913350  0.04246850  0.44395600  1
  O  O65  1  0.61934500  0.63529700  0.50117100  1
  O  O66  1  0.75065550  0.58730350  0.81836200  1
  O  O67  1  0.56418800  0.42386300  0.20817100  1
  O  O68  1  0.74934450  0.08730350  0.68163800  1
  O  O69  1  0.88065500  0.13529700  0.99882900  1
  O  O70  1  0.85437100  0.36944500  0.77512600  1
  O  O71  1  0.39533600  0.20501900  0.78586100  1
