# generated using pymatgen
data_Li4Ti3Mn3(NiO8)2
_symmetry_space_group_name_H-M   'P 1'
_cell_length_a   10.13094000
_cell_length_b   5.86542200
_cell_length_c   9.64504481
_cell_angle_alpha   90.00000000
_cell_angle_beta   90.14481612
_cell_angle_gamma   90.00000000
_symmetry_Int_Tables_number   1
_chemical_formula_structural   Li4Ti3Mn3(NiO8)2
_chemical_formula_sum   'Li8 Ti6 Mn6 Ni4 O32'
_cell_volume   573.12832086
_cell_formula_units_Z   2
loop_
 _symmetry_equiv_pos_site_id
 _symmetry_equiv_pos_as_xyz
  1  'x, y, z'
loop_
 _atom_site_type_symbol
 _atom_site_label
 _atom_site_symmetry_multiplicity
 _atom_site_fract_x
 _atom_site_fract_y
 _atom_site_fract_z
 _atom_site_occupancy
  Li  Li0  1  0.33079200  0.00000000  0.88531700  1
  Li  Li1  1  0.00393500  0.00000000  0.99776500  1
  Li  Li2  1  0.00367700  0.00000000  0.49959500  1
  Li  Li3  1  0.66394400  0.00000000  0.38773800  1
  Li  Li4  1  0.83079200  0.50000000  0.88531700  1
  Li  Li5  1  0.50393500  0.50000000  0.99776500  1
  Li  Li6  1  0.50367700  0.50000000  0.49959500  1
  Li  Li7  1  0.16394400  0.50000000  0.38773800  1
  Ti  Ti8  1  0.41516750  0.75315650  0.21483300  1
  Ti  Ti9  1  0.41516750  0.24684350  0.21483300  1
  Ti  Ti10  1  0.83021900  0.00000000  0.71400500  1
  Ti  Ti11  1  0.91516750  0.25315650  0.21483300  1
  Ti  Ti12  1  0.91516750  0.74684350  0.21483300  1
  Ti  Ti13  1  0.33021900  0.50000000  0.71400500  1
  Mn  Mn14  1  0.16927800  0.00000000  0.21516600  1
  Mn  Mn15  1  0.58438750  0.75294950  0.71514100  1
  Mn  Mn16  1  0.58438750  0.24705050  0.71514100  1
  Mn  Mn17  1  0.66927800  0.50000000  0.21516600  1
  Mn  Mn18  1  0.08438750  0.25294950  0.71514100  1
  Mn  Mn19  1  0.08438750  0.74705050  0.71514100  1
  Ni  Ni20  1  0.33362100  0.00000000  0.49028900  1
  Ni  Ni21  1  0.66650000  0.00000000  0.98763600  1
  Ni  Ni22  1  0.83362100  0.50000000  0.49028900  1
  Ni  Ni23  1  0.16650000  0.50000000  0.98763600  1
  O  O24  1  0.42106000  0.73916300  0.60704500  1
  O  O25  1  0.48149500  0.00000000  0.33124500  1
  O  O26  1  0.33118800  0.00000000  0.10390900  1
  O  O27  1  0.00413800  0.00000000  0.31426400  1
  O  O28  1  0.00409300  0.00000000  0.81235600  1
  O  O29  1  0.42106000  0.26083700  0.60704500  1
  O  O30  1  0.25727900  0.77797000  0.33280800  1
  O  O31  1  0.25727900  0.22203000  0.33280800  1
  O  O32  1  0.84012400  0.00000000  0.10577700  1
  O  O33  1  0.15957400  0.00000000  0.60915900  1
  O  O34  1  0.73954550  0.77568150  0.83123100  1
  O  O35  1  0.73954550  0.22431850  0.83123100  1
  O  O36  1  0.66282800  0.00000000  0.60605500  1
  O  O37  1  0.58087250  0.73815350  0.10769800  1
  O  O38  1  0.51792200  0.00000000  0.82999000  1
  O  O39  1  0.58087250  0.26184650  0.10769800  1
  O  O40  1  0.92106000  0.23916300  0.60704500  1
  O  O41  1  0.98149500  0.50000000  0.33124500  1
  O  O42  1  0.83118800  0.50000000  0.10390900  1
  O  O43  1  0.50413800  0.50000000  0.31426400  1
  O  O44  1  0.50409300  0.50000000  0.81235600  1
  O  O45  1  0.92106000  0.76083700  0.60704500  1
  O  O46  1  0.75727900  0.27797000  0.33280800  1
  O  O47  1  0.75727900  0.72203000  0.33280800  1
  O  O48  1  0.34012400  0.50000000  0.10577700  1
  O  O49  1  0.65957400  0.50000000  0.60915900  1
  O  O50  1  0.23954550  0.27568150  0.83123100  1
  O  O51  1  0.23954550  0.72431850  0.83123100  1
  O  O52  1  0.16282800  0.50000000  0.60605500  1
  O  O53  1  0.08087250  0.23815350  0.10769800  1
  O  O54  1  0.01792200  0.50000000  0.82999000  1
  O  O55  1  0.08087250  0.76184650  0.10769800  1
