# generated using pymatgen
data_Ca3Be2P4(HO2)10
_symmetry_space_group_name_H-M   'P 1'
_cell_length_a   7.14569400
_cell_length_b   15.16598700
_cell_length_c   7.40552721
_cell_angle_alpha   90.00000000
_cell_angle_beta   95.82613688
_cell_angle_gamma   90.00000000
_symmetry_Int_Tables_number   1
_chemical_formula_structural   Ca3Be2P4(HO2)10
_chemical_formula_sum   'Ca6 Be4 P8 H20 O40'
_cell_volume   798.40255131
_cell_formula_units_Z   2
loop_
 _symmetry_equiv_pos_site_id
 _symmetry_equiv_pos_as_xyz
  1  'x, y, z'
loop_
 _atom_site_type_symbol
 _atom_site_label
 _atom_site_symmetry_multiplicity
 _atom_site_fract_x
 _atom_site_fract_y
 _atom_site_fract_z
 _atom_site_occupancy
  Ca  Ca0  1  0.00000000  0.00000000  0.00000000  1
  Ca  Ca1  1  0.95477500  0.69697000  0.14151800  1
  Ca  Ca2  1  0.04522500  0.19697000  0.35848200  1
  Ca  Ca3  1  0.00000000  0.50000000  0.50000000  1
  Ca  Ca4  1  0.95477500  0.80303000  0.64151800  1
  Ca  Ca5  1  0.04522500  0.30303000  0.85848200  1
  Be  Be6  1  0.44622100  0.70833500  0.12688500  1
  Be  Be7  1  0.55377900  0.20833500  0.37311500  1
  Be  Be8  1  0.44622100  0.79166500  0.62688500  1
  Be  Be9  1  0.55377900  0.29166500  0.87311500  1
  P  P10  1  0.35651800  0.15162700  0.02505600  1
  P  P11  1  0.76728000  0.34794100  0.20664400  1
  P  P12  1  0.23272000  0.84794100  0.29335600  1
  P  P13  1  0.64348200  0.65162700  0.47494400  1
  P  P14  1  0.35651800  0.34837300  0.52505600  1
  P  P15  1  0.76728000  0.15205900  0.70664400  1
  P  P16  1  0.23272000  0.65205900  0.79335600  1
  P  P17  1  0.64348200  0.84837300  0.97494400  1
  H  H18  1  0.73157900  0.52255600  0.10941700  1
  H  H19  1  0.34831100  0.41646700  0.05406000  1
  H  H20  1  0.46214200  0.93552800  0.12462700  1
  H  H21  1  0.72731400  0.08307300  0.21827000  1
  H  H22  1  0.83952600  0.01874000  0.35564700  1
  H  H23  1  0.16047400  0.51874000  0.14435300  1
  H  H24  1  0.27268600  0.58307300  0.28173000  1
  H  H25  1  0.53785800  0.43552800  0.37537300  1
  H  H26  1  0.65168900  0.91646700  0.44594000  1
  H  H27  1  0.26842100  0.02255600  0.39058300  1
  H  H28  1  0.73157900  0.97744400  0.60941700  1
  H  H29  1  0.34831100  0.08353300  0.55406000  1
  H  H30  1  0.46214200  0.56447200  0.62462700  1
  H  H31  1  0.72731400  0.41692700  0.71827000  1
  H  H32  1  0.83952600  0.48126000  0.85564700  1
  H  H33  1  0.16047400  0.98126000  0.64435300  1
  H  H34  1  0.27268600  0.91692700  0.78173000  1
  H  H35  1  0.53785800  0.06447200  0.87537300  1
  H  H36  1  0.65168900  0.58353300  0.94594000  1
  H  H37  1  0.26842100  0.47744400  0.89058300  1
  O  O38  1  0.76910600  0.56115600  0.01160400  1
  O  O39  1  0.61376600  0.35463200  0.04385600  1
  O  O40  1  0.63914600  0.76049200  0.08263900  1
  O  O41  1  0.59936100  0.92737300  0.10529500  1
  O  O42  1  0.96416500  0.32589100  0.15150700  1
  O  O43  1  0.15462700  0.13870300  0.07284000  1
  O  O44  1  0.27277800  0.77245500  0.15843600  1
  O  O45  1  0.50512900  0.14709200  0.19067200  1
  O  O46  1  0.23943900  0.93818200  0.19329200  1
  O  O47  1  0.85733400  0.06425200  0.26087700  1
  O  O48  1  0.14266600  0.56425200  0.23912300  1
  O  O49  1  0.76056100  0.43818200  0.30670800  1
  O  O50  1  0.49487100  0.64709200  0.30932800  1
  O  O51  1  0.72722200  0.27245500  0.34156400  1
  O  O52  1  0.84537300  0.63870300  0.42716000  1
  O  O53  1  0.03583500  0.82589100  0.34849300  1
  O  O54  1  0.40063900  0.42737300  0.39470500  1
  O  O55  1  0.36085400  0.26049200  0.41736100  1
  O  O56  1  0.38623400  0.85463200  0.45614400  1
  O  O57  1  0.76910600  0.93884400  0.51160400  1
  O  O58  1  0.23089400  0.06115600  0.48839600  1
  O  O59  1  0.61376600  0.14536800  0.54385600  1
  O  O60  1  0.63914600  0.73950800  0.58263900  1
  O  O61  1  0.59936100  0.57262700  0.60529500  1
  O  O62  1  0.96416500  0.17410900  0.65150700  1
  O  O63  1  0.15462700  0.36129700  0.57284000  1
  O  O64  1  0.27277800  0.72754500  0.65843600  1
  O  O65  1  0.50512900  0.35290800  0.69067200  1
  O  O66  1  0.23943900  0.56181800  0.69329200  1
  O  O67  1  0.85733400  0.43574800  0.76087700  1
  O  O68  1  0.14266600  0.93574800  0.73912300  1
  O  O69  1  0.76056100  0.06181800  0.80670800  1
  O  O70  1  0.49487100  0.85290800  0.80932800  1
  O  O71  1  0.72722200  0.22754500  0.84156400  1
  O  O72  1  0.84537300  0.86129700  0.92716000  1
  O  O73  1  0.03583500  0.67410900  0.84849300  1
  O  O74  1  0.40063900  0.07262700  0.89470500  1
  O  O75  1  0.36085400  0.23950800  0.91736100  1
  O  O76  1  0.38623400  0.64536800  0.95614400  1
  O  O77  1  0.23089400  0.43884400  0.98839600  1
