# generated using pymatgen
data_Li3CuSiO4
_symmetry_space_group_name_H-M   'P 1'
_cell_length_a   10.74816600
_cell_length_b   10.74816600
_cell_length_c   12.93398800
_cell_angle_alpha   90.00000000
_cell_angle_beta   90.00000000
_cell_angle_gamma   90.00000000
_symmetry_Int_Tables_number   1
_chemical_formula_structural   Li3CuSiO4
_chemical_formula_sum   'Li48 Cu16 Si16 O64'
_cell_volume   1494.17403167
_cell_formula_units_Z   16
loop_
 _symmetry_equiv_pos_site_id
 _symmetry_equiv_pos_as_xyz
  1  'x, y, z'
loop_
 _atom_site_type_symbol
 _atom_site_label
 _atom_site_symmetry_multiplicity
 _atom_site_fract_x
 _atom_site_fract_y
 _atom_site_fract_z
 _atom_site_occupancy
  Li  Li0  1  0.66231800  0.52893300  0.43683900  1
  Li  Li1  1  0.83768200  0.47106700  0.31316100  1
  Li  Li2  1  0.97106700  0.66231800  0.18683900  1
  Li  Li3  1  0.97106700  0.16231800  0.06316100  1
  Li  Li4  1  0.98658550  0.15347250  0.57069750  1
  Li  Li5  1  0.00088150  0.13876950  0.29886850  1
  Li  Li6  1  0.02893300  0.33768200  0.18683900  1
  Li  Li7  1  0.02893300  0.83768200  0.06316100  1
  Li  Li8  1  0.13876950  0.99911850  0.70113150  1
  Li  Li9  1  0.15347250  0.01341450  0.42930250  1
  Li  Li10  1  0.16231800  0.52893300  0.31316100  1
  Li  Li11  1  0.33768200  0.47106700  0.43683900  1
  Li  Li12  1  0.34652750  0.48658550  0.92930250  1
  Li  Li13  1  0.34652750  0.98658550  0.32069750  1
  Li  Li14  1  0.36123050  0.50088150  0.20113150  1
  Li  Li15  1  0.36123050  0.00088150  0.04886850  1
  Li  Li16  1  0.48658550  0.15347250  0.17930250  1
  Li  Li17  1  0.50088150  0.13876950  0.45113150  1
  Li  Li18  1  0.49911850  0.86123050  0.45113150  1
  Li  Li19  1  0.49911850  0.36123050  0.79886850  1
  Li  Li20  1  0.51341450  0.84652750  0.17930250  1
  Li  Li21  1  0.51341450  0.34652750  0.07069750  1
  Li  Li22  1  0.63876950  0.99911850  0.04886850  1
  Li  Li23  1  0.65347250  0.01341450  0.32069750  1
  Li  Li24  1  0.16231800  0.02893300  0.93683900  1
  Li  Li25  1  0.33768200  0.97106700  0.81316100  1
  Li  Li26  1  0.47106700  0.16231800  0.68683900  1
  Li  Li27  1  0.47106700  0.66231800  0.56316100  1
  Li  Li28  1  0.48658550  0.65347250  0.07069750  1
  Li  Li29  1  0.50088150  0.63876950  0.79886850  1
  Li  Li30  1  0.52893300  0.83768200  0.68683900  1
  Li  Li31  1  0.52893300  0.33768200  0.56316100  1
  Li  Li32  1  0.63876950  0.49911850  0.20113150  1
  Li  Li33  1  0.65347250  0.51341450  0.92930250  1
  Li  Li34  1  0.66231800  0.02893300  0.81316100  1
  Li  Li35  1  0.83768200  0.97106700  0.93683900  1
  Li  Li36  1  0.84652750  0.98658550  0.42930250  1
  Li  Li37  1  0.84652750  0.48658550  0.82069750  1
  Li  Li38  1  0.86123050  0.00088150  0.70113150  1
  Li  Li39  1  0.86123050  0.50088150  0.54886850  1
  Li  Li40  1  0.98658550  0.65347250  0.67930250  1
  Li  Li41  1  0.00088150  0.63876950  0.95113150  1
  Li  Li42  1  0.99911850  0.36123050  0.95113150  1
  Li  Li43  1  0.99911850  0.86123050  0.29886850  1
  Li  Li44  1  0.01341450  0.34652750  0.67930250  1
  Li  Li45  1  0.01341450  0.84652750  0.57069750  1
  Li  Li46  1  0.13876950  0.49911850  0.54886850  1
  Li  Li47  1  0.15347250  0.51341450  0.82069750  1
  Cu  Cu48  1  0.76796950  0.27662050  0.54874550  1
  Cu  Cu49  1  0.22337950  0.26796950  0.95125450  1
  Cu  Cu50  1  0.72337950  0.26796950  0.79874550  1
  Cu  Cu51  1  0.23203050  0.22337950  0.70125450  1
  Cu  Cu52  1  0.26796950  0.27662050  0.20125450  1
  Cu  Cu53  1  0.77662050  0.23203050  0.29874550  1
  Cu  Cu54  1  0.27662050  0.23203050  0.45125450  1
  Cu  Cu55  1  0.73203050  0.22337950  0.04874550  1
  Cu  Cu56  1  0.26796950  0.77662050  0.04874550  1
  Cu  Cu57  1  0.72337950  0.76796950  0.45125450  1
  Cu  Cu58  1  0.22337950  0.76796950  0.29874550  1
  Cu  Cu59  1  0.73203050  0.72337950  0.20125450  1
  Cu  Cu60  1  0.76796950  0.77662050  0.70125450  1
  Cu  Cu61  1  0.27662050  0.73203050  0.79874550  1
  Cu  Cu62  1  0.77662050  0.73203050  0.95125450  1
  Cu  Cu63  1  0.23203050  0.72337950  0.54874550  1
  Si  Si64  1  0.46695800  0.68410300  0.32104800  1
  Si  Si65  1  0.03304200  0.31589700  0.42895200  1
  Si  Si66  1  0.18410300  0.03304200  0.17895200  1
  Si  Si67  1  0.18410300  0.53304200  0.07104800  1
  Si  Si68  1  0.81589700  0.96695800  0.17895200  1
  Si  Si69  1  0.31589700  0.96695800  0.57104800  1
  Si  Si70  1  0.46695800  0.18410300  0.92895200  1
  Si  Si71  1  0.53304200  0.31589700  0.32104800  1
  Si  Si72  1  0.96695800  0.18410300  0.82104800  1
  Si  Si73  1  0.53304200  0.81589700  0.92895200  1
  Si  Si74  1  0.68410300  0.53304200  0.67895200  1
  Si  Si75  1  0.68410300  0.03304200  0.57104800  1
  Si  Si76  1  0.31589700  0.46695800  0.67895200  1
  Si  Si77  1  0.81589700  0.46695800  0.07104800  1
  Si  Si78  1  0.96695800  0.68410300  0.42895200  1
  Si  Si79  1  0.03304200  0.81589700  0.82104800  1
  O  O80  1  0.82766950  0.55186050  0.17728850  1
  O  O81  1  0.94813950  0.32766950  0.32271150  1
  O  O82  1  0.95341150  0.34747650  0.53642550  1
  O  O83  1  0.04658850  0.15252350  0.71357450  1
  O  O84  1  0.05186050  0.67233050  0.32271150  1
  O  O85  1  0.07541950  0.16798450  0.43856650  1
  O  O86  1  0.09557400  0.65828500  0.07571700  1
  O  O87  1  0.09557400  0.15828500  0.17428300  1
  O  O88  1  0.15252350  0.95341150  0.28642550  1
  O  O89  1  0.15252350  0.45341150  0.96357450  1
  O  O90  1  0.15828500  0.40442600  0.42428300  1
  O  O91  1  0.15828500  0.90442600  0.82571700  1
  O  O92  1  0.17233050  0.94813950  0.07271150  1
  O  O93  1  0.17233050  0.44813950  0.17728850  1
  O  O94  1  0.16798450  0.92458050  0.56143350  1
  O  O95  1  0.33201550  0.07541950  0.18856650  1
  O  O96  1  0.33201550  0.57541950  0.06143350  1
  O  O97  1  0.34171500  0.59557400  0.32571700  1
  O  O98  1  0.34171500  0.09557400  0.92428300  1
  O  O99  1  0.34747650  0.04658850  0.46357450  1
  O  O100  1  0.34747650  0.54658850  0.78642550  1
  O  O101  1  0.40442600  0.34171500  0.67428300  1
  O  O102  1  0.40442600  0.84171500  0.57571700  1
  O  O103  1  0.42458050  0.83201550  0.31143350  1
  O  O104  1  0.42458050  0.33201550  0.93856650  1
  O  O105  1  0.44813950  0.32766950  0.42728850  1
  O  O106  1  0.45341150  0.34747650  0.21357450  1
  O  O107  1  0.54658850  0.15252350  0.03642550  1
  O  O108  1  0.55186050  0.67233050  0.42728850  1
  O  O109  1  0.57541950  0.16798450  0.31143350  1
  O  O110  1  0.66798450  0.92458050  0.18856650  1
  O  O111  1  0.82766950  0.05186050  0.07271150  1
  O  O112  1  0.32766950  0.05186050  0.67728850  1
  O  O113  1  0.44813950  0.82766950  0.82271150  1
  O  O114  1  0.45341150  0.84747650  0.03642550  1
  O  O115  1  0.54658850  0.65252350  0.21357450  1
  O  O116  1  0.55186050  0.17233050  0.82271150  1
  O  O117  1  0.57541950  0.66798450  0.93856650  1
  O  O118  1  0.59557400  0.15828500  0.57571700  1
  O  O119  1  0.59557400  0.65828500  0.67428300  1
  O  O120  1  0.65252350  0.45341150  0.78642550  1
  O  O121  1  0.65252350  0.95341150  0.46357450  1
  O  O122  1  0.65828500  0.90442600  0.92428300  1
  O  O123  1  0.65828500  0.40442600  0.32571700  1
  O  O124  1  0.67233050  0.44813950  0.57271150  1
  O  O125  1  0.67233050  0.94813950  0.67728850  1
  O  O126  1  0.66798450  0.42458050  0.06143350  1
  O  O127  1  0.83201550  0.57541950  0.68856650  1
  O  O128  1  0.83201550  0.07541950  0.56143350  1
  O  O129  1  0.84171500  0.09557400  0.82571700  1
  O  O130  1  0.84171500  0.59557400  0.42428300  1
  O  O131  1  0.84747650  0.54658850  0.96357450  1
  O  O132  1  0.84747650  0.04658850  0.28642550  1
  O  O133  1  0.90442600  0.84171500  0.17428300  1
  O  O134  1  0.90442600  0.34171500  0.07571700  1
  O  O135  1  0.92458050  0.33201550  0.81143350  1
  O  O136  1  0.92458050  0.83201550  0.43856650  1
  O  O137  1  0.94813950  0.82766950  0.92728850  1
  O  O138  1  0.95341150  0.84747650  0.71357450  1
  O  O139  1  0.04658850  0.65252350  0.53642550  1
  O  O140  1  0.05186050  0.17233050  0.92728850  1
  O  O141  1  0.07541950  0.66798450  0.81143350  1
  O  O142  1  0.16798450  0.42458050  0.68856650  1
  O  O143  1  0.32766950  0.55186050  0.57271150  1
