# generated using pymatgen
data_Na2AgSb
_symmetry_space_group_name_H-M   'P 1'
_cell_length_a   7.91644000
_cell_length_b   9.34288000
_cell_length_c   5.83357300
_cell_angle_alpha   90.00000000
_cell_angle_beta   90.00000000
_cell_angle_gamma   90.00000000
_symmetry_Int_Tables_number   1
_chemical_formula_structural   Na2AgSb
_chemical_formula_sum   'Na8 Ag4 Sb4'
_cell_volume   431.46476183
_cell_formula_units_Z   4
loop_
 _symmetry_equiv_pos_site_id
 _symmetry_equiv_pos_as_xyz
  1  'x, y, z'
loop_
 _atom_site_type_symbol
 _atom_site_label
 _atom_site_symmetry_multiplicity
 _atom_site_fract_x
 _atom_site_fract_y
 _atom_site_fract_z
 _atom_site_occupancy
  Na  Na0  1  0.65008700  0.67867600  0.75000000  1
  Na  Na1  1  0.34991300  0.32132400  0.25000000  1
  Na  Na2  1  0.65008700  0.32132400  0.75000000  1
  Na  Na3  1  0.34991300  0.67867600  0.25000000  1
  Na  Na4  1  0.15008700  0.17867600  0.75000000  1
  Na  Na5  1  0.84991300  0.82132400  0.25000000  1
  Na  Na6  1  0.15008700  0.82132400  0.75000000  1
  Na  Na7  1  0.84991300  0.17867600  0.25000000  1
  Ag  Ag8  1  0.50000000  0.00000000  0.00000000  1
  Ag  Ag9  1  0.50000000  0.00000000  0.50000000  1
  Ag  Ag10  1  0.00000000  0.50000000  0.00000000  1
  Ag  Ag11  1  0.00000000  0.50000000  0.50000000  1
  Sb  Sb12  1  0.79219900  0.00000000  0.75000000  1
  Sb  Sb13  1  0.20780100  0.00000000  0.25000000  1
  Sb  Sb14  1  0.29219900  0.50000000  0.75000000  1
  Sb  Sb15  1  0.70780100  0.50000000  0.25000000  1
