# generated using pymatgen
data_BaSrI4
_symmetry_space_group_name_H-M   'P 1'
_cell_length_a   6.08189400
_cell_length_b   20.97855200
_cell_length_c   10.09807446
_cell_angle_alpha   90.00000000
_cell_angle_beta   90.01727712
_cell_angle_gamma   90.00000000
_symmetry_Int_Tables_number   1
_chemical_formula_structural   BaSrI4
_chemical_formula_sum   'Ba4 Sr4 I16'
_cell_volume   1288.40649128
_cell_formula_units_Z   4
loop_
 _symmetry_equiv_pos_site_id
 _symmetry_equiv_pos_as_xyz
  1  'x, y, z'
loop_
 _atom_site_type_symbol
 _atom_site_label
 _atom_site_symmetry_multiplicity
 _atom_site_fract_x
 _atom_site_fract_y
 _atom_site_fract_z
 _atom_site_occupancy
  Ba  Ba0  1  0.81466500  0.13455700  0.75504300  1
  Ba  Ba1  1  0.81466500  0.36544300  0.25504300  1
  Ba  Ba2  1  0.18533500  0.63455700  0.74495700  1
  Ba  Ba3  1  0.18533500  0.86544300  0.24495700  1
  Sr  Sr4  1  0.70507600  0.84636200  0.75549300  1
  Sr  Sr5  1  0.70507600  0.65363800  0.25549300  1
  Sr  Sr6  1  0.29492400  0.34636200  0.74450700  1
  Sr  Sr7  1  0.29492400  0.15363800  0.24450700  1
  I  I8  1  0.79539300  0.30209700  0.78171100  1
  I  I9  1  0.69172600  0.60244000  0.55991100  1
  I  I10  1  0.69930600  0.69471700  0.91720800  1
  I  I11  1  0.79539300  0.19790300  0.28171100  1
  I  I12  1  0.74520600  0.98726300  0.64848100  1
  I  I13  1  0.69172600  0.89756000  0.05991100  1
  I  I14  1  0.69930600  0.80528300  0.41720800  1
  I  I15  1  0.74520600  0.51273700  0.14848100  1
  I  I16  1  0.25479400  0.48726300  0.85151900  1
  I  I17  1  0.30069400  0.19471700  0.58279200  1
  I  I18  1  0.30827400  0.10244000  0.94008900  1
  I  I19  1  0.25479400  0.01273700  0.35151900  1
  I  I20  1  0.20460700  0.80209700  0.71828900  1
  I  I21  1  0.30069400  0.30528300  0.08279200  1
  I  I22  1  0.30827400  0.39756000  0.44008900  1
  I  I23  1  0.20460700  0.69790300  0.21828900  1
