# generated using pymatgen
data_Li5V3CrO8
_symmetry_space_group_name_H-M   'P 1'
_cell_length_a   5.96925600
_cell_length_b   10.46179600
_cell_length_c   9.92334729
_cell_angle_alpha   90.00000000
_cell_angle_beta   90.31950264
_cell_angle_gamma   90.00000000
_symmetry_Int_Tables_number   1
_chemical_formula_structural   Li5V3CrO8
_chemical_formula_sum   'Li20 V12 Cr4 O32'
_cell_volume   619.69485445
_cell_formula_units_Z   4
loop_
 _symmetry_equiv_pos_site_id
 _symmetry_equiv_pos_as_xyz
  1  'x, y, z'
loop_
 _atom_site_type_symbol
 _atom_site_label
 _atom_site_symmetry_multiplicity
 _atom_site_fract_x
 _atom_site_fract_y
 _atom_site_fract_z
 _atom_site_occupancy
  Li  Li0  1  0.01486500  0.99997400  0.51316800  1
  Li  Li1  1  0.01512200  0.66835900  0.72561700  1
  Li  Li2  1  0.80736150  0.59830850  0.94460300  1
  Li  Li3  1  0.22146250  0.59785750  0.94166800  1
  Li  Li4  1  0.01366950  0.80470550  0.94160700  1
  Li  Li5  1  0.51366950  0.69529450  0.44160700  1
  Li  Li6  1  0.51512200  0.83164100  0.22561700  1
  Li  Li7  1  0.30736150  0.90169150  0.44460300  1
  Li  Li8  1  0.72146250  0.90214250  0.44166800  1
  Li  Li9  1  0.51486500  0.50002600  0.01316800  1
  Li  Li10  1  0.51486500  0.49997400  0.51316800  1
  Li  Li11  1  0.51512200  0.16835900  0.72561700  1
  Li  Li12  1  0.30736150  0.09830850  0.94460300  1
  Li  Li13  1  0.72146250  0.09785750  0.94166800  1
  Li  Li14  1  0.51366950  0.30470550  0.94160700  1
  Li  Li15  1  0.01366950  0.19529450  0.44160700  1
  Li  Li16  1  0.01512200  0.33164100  0.22561700  1
  Li  Li17  1  0.80736150  0.40169150  0.44460300  1
  Li  Li18  1  0.22146250  0.40214250  0.44166800  1
  Li  Li19  1  0.01486500  0.00002600  0.01316800  1
  V  V20  1  0.77135750  0.58301650  0.21337900  1
  V  V21  1  0.27135750  0.91698350  0.71337900  1
  V  V22  1  0.25661450  0.58466450  0.21108100  1
  V  V23  1  0.01635650  0.82986750  0.21303400  1
  V  V24  1  0.51635650  0.67013250  0.71303400  1
  V  V25  1  0.75661450  0.91533550  0.71108100  1
  V  V26  1  0.27135750  0.08301650  0.21337900  1
  V  V27  1  0.77135750  0.41698350  0.71337900  1
  V  V28  1  0.75661450  0.08466450  0.21108100  1
  V  V29  1  0.51635650  0.32986750  0.21303400  1
  V  V30  1  0.01635650  0.17013250  0.71303400  1
  V  V31  1  0.25661450  0.41533550  0.71108100  1
  Cr  Cr32  1  0.01409950  0.66783850  0.47286200  1
  Cr  Cr33  1  0.51409950  0.83216150  0.97286200  1
  Cr  Cr34  1  0.51409950  0.16783850  0.47286200  1
  Cr  Cr35  1  0.01409950  0.33216150  0.97286200  1
  O  O36  1  0.76567350  0.58424450  0.58916500  1
  O  O37  1  0.00798600  0.51106900  0.34246000  1
  O  O38  1  0.52041800  0.50269900  0.82310200  1
  O  O39  1  0.26878400  0.58703900  0.58893900  1
  O  O40  1  0.77970950  0.74437850  0.34055700  1
  O  O41  1  0.00335750  0.67092750  0.09335200  1
  O  O42  1  0.24390600  0.74763000  0.34024400  1
  O  O43  1  0.52079450  0.66473450  0.08912400  1
  O  O44  1  0.02079450  0.83526550  0.58912400  1
  O  O45  1  0.27970950  0.75562150  0.84055700  1
  O  O46  1  0.26567350  0.91575550  0.08916500  1
  O  O47  1  0.74390600  0.75237000  0.84024400  1
  O  O48  1  0.50335750  0.82907250  0.59335200  1
  O  O49  1  0.50798600  0.98893100  0.84246000  1
  O  O50  1  0.76878400  0.91296100  0.08893900  1
  O  O51  1  0.02041800  0.99730100  0.32310200  1
  O  O52  1  0.26567350  0.08424450  0.58916500  1
  O  O53  1  0.50798600  0.01106900  0.34246000  1
  O  O54  1  0.02041800  0.00269900  0.82310200  1
  O  O55  1  0.76878400  0.08703900  0.58893900  1
  O  O56  1  0.27970950  0.24437850  0.34055700  1
  O  O57  1  0.50335750  0.17092750  0.09335200  1
  O  O58  1  0.74390600  0.24763000  0.34024400  1
  O  O59  1  0.02079450  0.16473450  0.08912400  1
  O  O60  1  0.52079450  0.33526550  0.58912400  1
  O  O61  1  0.77970950  0.25562150  0.84055700  1
  O  O62  1  0.76567350  0.41575550  0.08916500  1
  O  O63  1  0.24390600  0.25237000  0.84024400  1
  O  O64  1  0.00335750  0.32907250  0.59335200  1
  O  O65  1  0.00798600  0.48893100  0.84246000  1
  O  O66  1  0.26878400  0.41296100  0.08893900  1
  O  O67  1  0.52041800  0.49730100  0.32310200  1
