# generated using pymatgen
data_Na5WO5
_symmetry_space_group_name_H-M   'P 1'
_cell_length_a   6.44497000
_cell_length_b   9.82249400
_cell_length_c   10.31083344
_cell_angle_alpha   90.00000000
_cell_angle_beta   107.98660433
_cell_angle_gamma   90.00000000
_symmetry_Int_Tables_number   1
_chemical_formula_structural   Na5WO5
_chemical_formula_sum   'Na20 W4 O20'
_cell_volume   620.83436408
_cell_formula_units_Z   4
loop_
 _symmetry_equiv_pos_site_id
 _symmetry_equiv_pos_as_xyz
  1  'x, y, z'
loop_
 _atom_site_type_symbol
 _atom_site_label
 _atom_site_symmetry_multiplicity
 _atom_site_fract_x
 _atom_site_fract_y
 _atom_site_fract_z
 _atom_site_occupancy
  Na  Na0  1  0.16291400  0.11416200  0.58232500  1
  Na  Na1  1  0.34909650  0.12807850  0.93534800  1
  Na  Na2  1  0.50000000  0.90298000  0.75000000  1
  Na  Na3  1  0.16291400  0.88583800  0.08232500  1
  Na  Na4  1  0.34909650  0.87192150  0.43534800  1
  Na  Na5  1  0.65090350  0.12807850  0.56465200  1
  Na  Na6  1  0.83708600  0.11416200  0.91767500  1
  Na  Na7  1  0.50000000  0.09702000  0.25000000  1
  Na  Na8  1  0.65090350  0.87192150  0.06465200  1
  Na  Na9  1  0.83708600  0.88583800  0.41767500  1
  Na  Na10  1  0.66291400  0.61416200  0.58232500  1
  Na  Na11  1  0.84909650  0.62807850  0.93534800  1
  Na  Na12  1  0.00000000  0.40298000  0.75000000  1
  Na  Na13  1  0.66291400  0.38583800  0.08232500  1
  Na  Na14  1  0.84909650  0.37192150  0.43534800  1
  Na  Na15  1  0.15090350  0.62807850  0.56465200  1
  Na  Na16  1  0.33708600  0.61416200  0.91767500  1
  Na  Na17  1  0.00000000  0.59702000  0.25000000  1
  Na  Na18  1  0.15090350  0.37192150  0.06465200  1
  Na  Na19  1  0.33708600  0.38583800  0.41767500  1
  W  W20  1  0.50000000  0.35624400  0.75000000  1
  W  W21  1  0.50000000  0.64375600  0.25000000  1
  W  W22  1  0.00000000  0.85624400  0.75000000  1
  W  W23  1  0.00000000  0.14375600  0.25000000  1
  O  O24  1  0.27727500  0.89118300  0.88803800  1
  O  O25  1  0.14581900  0.87021500  0.60987600  1
  O  O26  1  0.27727500  0.10881700  0.38803800  1
  O  O27  1  0.14581900  0.12978500  0.10987600  1
  O  O28  1  0.50000000  0.16162300  0.75000000  1
  O  O29  1  0.50000000  0.83837700  0.25000000  1
  O  O30  1  0.85418100  0.87021500  0.89012400  1
  O  O31  1  0.72272500  0.89118300  0.61196200  1
  O  O32  1  0.85418100  0.12978500  0.39012400  1
  O  O33  1  0.72272500  0.10881700  0.11196200  1
  O  O34  1  0.77727500  0.39118300  0.88803800  1
  O  O35  1  0.64581900  0.37021500  0.60987600  1
  O  O36  1  0.77727500  0.60881700  0.38803800  1
  O  O37  1  0.64581900  0.62978500  0.10987600  1
  O  O38  1  0.00000000  0.66162300  0.75000000  1
  O  O39  1  0.00000000  0.33837700  0.25000000  1
  O  O40  1  0.35418100  0.37021500  0.89012400  1
  O  O41  1  0.22272500  0.39118300  0.61196200  1
  O  O42  1  0.35418100  0.62978500  0.39012400  1
  O  O43  1  0.22272500  0.60881700  0.11196200  1
