# generated using pymatgen
data_BaY3Cl11
_symmetry_space_group_name_H-M   'P 1'
_cell_length_a   5.33905100
_cell_length_b   10.30999800
_cell_length_c   19.27919000
_cell_angle_alpha   90.00000000
_cell_angle_beta   90.00000000
_cell_angle_gamma   90.00000000
_symmetry_Int_Tables_number   1
_chemical_formula_structural   BaY3Cl11
_chemical_formula_sum   'Ba2 Y6 Cl22'
_cell_volume   1061.23468000
_cell_formula_units_Z   2
loop_
 _symmetry_equiv_pos_site_id
 _symmetry_equiv_pos_as_xyz
  1  'x, y, z'
loop_
 _atom_site_type_symbol
 _atom_site_label
 _atom_site_symmetry_multiplicity
 _atom_site_fract_x
 _atom_site_fract_y
 _atom_site_fract_z
 _atom_site_occupancy
  Ba  Ba0  1  0.00000000  0.75000000  0.01421200  1
  Ba  Ba1  1  0.00000000  0.25000000  0.98578800  1
  Y  Y2  1  0.00000000  0.00063400  0.23575800  1
  Y  Y3  1  0.00000000  0.49936600  0.23575800  1
  Y  Y4  1  0.00000000  0.00000000  0.50000000  1
  Y  Y5  1  0.00000000  0.50000000  0.50000000  1
  Y  Y6  1  0.00000000  0.99936600  0.76424200  1
  Y  Y7  1  0.00000000  0.50063400  0.76424200  1
  Cl  Cl8  1  0.50000000  0.75000000  0.06904900  1
  Cl  Cl9  1  0.00000000  0.03716700  0.10080600  1
  Cl  Cl10  1  0.00000000  0.46283300  0.10080600  1
  Cl  Cl11  1  0.00000000  0.75000000  0.20326900  1
  Cl  Cl12  1  0.50000000  0.00378000  0.23923400  1
  Cl  Cl13  1  0.50000000  0.49622000  0.23923400  1
  Cl  Cl14  1  0.00000000  0.25000000  0.26775600  1
  Cl  Cl15  1  0.00000000  0.93084800  0.36821300  1
  Cl  Cl16  1  0.00000000  0.56915200  0.36821300  1
  Cl  Cl17  1  0.00000000  0.25000000  0.46420200  1
  Cl  Cl18  1  0.50000000  0.00000000  0.50000000  1
  Cl  Cl19  1  0.50000000  0.50000000  0.50000000  1
  Cl  Cl20  1  0.00000000  0.75000000  0.53579800  1
  Cl  Cl21  1  0.00000000  0.06915200  0.63178700  1
  Cl  Cl22  1  0.00000000  0.43084800  0.63178700  1
  Cl  Cl23  1  0.00000000  0.75000000  0.73224400  1
  Cl  Cl24  1  0.50000000  0.99622000  0.76076600  1
  Cl  Cl25  1  0.50000000  0.50378000  0.76076600  1
  Cl  Cl26  1  0.00000000  0.25000000  0.79673100  1
  Cl  Cl27  1  0.00000000  0.96283300  0.89919400  1
  Cl  Cl28  1  0.00000000  0.53716700  0.89919400  1
  Cl  Cl29  1  0.50000000  0.25000000  0.93095100  1
