# generated using pymatgen
data_NaPH4SO8
_symmetry_space_group_name_H-M   'P 1'
_cell_length_a   5.47281100
_cell_length_b   6.84533300
_cell_length_c   8.82088000
_cell_angle_alpha   90.00000000
_cell_angle_beta   95.42208469
_cell_angle_gamma   90.00000000
_symmetry_Int_Tables_number   1
_chemical_formula_structural   NaPH4SO8
_chemical_formula_sum   'Na2 P2 H8 S2 O16'
_cell_volume   328.97991470
_cell_formula_units_Z   2
loop_
 _symmetry_equiv_pos_site_id
 _symmetry_equiv_pos_as_xyz
  1  'x, y, z'
loop_
 _atom_site_type_symbol
 _atom_site_label
 _atom_site_symmetry_multiplicity
 _atom_site_fract_x
 _atom_site_fract_y
 _atom_site_fract_z
 _atom_site_occupancy
  Na  Na0  1  0.98696700  0.13958400  0.55427300  1
  Na  Na1  1  0.01303300  0.63958400  0.44572700  1
  P  P2  1  0.88153400  0.88045100  0.12167700  1
  P  P3  1  0.11846600  0.38045100  0.87832300  1
  H  H4  1  0.91302300  0.49612700  0.06852200  1
  H  H5  1  0.84596500  0.58016600  0.75083900  1
  H  H6  1  0.57177900  0.08597700  0.13881200  1
  H  H7  1  0.54830900  0.61012700  0.22191000  1
  H  H8  1  0.45169100  0.11012700  0.77809000  1
  H  H9  1  0.42822100  0.58597700  0.86118800  1
  H  H10  1  0.15403500  0.08016600  0.24916100  1
  H  H11  1  0.08697700  0.99612700  0.93147800  1
  S  S12  1  0.54137800  0.86396000  0.63864600  1
  S  S13  1  0.45862200  0.36396000  0.36135400  1
  O  O14  1  0.94817900  0.37193900  0.01021200  1
  O  O15  1  0.98610100  0.48792800  0.73431100  1
  O  O16  1  0.82444900  0.67268400  0.16814100  1
  O  O17  1  0.71535900  0.36596600  0.42232700  1
  O  O18  1  0.64502900  0.99640000  0.06438500  1
  O  O19  1  0.72028800  0.86070800  0.52552700  1
  O  O20  1  0.59678600  0.06561400  0.72278400  1
  O  O21  1  0.59537200  0.70549100  0.75275100  1
  O  O22  1  0.40462800  0.20549100  0.24724900  1
  O  O23  1  0.40321400  0.56561400  0.27721600  1
  O  O24  1  0.27971200  0.36070800  0.47447300  1
  O  O25  1  0.35497100  0.49640000  0.93561500  1
  O  O26  1  0.28464100  0.86596600  0.57767300  1
  O  O27  1  0.17555100  0.17268400  0.83185900  1
  O  O28  1  0.01389900  0.98792800  0.26568900  1
  O  O29  1  0.05182100  0.87193900  0.98978800  1
