# generated using pymatgen
data_BaYCl5
_symmetry_space_group_name_H-M   'P 1'
_cell_length_a   12.46350200
_cell_length_b   8.82775600
_cell_length_c   10.47655978
_cell_angle_alpha   90.00000000
_cell_angle_beta   115.03487437
_cell_angle_gamma   90.00000000
_symmetry_Int_Tables_number   1
_chemical_formula_structural   BaYCl5
_chemical_formula_sum   'Ba4 Y4 Cl20'
_cell_volume   1044.38698750
_cell_formula_units_Z   4
loop_
 _symmetry_equiv_pos_site_id
 _symmetry_equiv_pos_as_xyz
  1  'x, y, z'
loop_
 _atom_site_type_symbol
 _atom_site_label
 _atom_site_symmetry_multiplicity
 _atom_site_fract_x
 _atom_site_fract_y
 _atom_site_fract_z
 _atom_site_occupancy
  Ba  Ba0  1  0.00000000  0.44824300  0.75000000  1
  Ba  Ba1  1  0.00000000  0.55175700  0.25000000  1
  Ba  Ba2  1  0.50000000  0.94824300  0.75000000  1
  Ba  Ba3  1  0.50000000  0.05175700  0.25000000  1
  Y  Y4  1  0.00000000  0.00000000  0.00000000  1
  Y  Y5  1  0.00000000  0.00000000  0.50000000  1
  Y  Y6  1  0.50000000  0.50000000  0.00000000  1
  Y  Y7  1  0.50000000  0.50000000  0.50000000  1
  Cl  Cl8  1  0.26970900  0.47959800  0.88071300  1
  Cl  Cl9  1  0.98778400  0.70080900  0.52761700  1
  Cl  Cl10  1  0.26970900  0.52040200  0.38071300  1
  Cl  Cl11  1  0.00000000  0.07676700  0.75000000  1
  Cl  Cl12  1  0.01221600  0.70080900  0.97238300  1
  Cl  Cl13  1  0.98778400  0.29919100  0.02761700  1
  Cl  Cl14  1  0.00000000  0.92323300  0.25000000  1
  Cl  Cl15  1  0.73029100  0.47959800  0.61928700  1
  Cl  Cl16  1  0.01221600  0.29919100  0.47238300  1
  Cl  Cl17  1  0.73029100  0.52040200  0.11928700  1
  Cl  Cl18  1  0.76970900  0.97959800  0.88071300  1
  Cl  Cl19  1  0.48778400  0.20080900  0.52761700  1
  Cl  Cl20  1  0.76970900  0.02040200  0.38071300  1
  Cl  Cl21  1  0.50000000  0.57676700  0.75000000  1
  Cl  Cl22  1  0.51221600  0.20080900  0.97238300  1
  Cl  Cl23  1  0.48778400  0.79919100  0.02761700  1
  Cl  Cl24  1  0.50000000  0.42323300  0.25000000  1
  Cl  Cl25  1  0.23029100  0.97959800  0.61928700  1
  Cl  Cl26  1  0.51221600  0.79919100  0.47238300  1
  Cl  Cl27  1  0.23029100  0.02040200  0.11928700  1
