# generated using pymatgen
data_KP2H8SN7O2
_symmetry_space_group_name_H-M   'P 1'
_cell_length_a   9.92259200
_cell_length_b   13.37657000
_cell_length_c   13.89345400
_cell_angle_alpha   90.00000000
_cell_angle_beta   90.00000000
_cell_angle_gamma   90.00000000
_symmetry_Int_Tables_number   1
_chemical_formula_structural   KP2H8SN7O2
_chemical_formula_sum   'K8 P16 H64 S8 N56 O16'
_cell_volume   1844.08157373
_cell_formula_units_Z   8
loop_
 _symmetry_equiv_pos_site_id
 _symmetry_equiv_pos_as_xyz
  1  'x, y, z'
loop_
 _atom_site_type_symbol
 _atom_site_label
 _atom_site_symmetry_multiplicity
 _atom_site_fract_x
 _atom_site_fract_y
 _atom_site_fract_z
 _atom_site_occupancy
  K  K0  1  0.59062300  0.12727000  0.39348300  1
  K  K1  1  0.09062300  0.37273000  0.60651700  1
  K  K2  1  0.40937700  0.62727000  0.10651700  1
  K  K3  1  0.90937700  0.87273000  0.89348300  1
  K  K4  1  0.40937700  0.87273000  0.60651700  1
  K  K5  1  0.90937700  0.62727000  0.39348300  1
  K  K6  1  0.59062300  0.37273000  0.89348300  1
  K  K7  1  0.09062300  0.12727000  0.10651700  1
  P  P8  1  0.21956100  0.26621100  0.34552200  1
  P  P9  1  0.71956100  0.23378900  0.65447800  1
  P  P10  1  0.78043900  0.76621100  0.15447800  1
  P  P11  1  0.28043900  0.73378900  0.84552200  1
  P  P12  1  0.78043900  0.73378900  0.65447800  1
  P  P13  1  0.28043900  0.76621100  0.34552200  1
  P  P14  1  0.21956100  0.23378900  0.84552200  1
  P  P15  1  0.71956100  0.26621100  0.15447800  1
  P  P16  1  0.05343200  0.09432700  0.36532700  1
  P  P17  1  0.55343200  0.40567300  0.63467300  1
  P  P18  1  0.94656800  0.59432700  0.13467300  1
  P  P19  1  0.44656800  0.90567300  0.86532700  1
  P  P20  1  0.94656800  0.90567300  0.63467300  1
  P  P21  1  0.44656800  0.59432700  0.36532700  1
  P  P22  1  0.05343200  0.40567300  0.86532700  1
  P  P23  1  0.55343200  0.09432700  0.13467300  1
  H  H24  1  0.04668400  0.37371800  0.39610400  1
  H  H25  1  0.54668400  0.12628200  0.60389600  1
  H  H26  1  0.95331600  0.87371800  0.10389600  1
  H  H27  1  0.45331600  0.62628200  0.89610400  1
  H  H28  1  0.95331600  0.62628200  0.60389600  1
  H  H29  1  0.45331600  0.87371800  0.39610400  1
  H  H30  1  0.04668400  0.12628200  0.89610400  1
  H  H31  1  0.54668400  0.37371800  0.10389600  1
  H  H32  1  0.20135300  0.43456500  0.39482900  1
  H  H33  1  0.70135300  0.06543500  0.60517100  1
  H  H34  1  0.79864700  0.93456500  0.10517100  1
  H  H35  1  0.29864700  0.56543500  0.89482900  1
  H  H36  1  0.79864700  0.56543500  0.60517100  1
  H  H37  1  0.29864700  0.93456500  0.39482900  1
  H  H38  1  0.20135300  0.06543500  0.89482900  1
  H  H39  1  0.70135300  0.43456500  0.10517100  1
  H  H40  1  0.40662300  0.25837700  0.24655100  1
  H  H41  1  0.90662300  0.24162300  0.75344900  1
  H  H42  1  0.59337700  0.75837700  0.25344900  1
  H  H43  1  0.09337700  0.74162300  0.74655100  1
  H  H44  1  0.59337700  0.74162300  0.75344900  1
  H  H45  1  0.09337700  0.75837700  0.24655100  1
  H  H46  1  0.40662300  0.24162300  0.74655100  1
  H  H47  1  0.90662300  0.25837700  0.25344900  1
  H  H48  1  0.27910400  0.32315800  0.19685700  1
  H  H49  1  0.77910400  0.17684200  0.80314300  1
  H  H50  1  0.72089600  0.82315800  0.30314300  1
  H  H51  1  0.22089600  0.67684200  0.69685700  1
  H  H52  1  0.72089600  0.67684200  0.80314300  1
  H  H53  1  0.22089600  0.82315800  0.19685700  1
  H  H54  1  0.27910400  0.17684200  0.69685700  1
  H  H55  1  0.77910400  0.32315800  0.30314300  1
  H  H56  1  0.87930600  0.05743600  0.46396500  1
  H  H57  1  0.37930600  0.44256400  0.53603500  1
  H  H58  1  0.12069400  0.55743600  0.03603500  1
  H  H59  1  0.62069400  0.94256400  0.96396500  1
  H  H60  1  0.12069400  0.94256400  0.53603500  1
  H  H61  1  0.62069400  0.55743600  0.46396500  1
  H  H62  1  0.87930600  0.44256400  0.96396500  1
  H  H63  1  0.37930600  0.05743600  0.03603500  1
  H  H64  1  0.89973000  0.18078400  0.45603800  1
  H  H65  1  0.39973000  0.31921600  0.54396200  1
  H  H66  1  0.10027000  0.68078400  0.04396200  1
  H  H67  1  0.60027000  0.81921600  0.95603800  1
  H  H68  1  0.10027000  0.81921600  0.54396200  1
  H  H69  1  0.60027000  0.68078400  0.45603800  1
  H  H70  1  0.89973000  0.31921600  0.95603800  1
  H  H71  1  0.39973000  0.18078400  0.04396200  1
  H  H72  1  0.08018900  0.94249400  0.28468200  1
  H  H73  1  0.58018900  0.55750600  0.71531800  1
  H  H74  1  0.91981100  0.44249400  0.21531800  1
  H  H75  1  0.41981100  0.05750600  0.78468200  1
  H  H76  1  0.91981100  0.05750600  0.71531800  1
  H  H77  1  0.41981100  0.44249400  0.28468200  1
  H  H78  1  0.08018900  0.55750600  0.78468200  1
  H  H79  1  0.58018900  0.94249400  0.21531800  1
  H  H80  1  0.91943300  0.98318400  0.28540400  1
  H  H81  1  0.41943300  0.51681600  0.71459600  1
  H  H82  1  0.08056700  0.48318400  0.21459600  1
  H  H83  1  0.58056700  0.01681600  0.78540400  1
  H  H84  1  0.08056700  0.01681600  0.71459600  1
  H  H85  1  0.58056700  0.48318400  0.28540400  1
  H  H86  1  0.91943300  0.51681600  0.78540400  1
  H  H87  1  0.41943300  0.98318400  0.21459600  1
  S  S88  1  0.26187400  0.12916800  0.49371300  1
  S  S89  1  0.76187400  0.37083200  0.50628700  1
  S  S90  1  0.73812600  0.62916800  0.00628700  1
  S  S91  1  0.23812600  0.87083200  0.99371300  1
  S  S92  1  0.73812600  0.87083200  0.50628700  1
  S  S93  1  0.23812600  0.62916800  0.49371300  1
  S  S94  1  0.26187400  0.37083200  0.99371300  1
  S  S95  1  0.76187400  0.12916800  0.00628700  1
  N  N96  1  0.32093300  0.21230900  0.42273200  1
  N  N97  1  0.82093300  0.28769100  0.57726800  1
  N  N98  1  0.67906700  0.71230900  0.07726800  1
  N  N99  1  0.17906700  0.78769100  0.92273200  1
  N  N100  1  0.67906700  0.78769100  0.57726800  1
  N  N101  1  0.17906700  0.71230900  0.42273200  1
  N  N102  1  0.32093300  0.28769100  0.92273200  1
  N  N103  1  0.82093300  0.21230900  0.07726800  1
  N  N104  1  0.17180200  0.04981600  0.43547400  1
  N  N105  1  0.67180200  0.45018400  0.56452600  1
  N  N106  1  0.82819800  0.54981600  0.06452600  1
  N  N107  1  0.32819800  0.95018400  0.93547400  1
  N  N108  1  0.82819800  0.95018400  0.56452600  1
  N  N109  1  0.32819800  0.54981600  0.43547400  1
  N  N110  1  0.17180200  0.45018400  0.93547400  1
  N  N111  1  0.67180200  0.04981600  0.06452600  1
  N  N112  1  0.09695100  0.19524900  0.31035900  1
  N  N113  1  0.59695100  0.30475100  0.68964100  1
  N  N114  1  0.90304900  0.69524900  0.18964100  1
  N  N115  1  0.40304900  0.80475100  0.81035900  1
  N  N116  1  0.90304900  0.80475100  0.68964100  1
  N  N117  1  0.40304900  0.69524900  0.31035900  1
  N  N118  1  0.09695100  0.30475100  0.81035900  1
  N  N119  1  0.59695100  0.19524900  0.18964100  1
  N  N120  1  0.14645400  0.37183600  0.37828100  1
  N  N121  1  0.64645400  0.12816400  0.62171900  1
  N  N122  1  0.85354600  0.87183600  0.12171900  1
  N  N123  1  0.35354600  0.62816400  0.87828100  1
  N  N124  1  0.85354600  0.62816400  0.62171900  1
  N  N125  1  0.35354600  0.87183600  0.37828100  1
  N  N126  1  0.14645400  0.12816400  0.87828100  1
  N  N127  1  0.64645400  0.37183600  0.12171900  1
  N  N128  1  0.32570100  0.30392000  0.26056100  1
  N  N129  1  0.82570100  0.19608000  0.73943900  1
  N  N130  1  0.67429900  0.80392000  0.23943900  1
  N  N131  1  0.17429900  0.69608000  0.76056100  1
  N  N132  1  0.67429900  0.69608000  0.73943900  1
  N  N133  1  0.17429900  0.80392000  0.26056100  1
  N  N134  1  0.32570100  0.19608000  0.76056100  1
  N  N135  1  0.82570100  0.30392000  0.23943900  1
  N  N136  1  0.90440800  0.11517200  0.41772600  1
  N  N137  1  0.40440800  0.38482800  0.58227400  1
  N  N138  1  0.09559200  0.61517200  0.08227400  1
  N  N139  1  0.59559200  0.88482800  0.91772600  1
  N  N140  1  0.09559200  0.88482800  0.58227400  1
  N  N141  1  0.59559200  0.61517200  0.41772600  1
  N  N142  1  0.90440800  0.38482800  0.91772600  1
  N  N143  1  0.40440800  0.11517200  0.08227400  1
  N  N144  1  0.01817100  0.00414400  0.28782300  1
  N  N145  1  0.51817100  0.49585600  0.71217700  1
  N  N146  1  0.98182900  0.50414400  0.21217700  1
  N  N147  1  0.48182900  0.99585600  0.78782300  1
  N  N148  1  0.98182900  0.99585600  0.71217700  1
  N  N149  1  0.48182900  0.50414400  0.28782300  1
  N  N150  1  0.01817100  0.49585600  0.78782300  1
  N  N151  1  0.51817100  0.00414400  0.21217700  1
  O  O152  1  0.37709100  0.07203600  0.53208200  1
  O  O153  1  0.87709100  0.42796400  0.46791800  1
  O  O154  1  0.62290900  0.57203600  0.96791800  1
  O  O155  1  0.12290900  0.92796400  0.03208200  1
  O  O156  1  0.62290900  0.92796400  0.46791800  1
  O  O157  1  0.12290900  0.57203600  0.53208200  1
  O  O158  1  0.37709100  0.42796400  0.03208200  1
  O  O159  1  0.87709100  0.07203600  0.96791800  1
  O  O160  1  0.18155300  0.17694600  0.57087800  1
  O  O161  1  0.68155300  0.32305400  0.42912200  1
  O  O162  1  0.81844700  0.67694600  0.92912200  1
  O  O163  1  0.31844700  0.82305400  0.07087800  1
  O  O164  1  0.81844700  0.82305400  0.42912200  1
  O  O165  1  0.31844700  0.67694600  0.57087800  1
  O  O166  1  0.18155300  0.32305400  0.07087800  1
  O  O167  1  0.68155300  0.17694600  0.92912200  1
