# generated using pymatgen
data_Ho2(SO4)3
_symmetry_space_group_name_H-M   'P 1'
_cell_length_a   9.23421171
_cell_length_b   9.23421171
_cell_length_c   23.71149356
_cell_angle_alpha   90.00000000
_cell_angle_beta   90.00000000
_cell_angle_gamma   120.00000000
_symmetry_Int_Tables_number   1
_chemical_formula_structural   Ho2(SO4)3
_chemical_formula_sum   'Ho12 S18 O72'
_cell_volume   1751.01230039
_cell_formula_units_Z   6
loop_
 _symmetry_equiv_pos_site_id
 _symmetry_equiv_pos_as_xyz
  1  'x, y, z'
loop_
 _atom_site_type_symbol
 _atom_site_label
 _atom_site_symmetry_multiplicity
 _atom_site_fract_x
 _atom_site_fract_y
 _atom_site_fract_z
 _atom_site_occupancy
  Ho  Ho0  1  0.00000000  0.00000000  0.14391600  1
  Ho  Ho1  1  0.66666667  0.33333333  0.18941733  1
  Ho  Ho2  1  0.33333333  0.66666667  0.31058267  1
  Ho  Ho3  1  0.33333333  0.66666667  0.02275067  1
  Ho  Ho4  1  0.66666667  0.33333333  0.47724933  1
  Ho  Ho5  1  0.33333333  0.66666667  0.52275067  1
  Ho  Ho6  1  0.00000000  0.00000000  0.64391600  1
  Ho  Ho7  1  0.00000000  0.00000000  0.35608400  1
  Ho  Ho8  1  0.33333333  0.66666667  0.81058267  1
  Ho  Ho9  1  0.00000000  0.00000000  0.85608400  1
  Ho  Ho10  1  0.66666667  0.33333333  0.97724933  1
  Ho  Ho11  1  0.66666667  0.33333333  0.68941733  1
  S  S12  1  0.00000000  0.28743100  0.25000000  1
  S  S13  1  0.37923567  0.33333333  0.08333333  1
  S  S14  1  0.95409767  0.62076433  0.08333333  1
  S  S15  1  0.71256900  0.71256900  0.25000000  1
  S  S16  1  0.28743100  0.00000000  0.25000000  1
  S  S17  1  0.66666667  0.04590233  0.08333333  1
  S  S18  1  0.66666667  0.62076433  0.58333333  1
  S  S19  1  0.04590233  0.66666667  0.41666667  1
  S  S20  1  0.62076433  0.95409767  0.41666667  1
  S  S21  1  0.37923567  0.04590233  0.58333333  1
  S  S22  1  0.95409767  0.33333333  0.58333333  1
  S  S23  1  0.33333333  0.37923567  0.41666667  1
  S  S24  1  0.33333333  0.95409767  0.91666667  1
  S  S25  1  0.71256900  0.00000000  0.75000000  1
  S  S26  1  0.28743100  0.28743100  0.75000000  1
  S  S27  1  0.04590233  0.37923567  0.91666667  1
  S  S28  1  0.62076433  0.66666667  0.91666667  1
  S  S29  1  0.00000000  0.71256900  0.75000000  1
  O  O30  1  0.14874500  0.45485100  0.25822500  1
  O  O31  1  0.97401600  0.18224900  0.30048400  1
  O  O32  1  0.45843367  0.30734933  0.03284933  1
  O  O33  1  0.12151767  0.63943933  0.07510833  1
  O  O34  1  0.85125500  0.30610600  0.24177500  1
  O  O35  1  0.18224900  0.97401600  0.19951600  1
  O  O36  1  0.87489967  0.51558233  0.13381733  1
  O  O37  1  0.21181567  0.18458833  0.09155833  1
  O  O38  1  0.36056067  0.48207833  0.07510833  1
  O  O39  1  0.97277267  0.78818433  0.09155833  1
  O  O40  1  0.84891567  0.54156633  0.03284933  1
  O  O41  1  0.64068267  0.12510033  0.13381733  1
  O  O42  1  0.02598400  0.20823300  0.19951600  1
  O  O43  1  0.81775100  0.79176700  0.30048400  1
  O  O44  1  0.69389400  0.54514900  0.24177500  1
  O  O45  1  0.30610600  0.85125500  0.25822500  1
  O  O46  1  0.45485100  0.14874500  0.24177500  1
  O  O47  1  0.79176700  0.81775100  0.19951600  1
  O  O48  1  0.48441767  0.35931733  0.13381733  1
  O  O49  1  0.81541167  0.02722733  0.09155833  1
  O  O50  1  0.54514900  0.69389400  0.25822500  1
  O  O51  1  0.20823300  0.02598400  0.30048400  1
  O  O52  1  0.69265067  0.15108433  0.03284933  1
  O  O53  1  0.51792167  0.87848233  0.07510833  1
  O  O54  1  0.81541167  0.78818433  0.59155833  1
  O  O55  1  0.64068267  0.51558233  0.63381733  1
  O  O56  1  0.12510033  0.64068267  0.36618267  1
  O  O57  1  0.78818433  0.97277267  0.40844167  1
  O  O58  1  0.51792167  0.63943933  0.57510833  1
  O  O59  1  0.84891567  0.30734933  0.53284933  1
  O  O60  1  0.54156633  0.84891567  0.46715067  1
  O  O61  1  0.87848233  0.51792167  0.42489167  1
  O  O62  1  0.02722733  0.81541167  0.40844167  1
  O  O63  1  0.63943933  0.12151767  0.42489167  1
  O  O64  1  0.51558233  0.87489967  0.36618267  1
  O  O65  1  0.30734933  0.45843367  0.46715067  1
  O  O66  1  0.69265067  0.54156633  0.53284933  1
  O  O67  1  0.48441767  0.12510033  0.63381733  1
  O  O68  1  0.36056067  0.87848233  0.57510833  1
  O  O69  1  0.97277267  0.18458833  0.59155833  1
  O  O70  1  0.12151767  0.48207833  0.57510833  1
  O  O71  1  0.45843367  0.15108433  0.53284933  1
  O  O72  1  0.15108433  0.69265067  0.46715067  1
  O  O73  1  0.48207833  0.36056067  0.42489167  1
  O  O74  1  0.21181567  0.02722733  0.59155833  1
  O  O75  1  0.87489967  0.35931733  0.63381733  1
  O  O76  1  0.35931733  0.48441767  0.36618267  1
  O  O77  1  0.18458833  0.21181567  0.40844167  1
  O  O78  1  0.48207833  0.12151767  0.92489167  1
  O  O79  1  0.30734933  0.84891567  0.96715067  1
  O  O80  1  0.79176700  0.97401600  0.69951600  1
  O  O81  1  0.45485100  0.30610600  0.74177500  1
  O  O82  1  0.18458833  0.97277267  0.90844167  1
  O  O83  1  0.51558233  0.64068267  0.86618267  1
  O  O84  1  0.20823300  0.18224900  0.80048400  1
  O  O85  1  0.54514900  0.85125500  0.75822500  1
  O  O86  1  0.69389400  0.14874500  0.74177500  1
  O  O87  1  0.30610600  0.45485100  0.75822500  1
  O  O88  1  0.18224900  0.20823300  0.69951600  1
  O  O89  1  0.97401600  0.79176700  0.80048400  1
  O  O90  1  0.35931733  0.87489967  0.86618267  1
  O  O91  1  0.15108433  0.45843367  0.96715067  1
  O  O92  1  0.02722733  0.21181567  0.90844167  1
  O  O93  1  0.63943933  0.51792167  0.92489167  1
  O  O94  1  0.78818433  0.81541167  0.90844167  1
  O  O95  1  0.12510033  0.48441767  0.86618267  1
  O  O96  1  0.81775100  0.02598400  0.80048400  1
  O  O97  1  0.14874500  0.69389400  0.75822500  1
  O  O98  1  0.87848233  0.36056067  0.92489167  1
  O  O99  1  0.54156633  0.69265067  0.96715067  1
  O  O100  1  0.02598400  0.81775100  0.69951600  1
  O  O101  1  0.85125500  0.54514900  0.74177500  1
