# generated using pymatgen
data_CaH4SO6
_symmetry_space_group_name_H-M   'P 1'
_cell_length_a   5.68431800
_cell_length_b   15.56290800
_cell_length_c   6.38681172
_cell_angle_alpha   90.00000000
_cell_angle_beta   113.96960736
_cell_angle_gamma   90.00000000
_symmetry_Int_Tables_number   1
_chemical_formula_structural   CaH4SO6
_chemical_formula_sum   'Ca4 H16 S4 O24'
_cell_volume   516.28069679
_cell_formula_units_Z   4
loop_
 _symmetry_equiv_pos_site_id
 _symmetry_equiv_pos_as_xyz
  1  'x, y, z'
loop_
 _atom_site_type_symbol
 _atom_site_label
 _atom_site_symmetry_multiplicity
 _atom_site_fract_x
 _atom_site_fract_y
 _atom_site_fract_z
 _atom_site_occupancy
  Ca  Ca0  1  0.00000000  0.17608000  0.75000000  1
  Ca  Ca1  1  0.50000000  0.32392000  0.25000000  1
  Ca  Ca2  1  0.50000000  0.67608000  0.75000000  1
  Ca  Ca3  1  0.00000000  0.82392000  0.25000000  1
  H  H4  1  0.99877650  0.40941550  0.98613300  1
  H  H5  1  0.00122350  0.40941550  0.51386700  1
  H  H6  1  0.70398650  0.01553950  0.50929200  1
  H  H7  1  0.20398650  0.48446050  0.00929200  1
  H  H8  1  0.29601350  0.01553950  0.99070800  1
  H  H9  1  0.79601350  0.48446050  0.49070800  1
  H  H10  1  0.49877650  0.09058450  0.48613300  1
  H  H11  1  0.50122350  0.09058450  0.01386700  1
  H  H12  1  0.49877650  0.90941550  0.98613300  1
  H  H13  1  0.50122350  0.90941550  0.51386700  1
  H  H14  1  0.20398650  0.51553950  0.50929200  1
  H  H15  1  0.70398650  0.98446050  0.00929200  1
  H  H16  1  0.79601350  0.51553950  0.99070800  1
  H  H17  1  0.29601350  0.98446050  0.49070800  1
  H  H18  1  0.99877650  0.59058450  0.48613300  1
  H  H19  1  0.00122350  0.59058450  0.01386700  1
  S  S20  1  0.50000000  0.32966000  0.75000000  1
  S  S21  1  0.00000000  0.17034000  0.25000000  1
  S  S22  1  0.00000000  0.82966000  0.75000000  1
  S  S23  1  0.50000000  0.67034000  0.25000000  1
  O  O24  1  0.68340600  0.07522300  0.54655500  1
  O  O25  1  0.34787450  0.27429250  0.84079800  1
  O  O26  1  0.32691450  0.38339750  0.55424300  1
  O  O27  1  0.18340600  0.42477700  0.04655500  1
  O  O28  1  0.84787450  0.22570750  0.34079800  1
  O  O29  1  0.67308550  0.38339750  0.94575700  1
  O  O30  1  0.82691450  0.11660250  0.05424300  1
  O  O31  1  0.65212550  0.27429250  0.65920200  1
  O  O32  1  0.31659400  0.07522300  0.95344500  1
  O  O33  1  0.17308550  0.11660250  0.44575700  1
  O  O34  1  0.15212550  0.22570750  0.15920200  1
  O  O35  1  0.81659400  0.42477700  0.45344500  1
  O  O36  1  0.18340600  0.57522300  0.54655500  1
  O  O37  1  0.84787450  0.77429250  0.84079800  1
  O  O38  1  0.82691450  0.88339750  0.55424300  1
  O  O39  1  0.68340600  0.92477700  0.04655500  1
  O  O40  1  0.34787450  0.72570750  0.34079800  1
  O  O41  1  0.17308550  0.88339750  0.94575700  1
  O  O42  1  0.32691450  0.61660250  0.05424300  1
  O  O43  1  0.15212550  0.77429250  0.65920200  1
  O  O44  1  0.81659400  0.57522300  0.95344500  1
  O  O45  1  0.67308550  0.61660250  0.44575700  1
  O  O46  1  0.65212550  0.72570750  0.15920200  1
  O  O47  1  0.31659400  0.92477700  0.45344500  1
