# generated using pymatgen
data_K2Cu5H8(Cl4O3)2
_symmetry_space_group_name_H-M   'P 1'
_cell_length_a   11.59085232
_cell_length_b   6.70385100
_cell_length_c   11.90242255
_cell_angle_alpha   90.00000000
_cell_angle_beta   90.76807409
_cell_angle_gamma   90.00000000
_symmetry_Int_Tables_number   1
_chemical_formula_structural   K2Cu5H8(Cl4O3)2
_chemical_formula_sum   'K4 Cu10 H16 Cl16 O12'
_cell_volume   924.77496862
_cell_formula_units_Z   2
loop_
 _symmetry_equiv_pos_site_id
 _symmetry_equiv_pos_as_xyz
  1  'x, y, z'
loop_
 _atom_site_type_symbol
 _atom_site_label
 _atom_site_symmetry_multiplicity
 _atom_site_fract_x
 _atom_site_fract_y
 _atom_site_fract_z
 _atom_site_occupancy
  K  K0  1  0.08483100  0.59146000  0.82380900  1
  K  K1  1  0.91516900  0.09146000  0.67619100  1
  K  K2  1  0.91516900  0.40854000  0.17619100  1
  K  K3  1  0.08483100  0.90854000  0.32380900  1
  Cu  Cu4  1  0.50000000  0.00000000  0.50000000  1
  Cu  Cu5  1  0.50000000  0.50000000  0.00000000  1
  Cu  Cu6  1  0.28035100  0.00601600  0.69468900  1
  Cu  Cu7  1  0.71964900  0.50601600  0.80531100  1
  Cu  Cu8  1  0.71964900  0.99398400  0.30531100  1
  Cu  Cu9  1  0.28035100  0.49398400  0.19468900  1
  Cu  Cu10  1  0.51306800  0.83967000  0.76271400  1
  Cu  Cu11  1  0.48693200  0.33967000  0.73728600  1
  Cu  Cu12  1  0.48693200  0.16033000  0.23728600  1
  Cu  Cu13  1  0.51306800  0.66033000  0.26271400  1
  H  H14  1  0.38566900  0.10325600  0.86781700  1
  H  H15  1  0.61433100  0.60325600  0.63218300  1
  H  H16  1  0.61433100  0.89674400  0.13218300  1
  H  H17  1  0.38566900  0.39674400  0.36781700  1
  H  H18  1  0.38063500  0.73579600  0.59054500  1
  H  H19  1  0.61936500  0.23579600  0.90945500  1
  H  H20  1  0.61936500  0.26420400  0.40945500  1
  H  H21  1  0.38063500  0.76420400  0.09054500  1
  H  H22  1  0.12177900  0.35994600  0.53512000  1
  H  H23  1  0.87822100  0.85994600  0.96488000  1
  H  H24  1  0.87822100  0.64005400  0.46488000  1
  H  H25  1  0.12177900  0.14005400  0.03512000  1
  H  H26  1  0.03745900  0.50709200  0.58943800  1
  H  H27  1  0.96254100  0.00709200  0.91056200  1
  H  H28  1  0.96254100  0.49290800  0.41056200  1
  H  H29  1  0.03745900  0.99290800  0.08943800  1
  Cl  Cl30  1  0.63802400  0.08971200  0.63357400  1
  Cl  Cl31  1  0.36197600  0.58971200  0.86642600  1
  Cl  Cl32  1  0.36197600  0.91028800  0.36642600  1
  Cl  Cl33  1  0.63802400  0.41028800  0.13357400  1
  Cl  Cl34  1  0.62547900  0.85248200  0.91978100  1
  Cl  Cl35  1  0.37452100  0.35248200  0.58021900  1
  Cl  Cl36  1  0.37452100  0.14751800  0.08021900  1
  Cl  Cl37  1  0.62547900  0.64751800  0.41978100  1
  Cl  Cl38  1  0.14583900  0.86187100  0.58874000  1
  Cl  Cl39  1  0.85416100  0.36187100  0.91126000  1
  Cl  Cl40  1  0.85416100  0.13812900  0.41126000  1
  Cl  Cl41  1  0.14583900  0.63812900  0.08874000  1
  Cl  Cl42  1  0.16145300  0.11332700  0.82962200  1
  Cl  Cl43  1  0.83854700  0.61332700  0.67037800  1
  Cl  Cl44  1  0.83854700  0.88667300  0.17037800  1
  Cl  Cl45  1  0.16145300  0.38667300  0.32962200  1
  O  O46  1  0.41333500  0.08563200  0.79063800  1
  O  O47  1  0.58666500  0.58563200  0.70936200  1
  O  O48  1  0.58666500  0.91436800  0.20936200  1
  O  O49  1  0.41333500  0.41436800  0.29063800  1
  O  O50  1  0.41236300  0.86063400  0.62100800  1
  O  O51  1  0.58763700  0.36063400  0.87899200  1
  O  O52  1  0.58763700  0.13936600  0.37899200  1
  O  O53  1  0.41236300  0.63936600  0.12100800  1
  O  O54  1  0.06865900  0.37179300  0.59744200  1
  O  O55  1  0.93134100  0.87179300  0.90255800  1
  O  O56  1  0.93134100  0.62820700  0.40255800  1
  O  O57  1  0.06865900  0.12820700  0.09744200  1
