# generated using pymatgen
data_Ti3V2P6WO24
_symmetry_space_group_name_H-M   'P 1'
_cell_length_a   8.72856686
_cell_length_b   8.72856686
_cell_length_c   21.13978510
_cell_angle_alpha   90.00000000
_cell_angle_beta   90.00000000
_cell_angle_gamma   120.00000000
_symmetry_Int_Tables_number   1
_chemical_formula_structural   Ti3V2P6WO24
_chemical_formula_sum   'Ti9 V6 P18 W3 O72'
_cell_volume   1394.81653031
_cell_formula_units_Z   3
loop_
 _symmetry_equiv_pos_site_id
 _symmetry_equiv_pos_as_xyz
  1  'x, y, z'
loop_
 _atom_site_type_symbol
 _atom_site_label
 _atom_site_symmetry_multiplicity
 _atom_site_fract_x
 _atom_site_fract_y
 _atom_site_fract_z
 _atom_site_occupancy
  Ti  Ti0  1  0.33333333  0.66666667  0.31217567  1
  Ti  Ti1  1  0.33333333  0.66666667  0.52244267  1
  Ti  Ti2  1  0.33333333  0.66666667  0.02176567  1
  Ti  Ti3  1  0.00000000  0.00000000  0.64550900  1
  Ti  Ti4  1  0.00000000  0.00000000  0.85577600  1
  Ti  Ti5  1  0.00000000  0.00000000  0.35509900  1
  Ti  Ti6  1  0.66666667  0.33333333  0.97884233  1
  Ti  Ti7  1  0.66666667  0.33333333  0.18910933  1
  Ti  Ti8  1  0.66666667  0.33333333  0.68843233  1
  V  V9  1  0.33333333  0.66666667  0.66333467  1
  V  V10  1  0.33333333  0.66666667  0.16788767  1
  V  V11  1  0.00000000  0.00000000  0.99666800  1
  V  V12  1  0.00000000  0.00000000  0.50122100  1
  V  V13  1  0.66666667  0.33333333  0.33000133  1
  V  V14  1  0.66666667  0.33333333  0.83455433  1
  P  P15  1  0.00087933  0.29708767  0.25108067  1
  P  P16  1  0.70291233  0.70379167  0.25108067  1
  P  P17  1  0.29620833  0.99912067  0.25108067  1
  P  P18  1  0.37775467  0.33870433  0.08277433  1
  P  P19  1  0.96094967  0.62224533  0.08277433  1
  P  P20  1  0.66129567  0.03905033  0.08277433  1
  P  P21  1  0.66754600  0.63042100  0.58441400  1
  P  P22  1  0.36957900  0.03712500  0.58441400  1
  P  P23  1  0.96287500  0.33245400  0.58441400  1
  P  P24  1  0.04442133  0.67203767  0.41610767  1
  P  P25  1  0.62761633  0.95557867  0.41610767  1
  P  P26  1  0.32796233  0.37238367  0.41610767  1
  P  P27  1  0.33421267  0.96375433  0.91774733  1
  P  P28  1  0.03624567  0.37045833  0.91774733  1
  P  P29  1  0.62954167  0.66578733  0.91774733  1
  P  P30  1  0.71108800  0.00537100  0.74944100  1
  P  P31  1  0.29428300  0.28891200  0.74944100  1
  P  P32  1  0.99462900  0.70571700  0.74944100  1
  W  W33  1  0.33333333  0.66666667  0.80746867  1
  W  W34  1  0.00000000  0.00000000  0.14080200  1
  W  W35  1  0.66666667  0.33333333  0.47413533  1
  O  O36  1  0.13986833  0.47721167  0.97674467  1
  O  O37  1  0.52278833  0.66265667  0.97674467  1
  O  O38  1  0.33734333  0.86013167  0.97674467  1
  O  O39  1  0.83286400  0.31645400  0.25715200  1
  O  O40  1  0.00075667  0.20791733  0.19014033  1
  O  O41  1  0.16626700  0.48753000  0.24788900  1
  O  O42  1  0.68354600  0.51641000  0.25715200  1
  O  O43  1  0.51247000  0.67873700  0.24788900  1
  O  O44  1  0.13805533  0.66136867  0.47642767  1
  O  O45  1  0.32126300  0.83373300  0.24788900  1
  O  O46  1  0.19239200  0.17379600  0.07181000  1
  O  O47  1  0.52331333  0.86194467  0.47642767  1
  O  O48  1  0.79208267  0.79283933  0.19014033  1
  O  O49  1  0.48359000  0.16713600  0.25715200  1
  O  O50  1  0.35621767  0.50456233  0.08992333  1
  O  O51  1  0.20716067  0.99924333  0.19014033  1
  O  O52  1  0.14834467  0.64378233  0.08992333  1
  O  O53  1  0.98140400  0.80760800  0.07181000  1
  O  O54  1  0.49543767  0.85165533  0.08992333  1
  O  O55  1  0.33863133  0.47668667  0.47642767  1
  O  O56  1  0.82620400  0.01859600  0.07181000  1
  O  O57  1  0.31662000  0.47094700  0.35769600  1
  O  O58  1  0.15432700  0.68338000  0.35769600  1
  O  O59  1  0.52905300  0.84567300  0.35769600  1
  O  O60  1  0.80653500  0.81054500  0.31007800  1
  O  O61  1  0.18945500  0.99599000  0.31007800  1
  O  O62  1  0.00401000  0.19346500  0.31007800  1
  O  O63  1  0.49953067  0.64978733  0.59048533  1
  O  O64  1  0.66742333  0.54125067  0.52347367  1
  O  O65  1  0.83293367  0.82086333  0.58122233  1
  O  O66  1  0.35021267  0.84974333  0.59048533  1
  O  O67  1  0.17913667  0.01207033  0.58122233  1
  O  O68  1  0.80472200  0.99470200  0.80976100  1
  O  O69  1  0.98792967  0.16706633  0.58122233  1
  O  O70  1  0.85905867  0.50712933  0.40514333  1
  O  O71  1  0.18998000  0.19527800  0.80976100  1
  O  O72  1  0.45874933  0.12617267  0.52347367  1
  O  O73  1  0.15025667  0.50046933  0.59048533  1
  O  O74  1  0.02288433  0.83789567  0.42325667  1
  O  O75  1  0.87382733  0.33257667  0.52347367  1
  O  O76  1  0.81501133  0.97711567  0.42325667  1
  O  O77  1  0.64807067  0.14094133  0.40514333  1
  O  O78  1  0.16210433  0.18498867  0.42325667  1
  O  O79  1  0.00529800  0.81002000  0.80976100  1
  O  O80  1  0.49287067  0.35192933  0.40514333  1
  O  O81  1  0.98328667  0.80428033  0.69102933  1
  O  O82  1  0.82099367  0.01671333  0.69102933  1
  O  O83  1  0.19571967  0.17900633  0.69102933  1
  O  O84  1  0.47320167  0.14387833  0.64341133  1
  O  O85  1  0.85612167  0.32932333  0.64341133  1
  O  O86  1  0.67067667  0.52679833  0.64341133  1
  O  O87  1  0.16619733  0.98312067  0.92381867  1
  O  O88  1  0.33409000  0.87458400  0.85680700  1
  O  O89  1  0.49960033  0.15419667  0.91455567  1
  O  O90  1  0.01687933  0.18307667  0.92381867  1
  O  O91  1  0.84580333  0.34540367  0.91455567  1
  O  O92  1  0.47138867  0.32803533  0.14309433  1
  O  O93  1  0.65459633  0.50039967  0.91455567  1
  O  O94  1  0.52572533  0.84046267  0.73847667  1
  O  O95  1  0.85664667  0.52861133  0.14309433  1
  O  O96  1  0.12541600  0.45950600  0.85680700  1
  O  O97  1  0.81692333  0.83380267  0.92381867  1
  O  O98  1  0.68955100  0.17122900  0.75659000  1
  O  O99  1  0.54049400  0.66591000  0.85680700  1
  O  O100  1  0.48167800  0.31044900  0.75659000  1
  O  O101  1  0.31473733  0.47427467  0.73847667  1
  O  O102  1  0.82877100  0.51832200  0.75659000  1
  O  O103  1  0.67196467  0.14335333  0.14309433  1
  O  O104  1  0.15953733  0.68526267  0.73847667  1
  O  O105  1  0.64995333  0.13761367  0.02436267  1
  O  O106  1  0.48766033  0.35004667  0.02436267  1
  O  O107  1  0.86238633  0.51233967  0.02436267  1
