# generated using pymatgen
data_Ni(SO4)2
_symmetry_space_group_name_H-M   'P 1'
_cell_length_a   8.30616987
_cell_length_b   8.30616987
_cell_length_c   22.60158680
_cell_angle_alpha   90.00000000
_cell_angle_beta   90.00000000
_cell_angle_gamma   120.00000000
_symmetry_Int_Tables_number   1
_chemical_formula_structural   Ni(SO4)2
_chemical_formula_sum   'Ni9 S18 O72'
_cell_volume   1350.42721024
_cell_formula_units_Z   9
loop_
 _symmetry_equiv_pos_site_id
 _symmetry_equiv_pos_as_xyz
  1  'x, y, z'
loop_
 _atom_site_type_symbol
 _atom_site_label
 _atom_site_symmetry_multiplicity
 _atom_site_fract_x
 _atom_site_fract_y
 _atom_site_fract_z
 _atom_site_occupancy
  Ni  Ni0  1  0.66666667  0.33333333  0.18223333  1
  Ni  Ni1  1  0.33333333  0.66666667  0.02263467  1
  Ni  Ni2  1  0.00000000  0.00000000  0.15125600  1
  Ni  Ni3  1  0.33333333  0.66666667  0.51556667  1
  Ni  Ni4  1  0.00000000  0.00000000  0.35596800  1
  Ni  Ni5  1  0.66666667  0.33333333  0.48458933  1
  Ni  Ni6  1  0.00000000  0.00000000  0.84890000  1
  Ni  Ni7  1  0.66666667  0.33333333  0.68930133  1
  Ni  Ni8  1  0.33333333  0.66666667  0.81792267  1
  S  S9  1  0.99466300  0.70470700  0.24852200  1
  S  S10  1  0.71004400  0.00533700  0.24852200  1
  S  S11  1  0.29529300  0.28995600  0.24852200  1
  S  S12  1  0.37365500  0.04071700  0.08483400  1
  S  S13  1  0.95928300  0.33293800  0.08483400  1
  S  S14  1  0.66706200  0.62634500  0.08483400  1
  S  S15  1  0.66132967  0.03804033  0.58185533  1
  S  S16  1  0.37671067  0.33867033  0.58185533  1
  S  S17  1  0.96195967  0.62328933  0.58185533  1
  S  S18  1  0.04032167  0.37405033  0.41816733  1
  S  S19  1  0.62594967  0.66627133  0.41816733  1
  S  S20  1  0.33372867  0.95967833  0.41816733  1
  S  S21  1  0.32799633  0.37137367  0.91518867  1
  S  S22  1  0.04337733  0.67200367  0.91518867  1
  S  S23  1  0.62862633  0.95662267  0.91518867  1
  S  S24  1  0.70698833  0.70738367  0.75150067  1
  S  S25  1  0.29261633  0.99960467  0.75150067  1
  S  S26  1  0.00039533  0.29301167  0.75150067  1
  O  O27  1  0.67452600  0.53639700  0.02908700  1
  O  O28  1  0.46360300  0.13812900  0.02908700  1
  O  O29  1  0.79881300  0.56650000  0.23432300  1
  O  O30  1  0.86187100  0.32547400  0.02908700  1
  O  O31  1  0.08025933  0.85251267  0.20212767  1
  O  O32  1  0.11010000  0.61661400  0.25047400  1
  O  O33  1  0.50651400  0.88990000  0.25047400  1
  O  O34  1  0.76768700  0.20118700  0.23432300  1
  O  O35  1  0.38338600  0.49348600  0.25047400  1
  O  O36  1  0.23021700  0.09129500  0.09885700  1
  O  O37  1  0.51757167  0.10212533  0.13227133  1
  O  O38  1  0.89787467  0.41544633  0.13227133  1
  O  O39  1  0.77225333  0.91974067  0.20212767  1
  O  O40  1  0.14748733  0.22774667  0.20212767  1
  O  O41  1  0.43350000  0.23231300  0.23432300  1
  O  O42  1  0.29062700  0.83782600  0.07889700  1
  O  O43  1  0.90870500  0.13892200  0.09885700  1
  O  O44  1  0.16217400  0.45280100  0.07889700  1
  O  O45  1  0.54719900  0.70937300  0.07889700  1
  O  O46  1  0.58455367  0.48242833  0.13227133  1
  O  O47  1  0.79114633  0.00469367  0.30691167  1
  O  O48  1  0.86107800  0.76978300  0.09885700  1
  O  O49  1  0.21354733  0.20885367  0.30691167  1
  O  O50  1  0.99530633  0.78645267  0.30691167  1
  O  O51  1  0.34119267  0.86973033  0.36242033  1
  O  O52  1  0.13026967  0.47146233  0.36242033  1
  O  O53  1  0.46547967  0.89983333  0.56765633  1
  O  O54  1  0.52853767  0.65880733  0.36242033  1
  O  O55  1  0.74692600  0.18584600  0.53546100  1
  O  O56  1  0.77676667  0.94994733  0.58380733  1
  O  O57  1  0.17318067  0.22323333  0.58380733  1
  O  O58  1  0.43435367  0.53452033  0.56765633  1
  O  O59  1  0.05005267  0.82681933  0.58380733  1
  O  O60  1  0.89688367  0.42462833  0.43219033  1
  O  O61  1  0.18423833  0.43545867  0.46560467  1
  O  O62  1  0.56454133  0.74877967  0.46560467  1
  O  O63  1  0.43892000  0.25307400  0.53546100  1
  O  O64  1  0.81415400  0.56108000  0.53546100  1
  O  O65  1  0.10016667  0.56564633  0.56765633  1
  O  O66  1  0.95729367  0.17115933  0.41223033  1
  O  O67  1  0.57537167  0.47225533  0.43219033  1
  O  O68  1  0.82884067  0.78613433  0.41223033  1
  O  O69  1  0.21386567  0.04270633  0.41223033  1
  O  O70  1  0.25122033  0.81576167  0.46560467  1
  O  O71  1  0.45781300  0.33802700  0.64024500  1
  O  O72  1  0.52774467  0.10311633  0.43219033  1
  O  O73  1  0.88021400  0.54218700  0.64024500  1
  O  O74  1  0.66197300  0.11978600  0.64024500  1
  O  O75  1  0.00785933  0.20306367  0.69575367  1
  O  O76  1  0.79693633  0.80479567  0.69575367  1
  O  O77  1  0.13214633  0.23316667  0.90098967  1
  O  O78  1  0.19520433  0.99214067  0.69575367  1
  O  O79  1  0.41359267  0.51917933  0.86879433  1
  O  O80  1  0.44343333  0.28328067  0.91714067  1
  O  O81  1  0.83984733  0.55656667  0.91714067  1
  O  O82  1  0.10102033  0.86785367  0.90098967  1
  O  O83  1  0.71671933  0.16015267  0.91714067  1
  O  O84  1  0.56355033  0.75796167  0.76552367  1
  O  O85  1  0.85090500  0.76879200  0.79893800  1
  O  O86  1  0.23120800  0.08211300  0.79893800  1
  O  O87  1  0.10558667  0.58640733  0.86879433  1
  O  O88  1  0.48082067  0.89441333  0.86879433  1
  O  O89  1  0.76683333  0.89897967  0.90098967  1
  O  O90  1  0.62396033  0.50449267  0.74556367  1
  O  O91  1  0.24203833  0.80558867  0.76552367  1
  O  O92  1  0.49550733  0.11946767  0.74556367  1
  O  O93  1  0.88053233  0.37603967  0.74556367  1
  O  O94  1  0.91788700  0.14909500  0.79893800  1
  O  O95  1  0.12447967  0.67136033  0.97357833  1
  O  O96  1  0.19441133  0.43644967  0.76552367  1
  O  O97  1  0.54688067  0.87552033  0.97357833  1
  O  O98  1  0.32863967  0.45311933  0.97357833  1
