# generated using pymatgen
data_RbCuO
_symmetry_space_group_name_H-M   'P 1'
_cell_length_a   9.59553000
_cell_length_b   9.59553000
_cell_length_c   5.88757200
_cell_angle_alpha   90.00000000
_cell_angle_beta   90.00000000
_cell_angle_gamma   90.00000000
_symmetry_Int_Tables_number   1
_chemical_formula_structural   RbCuO
_chemical_formula_sum   'Rb8 Cu8 O8'
_cell_volume   542.09345818
_cell_formula_units_Z   8
loop_
 _symmetry_equiv_pos_site_id
 _symmetry_equiv_pos_as_xyz
  1  'x, y, z'
loop_
 _atom_site_type_symbol
 _atom_site_label
 _atom_site_symmetry_multiplicity
 _atom_site_fract_x
 _atom_site_fract_y
 _atom_site_fract_z
 _atom_site_occupancy
  Rb  Rb0  1  0.50000000  0.19581100  0.00000000  1
  Rb  Rb1  1  0.69581100  0.00000000  0.50000000  1
  Rb  Rb2  1  0.50000000  0.80418900  0.00000000  1
  Rb  Rb3  1  0.30418900  0.00000000  0.50000000  1
  Rb  Rb4  1  0.00000000  0.69581100  0.50000000  1
  Rb  Rb5  1  0.19581100  0.50000000  0.00000000  1
  Rb  Rb6  1  0.00000000  0.30418900  0.50000000  1
  Rb  Rb7  1  0.80418900  0.50000000  0.00000000  1
  Cu  Cu8  1  0.86454000  0.13546000  0.00000000  1
  Cu  Cu9  1  0.63546000  0.36454000  0.50000000  1
  Cu  Cu10  1  0.86454000  0.86454000  0.00000000  1
  Cu  Cu11  1  0.63546000  0.63546000  0.50000000  1
  Cu  Cu12  1  0.36454000  0.63546000  0.50000000  1
  Cu  Cu13  1  0.13546000  0.86454000  0.00000000  1
  Cu  Cu14  1  0.36454000  0.36454000  0.50000000  1
  Cu  Cu15  1  0.13546000  0.13546000  0.00000000  1
  O  O16  1  0.27181600  0.00000000  0.00000000  1
  O  O17  1  0.50000000  0.22818400  0.50000000  1
  O  O18  1  0.50000000  0.77181600  0.50000000  1
  O  O19  1  0.72818400  0.00000000  0.00000000  1
  O  O20  1  0.77181600  0.50000000  0.50000000  1
  O  O21  1  0.00000000  0.72818400  0.00000000  1
  O  O22  1  0.00000000  0.27181600  0.00000000  1
  O  O23  1  0.22818400  0.50000000  0.50000000  1
