# generated using pymatgen
data_BaRe2(H2O3)4
_symmetry_space_group_name_H-M   'P 1'
_cell_length_a   7.49871400
_cell_length_b   12.65177300
_cell_length_c   14.39722162
_cell_angle_alpha   90.00000000
_cell_angle_beta   119.85374837
_cell_angle_gamma   90.00000000
_symmetry_Int_Tables_number   1
_chemical_formula_structural   BaRe2(H2O3)4
_chemical_formula_sum   'Ba4 Re8 H32 O48'
_cell_volume   1184.63797430
_cell_formula_units_Z   4
loop_
 _symmetry_equiv_pos_site_id
 _symmetry_equiv_pos_as_xyz
  1  'x, y, z'
loop_
 _atom_site_type_symbol
 _atom_site_label
 _atom_site_symmetry_multiplicity
 _atom_site_fract_x
 _atom_site_fract_y
 _atom_site_fract_z
 _atom_site_occupancy
  Ba  Ba0  1  0.17841800  0.24981400  0.93035800  1
  Ba  Ba1  1  0.17841800  0.25018600  0.43035800  1
  Ba  Ba2  1  0.82158200  0.75018600  0.06964200  1
  Ba  Ba3  1  0.82158200  0.74981400  0.56964200  1
  Re  Re4  1  0.83642900  0.11410600  0.59193700  1
  Re  Re5  1  0.83642900  0.38589400  0.09193700  1
  Re  Re6  1  0.16357100  0.88589400  0.40806300  1
  Re  Re7  1  0.16357100  0.61410600  0.90806300  1
  Re  Re8  1  0.71367400  0.42748100  0.46236200  1
  Re  Re9  1  0.71367400  0.07251900  0.96236200  1
  Re  Re10  1  0.28632600  0.57251900  0.53763800  1
  Re  Re11  1  0.28632600  0.92748100  0.03763800  1
  H  H12  1  0.31107300  0.40637700  0.78165600  1
  H  H13  1  0.31107300  0.09362300  0.28165600  1
  H  H14  1  0.68892700  0.59362300  0.21834400  1
  H  H15  1  0.68892700  0.90637700  0.71834400  1
  H  H16  1  0.10411300  0.35402200  0.69810500  1
  H  H17  1  0.10411300  0.14597800  0.19810500  1
  H  H18  1  0.89588700  0.64597800  0.30189500  1
  H  H19  1  0.89588700  0.85402200  0.80189500  1
  H  H20  1  0.80683600  0.38676900  0.71453500  1
  H  H21  1  0.80683600  0.11323100  0.21453500  1
  H  H22  1  0.19316400  0.61323100  0.28546500  1
  H  H23  1  0.19316400  0.88676900  0.78546500  1
  H  H24  1  0.69159200  0.30167900  0.74223300  1
  H  H25  1  0.69159200  0.19832100  0.24223300  1
  H  H26  1  0.30840800  0.69832100  0.25776700  1
  H  H27  1  0.30840800  0.80167900  0.75776700  1
  H  H28  1  0.36335300  0.22430000  0.19939000  1
  H  H29  1  0.36335300  0.27570000  0.69939000  1
  H  H30  1  0.63664700  0.77570000  0.80061000  1
  H  H31  1  0.63664700  0.72430000  0.30061000  1
  H  H32  1  0.44017900  0.33453800  0.18641900  1
  H  H33  1  0.44017900  0.16546200  0.68641900  1
  H  H34  1  0.55982100  0.66546200  0.81358100  1
  H  H35  1  0.55982100  0.83453800  0.31358100  1
  H  H36  1  0.39002700  0.49176900  0.10354200  1
  H  H37  1  0.39002700  0.00823100  0.60354200  1
  H  H38  1  0.60997300  0.50823100  0.89645800  1
  H  H39  1  0.60997300  0.99176900  0.39645800  1
  H  H40  1  0.36317700  0.54255500  0.19447300  1
  H  H41  1  0.36317700  0.95744500  0.69447300  1
  H  H42  1  0.63682300  0.45744500  0.80552700  1
  H  H43  1  0.63682300  0.04255500  0.30552700  1
  O  O44  1  0.95105300  0.13827700  0.72961000  1
  O  O45  1  0.95105300  0.36172300  0.22961000  1
  O  O46  1  0.04894700  0.86172300  0.27039000  1
  O  O47  1  0.04894700  0.63827700  0.77039000  1
  O  O48  1  0.60909700  0.18745600  0.52332300  1
  O  O49  1  0.60909700  0.31254400  0.02332300  1
  O  O50  1  0.39090300  0.81254400  0.47667700  1
  O  O51  1  0.39090300  0.68745600  0.97667700  1
  O  O52  1  0.77465800  0.97923400  0.56233400  1
  O  O53  1  0.77465800  0.52076600  0.06233400  1
  O  O54  1  0.22534200  0.02076600  0.43766600  1
  O  O55  1  0.22534200  0.47923400  0.93766600  1
  O  O56  1  0.00348800  0.15263500  0.54578900  1
  O  O57  1  0.00348800  0.34736500  0.04578900  1
  O  O58  1  0.99651200  0.84736500  0.45421100  1
  O  O59  1  0.99651200  0.65263500  0.95421100  1
  O  O60  1  0.44989100  0.40216700  0.40997400  1
  O  O61  1  0.44989100  0.09783300  0.90997400  1
  O  O62  1  0.55010900  0.59783300  0.59002600  1
  O  O63  1  0.55010900  0.90216700  0.09002600  1
  O  O64  1  0.80877400  0.34968200  0.39661700  1
  O  O65  1  0.80877400  0.15031800  0.89661700  1
  O  O66  1  0.19122600  0.65031800  0.60338300  1
  O  O67  1  0.19122600  0.84968200  0.10338300  1
  O  O68  1  0.75064600  0.56153800  0.44494200  1
  O  O69  1  0.75064600  0.93846200  0.94494200  1
  O  O70  1  0.24935400  0.43846200  0.55505800  1
  O  O71  1  0.24935400  0.06153800  0.05505800  1
  O  O72  1  0.84854800  0.39797600  0.60001400  1
  O  O73  1  0.84854800  0.10202400  0.10001400  1
  O  O74  1  0.15145200  0.60202400  0.39998600  1
  O  O75  1  0.15145200  0.89797600  0.89998600  1
  O  O76  1  0.23668200  0.33817900  0.76302000  1
  O  O77  1  0.23668200  0.16182100  0.26302000  1
  O  O78  1  0.76331800  0.66182100  0.23698000  1
  O  O79  1  0.76331800  0.83817900  0.73698000  1
  O  O80  1  0.79612700  0.35872200  0.77560800  1
  O  O81  1  0.79612700  0.14127800  0.27560800  1
  O  O82  1  0.20387300  0.64127800  0.22439200  1
  O  O83  1  0.20387300  0.85872200  0.72439200  1
  O  O84  1  0.43287400  0.26035300  0.16454200  1
  O  O85  1  0.43287400  0.23964700  0.66454200  1
  O  O86  1  0.56712600  0.73964700  0.83545800  1
  O  O87  1  0.56712600  0.76035300  0.33545800  1
  O  O88  1  0.45700100  0.49682500  0.18176100  1
  O  O89  1  0.45700100  0.00317500  0.68176100  1
  O  O90  1  0.54299900  0.50317500  0.81823900  1
  O  O91  1  0.54299900  0.99682500  0.31823900  1
