# generated using pymatgen
data_Mn3V2Cr3O16
_symmetry_space_group_name_H-M   'P 1'
_cell_length_a   5.87299459
_cell_length_b   5.87517135
_cell_length_c   8.83445853
_cell_angle_alpha   89.99094517
_cell_angle_beta   90.48432041
_cell_angle_gamma   119.66747171
_symmetry_Int_Tables_number   1
_chemical_formula_structural   Mn3V2Cr3O16
_chemical_formula_sum   'Mn3 V2 Cr3 O16'
_cell_volume   264.85978423
_cell_formula_units_Z   1
loop_
 _symmetry_equiv_pos_site_id
 _symmetry_equiv_pos_as_xyz
  1  'x, y, z'
loop_
 _atom_site_type_symbol
 _atom_site_label
 _atom_site_symmetry_multiplicity
 _atom_site_fract_x
 _atom_site_fract_y
 _atom_site_fract_z
 _atom_site_occupancy
  Mn  Mn0  1  0.34377400  0.17210000  0.20951900  1
  Mn  Mn1  1  0.17166800  0.34016600  0.71302000  1
  Mn  Mn2  1  0.17179500  0.83188100  0.71275600  1
  V  V3  1  0.66736800  0.33503400  0.50212600  1
  V  V4  1  0.33737500  0.66978000  0.00113700  1
  Cr  Cr5  1  0.83613100  0.17697800  0.21965000  1
  Cr  Cr6  1  0.83070400  0.66061600  0.20890800  1
  Cr  Cr7  1  0.66207200  0.83124800  0.71251000  1
  O  O8  1  0.82608400  0.17614700  0.59639200  1
  O  O9  1  0.94881800  0.46769900  0.34358500  1
  O  O10  1  0.66310100  0.32180000  0.10040400  1
  O  O11  1  0.00444000  0.01039200  0.30367200  1
  O  O12  1  0.01064900  0.00551800  0.81225600  1
  O  O13  1  0.82663400  0.65006600  0.59501900  1
  O  O14  1  0.52133600  0.04689600  0.33932500  1
  O  O15  1  0.51874500  0.46888800  0.33912000  1
  O  O16  1  0.64916200  0.82772100  0.09435100  1
  O  O17  1  0.34744200  0.17302300  0.59692600  1
  O  O18  1  0.47009500  0.51825600  0.84129900  1
  O  O19  1  0.46923500  0.95123900  0.84111400  1
  O  O20  1  0.32367700  0.66149500  0.60185800  1
  O  O21  1  0.17641100  0.35287600  0.09712200  1
  O  O22  1  0.04577800  0.52366600  0.83705800  1
  O  O23  1  0.17750300  0.82631600  0.09659500  1
