# generated using pymatgen
data_HoErO3
_symmetry_space_group_name_H-M   'P 1'
_cell_length_a   6.37858198
_cell_length_b   6.37858198
_cell_length_c   12.67486200
_cell_angle_alpha   90.00000000
_cell_angle_beta   90.00000000
_cell_angle_gamma   120.00000000
_symmetry_Int_Tables_number   1
_chemical_formula_structural   HoErO3
_chemical_formula_sum   'Ho6 Er6 O18'
_cell_volume   446.60353277
_cell_formula_units_Z   6
loop_
 _symmetry_equiv_pos_site_id
 _symmetry_equiv_pos_as_xyz
  1  'x, y, z'
loop_
 _atom_site_type_symbol
 _atom_site_label
 _atom_site_symmetry_multiplicity
 _atom_site_fract_x
 _atom_site_fract_y
 _atom_site_fract_z
 _atom_site_occupancy
  Ho  Ho0  1  0.66666667  0.33333333  0.73329900  1
  Ho  Ho1  1  0.00000000  0.00000000  0.76482600  1
  Ho  Ho2  1  0.00000000  0.00000000  0.26482600  1
  Ho  Ho3  1  0.66666667  0.33333333  0.23329900  1
  Ho  Ho4  1  0.33333333  0.66666667  0.23329900  1
  Ho  Ho5  1  0.33333333  0.66666667  0.73329900  1
  Er  Er6  1  0.66720550  0.66720550  0.99654500  1
  Er  Er7  1  0.33279450  0.33279450  0.49654500  1
  Er  Er8  1  0.33279450  0.00000000  0.99654500  1
  Er  Er9  1  0.66720550  0.00000000  0.49654500  1
  Er  Er10  1  0.00000000  0.66720550  0.49654500  1
  Er  Er11  1  0.00000000  0.33279450  0.99654500  1
  O  O12  1  0.69481750  0.69481750  0.17034100  1
  O  O13  1  0.63509650  0.63509650  0.82447500  1
  O  O14  1  0.36490350  0.36490350  0.32447500  1
  O  O15  1  0.30518250  0.30518250  0.67034100  1
  O  O16  1  0.66666667  0.33333333  0.52235800  1
  O  O17  1  0.00000000  0.00000000  0.96108600  1
  O  O18  1  0.00000000  0.00000000  0.46108600  1
  O  O19  1  0.66666667  0.33333333  0.02235800  1
  O  O20  1  0.30518250  0.00000000  0.17034100  1
  O  O21  1  0.36490350  0.00000000  0.82447500  1
  O  O22  1  0.00000000  0.69481750  0.67034100  1
  O  O23  1  0.63509650  0.00000000  0.32447500  1
  O  O24  1  0.69481750  0.00000000  0.67034100  1
  O  O25  1  0.00000000  0.63509650  0.32447500  1
  O  O26  1  0.33333333  0.66666667  0.02235800  1
  O  O27  1  0.33333333  0.66666667  0.52235800  1
  O  O28  1  0.00000000  0.36490350  0.82447500  1
  O  O29  1  0.00000000  0.30518250  0.17034100  1
