# generated using pymatgen
data_H3NCl
_symmetry_space_group_name_H-M   'P 1'
_cell_length_a   8.58380800
_cell_length_b   8.58380800
_cell_length_c   8.58380800
_cell_angle_alpha   90.00000000
_cell_angle_beta   90.00000000
_cell_angle_gamma   90.00000000
_symmetry_Int_Tables_number   1
_chemical_formula_structural   H3NCl
_chemical_formula_sum   'H24 N8 Cl8'
_cell_volume   632.47007906
_cell_formula_units_Z   8
loop_
 _symmetry_equiv_pos_site_id
 _symmetry_equiv_pos_as_xyz
  1  'x, y, z'
loop_
 _atom_site_type_symbol
 _atom_site_label
 _atom_site_symmetry_multiplicity
 _atom_site_fract_x
 _atom_site_fract_y
 _atom_site_fract_z
 _atom_site_occupancy
  H  H0  1  0.16391500  0.17963100  0.72174000  1
  H  H1  1  0.16391500  0.32036900  0.22174000  1
  H  H2  1  0.17963100  0.72174000  0.16391500  1
  H  H3  1  0.17963100  0.77826000  0.66391500  1
  H  H4  1  0.22174000  0.16391500  0.32036900  1
  H  H5  1  0.22174000  0.33608500  0.82036900  1
  H  H6  1  0.27826000  0.66391500  0.32036900  1
  H  H7  1  0.27826000  0.83608500  0.82036900  1
  H  H8  1  0.32036900  0.22174000  0.16391500  1
  H  H9  1  0.32036900  0.27826000  0.66391500  1
  H  H10  1  0.33608500  0.82036900  0.22174000  1
  H  H11  1  0.33608500  0.67963100  0.72174000  1
  H  H12  1  0.66391500  0.17963100  0.77826000  1
  H  H13  1  0.66391500  0.32036900  0.27826000  1
  H  H14  1  0.67963100  0.72174000  0.33608500  1
  H  H15  1  0.67963100  0.77826000  0.83608500  1
  H  H16  1  0.72174000  0.16391500  0.17963100  1
  H  H17  1  0.72174000  0.33608500  0.67963100  1
  H  H18  1  0.77826000  0.66391500  0.17963100  1
  H  H19  1  0.77826000  0.83608500  0.67963100  1
  H  H20  1  0.82036900  0.22174000  0.33608500  1
  H  H21  1  0.82036900  0.27826000  0.83608500  1
  H  H22  1  0.83608500  0.67963100  0.77826000  1
  H  H23  1  0.83608500  0.82036900  0.27826000  1
  N  N24  1  0.24091400  0.75908600  0.25908600  1
  N  N25  1  0.24091400  0.74091400  0.75908600  1
  N  N26  1  0.25908600  0.25908600  0.25908600  1
  N  N27  1  0.25908600  0.24091400  0.75908600  1
  N  N28  1  0.74091400  0.74091400  0.74091400  1
  N  N29  1  0.74091400  0.75908600  0.24091400  1
  N  N30  1  0.75908600  0.24091400  0.74091400  1
  N  N31  1  0.75908600  0.25908600  0.24091400  1
  Cl  Cl32  1  0.07530600  0.92469400  0.42469400  1
  Cl  Cl33  1  0.07530600  0.57530600  0.92469400  1
  Cl  Cl34  1  0.42469400  0.07530600  0.92469400  1
  Cl  Cl35  1  0.42469400  0.42469400  0.42469400  1
  Cl  Cl36  1  0.57530600  0.57530600  0.57530600  1
  Cl  Cl37  1  0.57530600  0.92469400  0.07530600  1
  Cl  Cl38  1  0.92469400  0.07530600  0.57530600  1
  Cl  Cl39  1  0.92469400  0.42469400  0.07530600  1
