# generated using pymatgen
data_Tm2TiO5
_symmetry_space_group_name_H-M   'P 1'
_cell_length_a   4.05340000
_cell_length_b   10.88029800
_cell_length_c   10.42510900
_cell_angle_alpha   90.00000000
_cell_angle_beta   90.00000000
_cell_angle_gamma   90.00000000
_symmetry_Int_Tables_number   1
_chemical_formula_structural   Tm2TiO5
_chemical_formula_sum   'Tm8 Ti4 O20'
_cell_volume   459.77024123
_cell_formula_units_Z   4
loop_
 _symmetry_equiv_pos_site_id
 _symmetry_equiv_pos_as_xyz
  1  'x, y, z'
loop_
 _atom_site_type_symbol
 _atom_site_label
 _atom_site_symmetry_multiplicity
 _atom_site_fract_x
 _atom_site_fract_y
 _atom_site_fract_z
 _atom_site_occupancy
  Tm  Tm0  1  0.50000000  0.35721900  0.43111500  1
  Tm  Tm1  1  0.50000000  0.35721900  0.06888500  1
  Tm  Tm2  1  0.00000000  0.14278100  0.56888500  1
  Tm  Tm3  1  0.00000000  0.14278100  0.93111500  1
  Tm  Tm4  1  0.00000000  0.85721900  0.43111500  1
  Tm  Tm5  1  0.00000000  0.85721900  0.06888500  1
  Tm  Tm6  1  0.50000000  0.64278100  0.56888500  1
  Tm  Tm7  1  0.50000000  0.64278100  0.93111500  1
  Ti  Ti8  1  0.50000000  0.32643800  0.75000000  1
  Ti  Ti9  1  0.00000000  0.17356200  0.25000000  1
  Ti  Ti10  1  0.00000000  0.82643800  0.75000000  1
  Ti  Ti11  1  0.50000000  0.67356200  0.25000000  1
  O  O12  1  0.50000000  0.44889500  0.87688400  1
  O  O13  1  0.50000000  0.44889500  0.62311600  1
  O  O14  1  0.00000000  0.29239000  0.41028300  1
  O  O15  1  0.00000000  0.29239000  0.08971700  1
  O  O16  1  0.50000000  0.22928200  0.25000000  1
  O  O17  1  0.00000000  0.27071800  0.75000000  1
  O  O18  1  0.50000000  0.20761000  0.58971700  1
  O  O19  1  0.50000000  0.20761000  0.91028300  1
  O  O20  1  0.00000000  0.05110500  0.12311600  1
  O  O21  1  0.00000000  0.05110500  0.37688400  1
  O  O22  1  0.00000000  0.94889500  0.87688400  1
  O  O23  1  0.00000000  0.94889500  0.62311600  1
  O  O24  1  0.50000000  0.79239000  0.41028300  1
  O  O25  1  0.50000000  0.79239000  0.08971700  1
  O  O26  1  0.00000000  0.72928200  0.25000000  1
  O  O27  1  0.50000000  0.77071800  0.75000000  1
  O  O28  1  0.00000000  0.70761000  0.58971700  1
  O  O29  1  0.00000000  0.70761000  0.91028300  1
  O  O30  1  0.50000000  0.55110500  0.12311600  1
  O  O31  1  0.50000000  0.55110500  0.37688400  1
