# generated using pymatgen
data_Li4Mn2VNi3(PO4)6
_symmetry_space_group_name_H-M   'P 1'
_cell_length_a   8.47454817
_cell_length_b   8.56207326
_cell_length_c   8.58529284
_cell_angle_alpha   61.96508244
_cell_angle_beta   62.27671191
_cell_angle_gamma   62.25660398
_symmetry_Int_Tables_number   1
_chemical_formula_structural   Li4Mn2VNi3(PO4)6
_chemical_formula_sum   'Li4 Mn2 V1 Ni3 P6 O24'
_cell_volume   461.79791509
_cell_formula_units_Z   1
loop_
 _symmetry_equiv_pos_site_id
 _symmetry_equiv_pos_as_xyz
  1  'x, y, z'
loop_
 _atom_site_type_symbol
 _atom_site_label
 _atom_site_symmetry_multiplicity
 _atom_site_fract_x
 _atom_site_fract_y
 _atom_site_fract_z
 _atom_site_occupancy
  Li  Li0  1  0.25190700  0.64766600  0.84849500  1
  Li  Li1  1  0.71197600  0.35353300  0.14876800  1
  Li  Li2  1  0.35482800  0.14678400  0.71112400  1
  Li  Li3  1  0.14710100  0.71032400  0.35472800  1
  Mn  Mn4  1  0.98370100  0.00217500  0.99755900  1
  Mn  Mn5  1  0.51154000  0.49978900  0.49532300  1
  V  V6  1  0.14740700  0.14810500  0.15238200  1
  Ni  Ni7  1  0.64414200  0.64784100  0.64335300  1
  Ni  Ni8  1  0.85634300  0.85373800  0.85158600  1
  Ni  Ni9  1  0.35478000  0.35022300  0.35322400  1
  P  P10  1  0.95402400  0.54985200  0.25449200  1
  P  P11  1  0.55063700  0.25150700  0.95478400  1
  P  P12  1  0.25194700  0.95386800  0.55143600  1
  P  P13  1  0.75494700  0.04306000  0.45607800  1
  P  P14  1  0.44819100  0.75273500  0.04197200  1
  P  P15  1  0.05055600  0.45693600  0.75598100  1
  O  O16  1  0.52739100  0.31267400  0.10722500  1
  O  O17  1  0.31733200  0.10535100  0.52431500  1
  O  O18  1  0.10607900  0.52064000  0.32257200  1
  O  O19  1  0.95184400  0.73112300  0.08551400  1
  O  O20  1  0.00457600  0.38205300  0.19013100  1
  O  O21  1  0.76209900  0.55735600  0.40571600  1
  O  O22  1  0.73897700  0.09601200  0.92816400  1
  O  O23  1  0.53200600  0.41652000  0.77318500  1
  O  O24  1  0.82136900  0.00999500  0.60625200  1
  O  O25  1  0.40173600  0.75840000  0.56182800  1
  O  O26  1  0.91131400  0.07914900  0.25300200  1
  O  O27  1  0.61108400  0.81123700  0.99296400  1
  O  O28  1  0.38303700  0.18047800  0.01195300  1
  O  O29  1  0.09893200  0.92757000  0.74483400  1
  O  O30  1  0.59740900  0.24037800  0.43171100  1
  O  O31  1  0.18432700  0.00345000  0.38743400  1
  O  O32  1  0.43298900  0.59408100  0.23762300  1
  O  O33  1  0.24871800  0.91152900  0.08223700  1
  O  O34  1  0.24485500  0.42695100  0.59645600  1
  O  O35  1  0.03998200  0.60487300  0.81420300  1
  O  O36  1  0.07646000  0.25561300  0.91459500  1
  O  O37  1  0.88195000  0.49390300  0.71080200  1
  O  O38  1  0.70112700  0.88755200  0.47697700  1
  O  O39  1  0.45038100  0.70197600  0.89202100  1
