# generated using pymatgen
data_SiO2
_symmetry_space_group_name_H-M   'P 1'
_cell_length_a   5.08853800
_cell_length_b   9.13858200
_cell_length_c   8.33443500
_cell_angle_alpha   90.00000000
_cell_angle_beta   90.00000000
_cell_angle_gamma   90.00000000
_symmetry_Int_Tables_number   1
_chemical_formula_structural   SiO2
_chemical_formula_sum   'Si8 O16'
_cell_volume   387.56807784
_cell_formula_units_Z   8
loop_
 _symmetry_equiv_pos_site_id
 _symmetry_equiv_pos_as_xyz
  1  'x, y, z'
loop_
 _atom_site_type_symbol
 _atom_site_label
 _atom_site_symmetry_multiplicity
 _atom_site_fract_x
 _atom_site_fract_y
 _atom_site_fract_z
 _atom_site_occupancy
  Si  Si0  1  0.58056250  0.16712750  0.06252400  1
  Si  Si1  1  0.08056250  0.33287250  0.93747600  1
  Si  Si2  1  0.91943750  0.33287250  0.56252400  1
  Si  Si3  1  0.41943750  0.16712750  0.43747600  1
  Si  Si4  1  0.08056250  0.66712750  0.06252400  1
  Si  Si5  1  0.58056250  0.83287250  0.93747600  1
  Si  Si6  1  0.41943750  0.83287250  0.56252400  1
  Si  Si7  1  0.91943750  0.66712750  0.43747600  1
  O  O8  1  0.36752150  0.25711950  0.95612500  1
  O  O9  1  0.86752150  0.24288050  0.04387500  1
  O  O10  1  0.13247850  0.24288050  0.45612500  1
  O  O11  1  0.63247850  0.25711950  0.54387500  1
  O  O12  1  0.00000000  0.33021050  0.75000000  1
  O  O13  1  0.50000000  0.16978950  0.25000000  1
  O  O14  1  0.40363600  0.00000000  0.50000000  1
  O  O15  1  0.59636400  0.00000000  0.00000000  1
  O  O16  1  0.86752150  0.75711950  0.95612500  1
  O  O17  1  0.36752150  0.74288050  0.04387500  1
  O  O18  1  0.63247850  0.74288050  0.45612500  1
  O  O19  1  0.13247850  0.75711950  0.54387500  1
  O  O20  1  0.50000000  0.83021050  0.75000000  1
  O  O21  1  0.00000000  0.66978950  0.25000000  1
  O  O22  1  0.90363600  0.50000000  0.50000000  1
  O  O23  1  0.09636400  0.50000000  0.00000000  1
