# generated using pymatgen
data_DyNbO4
_symmetry_space_group_name_H-M   'P 1'
_cell_length_a   7.33088600
_cell_length_b   7.33088600
_cell_length_c   6.72584400
_cell_angle_alpha   90.00000000
_cell_angle_beta   90.00000000
_cell_angle_gamma   90.00000000
_symmetry_Int_Tables_number   1
_chemical_formula_structural   DyNbO4
_chemical_formula_sum   'Dy4 Nb4 O16'
_cell_volume   361.45956534
_cell_formula_units_Z   4
loop_
 _symmetry_equiv_pos_site_id
 _symmetry_equiv_pos_as_xyz
  1  'x, y, z'
loop_
 _atom_site_type_symbol
 _atom_site_label
 _atom_site_symmetry_multiplicity
 _atom_site_fract_x
 _atom_site_fract_y
 _atom_site_fract_z
 _atom_site_occupancy
  Dy  Dy0  1  0.50000000  0.00000000  0.75000000  1
  Dy  Dy1  1  0.00000000  0.00000000  0.50000000  1
  Dy  Dy2  1  0.00000000  0.50000000  0.25000000  1
  Dy  Dy3  1  0.50000000  0.50000000  0.00000000  1
  Nb  Nb4  1  0.50000000  0.50000000  0.50000000  1
  Nb  Nb5  1  0.50000000  0.00000000  0.25000000  1
  Nb  Nb6  1  0.00000000  0.00000000  0.00000000  1
  Nb  Nb7  1  0.00000000  0.50000000  0.75000000  1
  O  O8  1  0.69310100  0.50000000  0.31782600  1
  O  O9  1  0.00000000  0.19310100  0.18217400  1
  O  O10  1  0.50000000  0.30689900  0.68217400  1
  O  O11  1  0.80689900  0.00000000  0.81782600  1
  O  O12  1  0.69310100  0.00000000  0.43217400  1
  O  O13  1  0.00000000  0.30689900  0.56782600  1
  O  O14  1  0.00000000  0.69310100  0.56782600  1
  O  O15  1  0.30689900  0.00000000  0.43217400  1
  O  O16  1  0.19310100  0.00000000  0.81782600  1
  O  O17  1  0.50000000  0.69310100  0.68217400  1
  O  O18  1  0.00000000  0.80689900  0.18217400  1
  O  O19  1  0.30689900  0.50000000  0.31782600  1
  O  O20  1  0.19310100  0.50000000  0.93217400  1
  O  O21  1  0.50000000  0.80689900  0.06782600  1
  O  O22  1  0.50000000  0.19310100  0.06782600  1
  O  O23  1  0.80689900  0.50000000  0.93217400  1
