# generated using pymatgen
data_Ti3MnO8
_symmetry_space_group_name_H-M   'P 1'
_cell_length_a   5.93733685
_cell_length_b   5.93733685
_cell_length_c   8.91321400
_cell_angle_alpha   90.00000000
_cell_angle_beta   90.00000000
_cell_angle_gamma   120.00000000
_symmetry_Int_Tables_number   1
_chemical_formula_structural   Ti3MnO8
_chemical_formula_sum   'Ti6 Mn2 O16'
_cell_volume   272.11240681
_cell_formula_units_Z   2
loop_
 _symmetry_equiv_pos_site_id
 _symmetry_equiv_pos_as_xyz
  1  'x, y, z'
loop_
 _atom_site_type_symbol
 _atom_site_label
 _atom_site_symmetry_multiplicity
 _atom_site_fract_x
 _atom_site_fract_y
 _atom_site_fract_z
 _atom_site_occupancy
  Ti  Ti0  1  0.16650450  0.83349550  0.20625100  1
  Ti  Ti1  1  0.16650450  0.33300900  0.20625100  1
  Ti  Ti2  1  0.66699100  0.83349550  0.20625100  1
  Ti  Ti3  1  0.33300900  0.16650450  0.70625100  1
  Ti  Ti4  1  0.83349550  0.66699100  0.70625100  1
  Ti  Ti5  1  0.83349550  0.16650450  0.70625100  1
  Mn  Mn6  1  0.33333333  0.66666667  0.48229800  1
  Mn  Mn7  1  0.66666667  0.33333333  0.98229800  1
  O  O8  1  0.17299100  0.82700900  0.60595100  1
  O  O9  1  0.05311800  0.52655900  0.34344400  1
  O  O10  1  0.33333333  0.66666667  0.09600400  1
  O  O11  1  0.00000000  0.00000000  0.31264000  1
  O  O12  1  0.00000000  0.00000000  0.81264000  1
  O  O13  1  0.17299100  0.34598200  0.60595100  1
  O  O14  1  0.47344100  0.94688200  0.34344400  1
  O  O15  1  0.47344100  0.52655900  0.34344400  1
  O  O16  1  0.34598200  0.17299100  0.10595100  1
  O  O17  1  0.65401800  0.82700900  0.60595100  1
  O  O18  1  0.52655900  0.47344100  0.84344400  1
  O  O19  1  0.52655900  0.05311800  0.84344400  1
  O  O20  1  0.66666667  0.33333333  0.59600400  1
  O  O21  1  0.82700900  0.65401800  0.10595100  1
  O  O22  1  0.94688200  0.47344100  0.84344400  1
  O  O23  1  0.82700900  0.17299100  0.10595100  1
