# generated using pymatgen
data_Li8Sb2S
_symmetry_space_group_name_H-M   'P 1'
_cell_length_a   13.61028600
_cell_length_b   8.10989600
_cell_length_c   9.60016497
_cell_angle_alpha   90.00000000
_cell_angle_beta   124.27779435
_cell_angle_gamma   90.00000000
_symmetry_Int_Tables_number   1
_chemical_formula_structural   Li8Sb2S
_chemical_formula_sum   'Li32 Sb8 S4'
_cell_volume   875.60398098
_cell_formula_units_Z   4
loop_
 _symmetry_equiv_pos_site_id
 _symmetry_equiv_pos_as_xyz
  1  'x, y, z'
loop_
 _atom_site_type_symbol
 _atom_site_label
 _atom_site_symmetry_multiplicity
 _atom_site_fract_x
 _atom_site_fract_y
 _atom_site_fract_z
 _atom_site_occupancy
  Li  Li0  1  0.13101850  0.74201150  0.70175400  1
  Li  Li1  1  0.67366950  0.90345750  0.87276500  1
  Li  Li2  1  0.32633050  0.90345750  0.62723500  1
  Li  Li3  1  0.36898150  0.24201150  0.79824600  1
  Li  Li4  1  0.63038550  0.86007850  0.54814700  1
  Li  Li5  1  0.13038550  0.63992150  0.04814700  1
  Li  Li6  1  0.06751500  0.00380000  0.41916000  1
  Li  Li7  1  0.06751500  0.99620000  0.91916000  1
  Li  Li8  1  0.43248500  0.50380000  0.08084000  1
  Li  Li9  1  0.43248500  0.49620000  0.58084000  1
  Li  Li10  1  0.36961450  0.86007850  0.95185300  1
  Li  Li11  1  0.86961450  0.63992150  0.45185300  1
  Li  Li12  1  0.13101850  0.25798850  0.20175400  1
  Li  Li13  1  0.17366950  0.59654250  0.37276500  1
  Li  Li14  1  0.82633050  0.59654250  0.12723500  1
  Li  Li15  1  0.36898150  0.75798850  0.29824600  1
  Li  Li16  1  0.63101850  0.24201150  0.70175400  1
  Li  Li17  1  0.17366950  0.40345750  0.87276500  1
  Li  Li18  1  0.82633050  0.40345750  0.62723500  1
  Li  Li19  1  0.86898150  0.74201150  0.79824600  1
  Li  Li20  1  0.13038550  0.36007850  0.54814700  1
  Li  Li21  1  0.63038550  0.13992150  0.04814700  1
  Li  Li22  1  0.56751500  0.50380000  0.41916000  1
  Li  Li23  1  0.56751500  0.49620000  0.91916000  1
  Li  Li24  1  0.93248500  0.00380000  0.08084000  1
  Li  Li25  1  0.93248500  0.99620000  0.58084000  1
  Li  Li26  1  0.86961450  0.36007850  0.95185300  1
  Li  Li27  1  0.36961450  0.13992150  0.45185300  1
  Li  Li28  1  0.63101850  0.75798850  0.20175400  1
  Li  Li29  1  0.67366950  0.09654250  0.37276500  1
  Li  Li30  1  0.32633050  0.09654250  0.12723500  1
  Li  Li31  1  0.86898150  0.25798850  0.29824600  1
  Sb  Sb32  1  0.17702700  0.07930500  0.75560700  1
  Sb  Sb33  1  0.32297300  0.57930500  0.74439300  1
  Sb  Sb34  1  0.17702700  0.92069500  0.25560700  1
  Sb  Sb35  1  0.32297300  0.42069500  0.24439300  1
  Sb  Sb36  1  0.67702700  0.57930500  0.75560700  1
  Sb  Sb37  1  0.82297300  0.07930500  0.74439300  1
  Sb  Sb38  1  0.67702700  0.42069500  0.25560700  1
  Sb  Sb39  1  0.82297300  0.92069500  0.24439300  1
  S  S40  1  0.00000000  0.40088400  0.25000000  1
  S  S41  1  0.50000000  0.09911600  0.75000000  1
  S  S42  1  0.50000000  0.90088400  0.25000000  1
  S  S43  1  0.00000000  0.59911600  0.75000000  1
