# generated using pymatgen
data_LiNiPO4
_symmetry_space_group_name_H-M   'P 1'
_cell_length_a   7.94083700
_cell_length_b   5.35387100
_cell_length_c   8.42771528
_cell_angle_alpha   90.00000000
_cell_angle_beta   103.82273151
_cell_angle_gamma   90.00000000
_symmetry_Int_Tables_number   1
_chemical_formula_structural   LiNiPO4
_chemical_formula_sum   'Li4 Ni4 P4 O16'
_cell_volume   347.92125881
_cell_formula_units_Z   4
loop_
 _symmetry_equiv_pos_site_id
 _symmetry_equiv_pos_as_xyz
  1  'x, y, z'
loop_
 _atom_site_type_symbol
 _atom_site_label
 _atom_site_symmetry_multiplicity
 _atom_site_fract_x
 _atom_site_fract_y
 _atom_site_fract_z
 _atom_site_occupancy
  Li  Li0  1  0.96611100  0.15033100  0.07000200  1
  Li  Li1  1  0.50161900  0.65928200  0.28040300  1
  Li  Li2  1  0.96611100  0.84966900  0.57000200  1
  Li  Li3  1  0.50161900  0.34071800  0.78040300  1
  Ni  Ni4  1  0.87517500  0.66136700  0.20404500  1
  Ni  Ni5  1  0.36331800  0.16375700  0.38852600  1
  Ni  Ni6  1  0.87517500  0.33863300  0.70404500  1
  Ni  Ni7  1  0.36331800  0.83624300  0.88852600  1
  P  P8  1  0.24628500  0.33553300  0.01278600  1
  P  P9  1  0.74079700  0.16633300  0.32770200  1
  P  P10  1  0.24628500  0.66446700  0.51278600  1
  P  P11  1  0.74079700  0.83366700  0.82770200  1
  O  O12  1  0.87206300  0.82701700  0.99717400  1
  O  O13  1  0.31363500  0.60580100  0.05088000  1
  O  O14  1  0.82192300  0.30242500  0.20093200  1
  O  O15  1  0.70312400  0.88771000  0.27686500  1
  O  O16  1  0.21614200  0.21230700  0.17060600  1
  O  O17  1  0.57359200  0.30633100  0.33790700  1
  O  O18  1  0.87206300  0.17298300  0.49717400  1
  O  O19  1  0.38110800  0.80442500  0.43879400  1
  O  O20  1  0.06391100  0.68390600  0.39717700  1
  O  O21  1  0.31363500  0.39419900  0.55088000  1
  O  O22  1  0.82192300  0.69757500  0.70093200  1
  O  O23  1  0.70312400  0.11229000  0.77686500  1
  O  O24  1  0.21614200  0.78769300  0.67060600  1
  O  O25  1  0.57359200  0.69366900  0.83790700  1
  O  O26  1  0.38110800  0.19557500  0.93879400  1
  O  O27  1  0.06391100  0.31609400  0.89717700  1
