# generated using pymatgen
data_Ca3W2O9
_symmetry_space_group_name_H-M   'P 1'
_cell_length_a   7.83319000
_cell_length_b   8.68227900
_cell_length_c   15.84669400
_cell_angle_alpha   90.00000000
_cell_angle_beta   90.00000000
_cell_angle_gamma   90.00000000
_symmetry_Int_Tables_number   1
_chemical_formula_structural   Ca3W2O9
_chemical_formula_sum   'Ca12 W8 O36'
_cell_volume   1077.73272462
_cell_formula_units_Z   4
loop_
 _symmetry_equiv_pos_site_id
 _symmetry_equiv_pos_as_xyz
  1  'x, y, z'
loop_
 _atom_site_type_symbol
 _atom_site_label
 _atom_site_symmetry_multiplicity
 _atom_site_fract_x
 _atom_site_fract_y
 _atom_site_fract_z
 _atom_site_occupancy
  Ca  Ca0  1  0.00000000  0.50000000  0.50000000  1
  Ca  Ca1  1  0.75000000  0.71208700  0.36057800  1
  Ca  Ca2  1  0.25000000  0.69130100  0.07846100  1
  Ca  Ca3  1  0.75000000  0.80869900  0.57846100  1
  Ca  Ca4  1  0.25000000  0.78791300  0.86057800  1
  Ca  Ca5  1  0.50000000  0.00000000  0.00000000  1
  Ca  Ca6  1  0.00000000  0.00000000  0.00000000  1
  Ca  Ca7  1  0.75000000  0.21208700  0.13942200  1
  Ca  Ca8  1  0.25000000  0.19130100  0.42153900  1
  Ca  Ca9  1  0.75000000  0.30869900  0.92153900  1
  Ca  Ca10  1  0.25000000  0.28791300  0.63942200  1
  Ca  Ca11  1  0.50000000  0.50000000  0.50000000  1
  W  W12  1  0.75000000  0.65609900  0.10539300  1
  W  W13  1  0.75000000  0.75556900  0.83272300  1
  W  W14  1  0.25000000  0.74443100  0.33272300  1
  W  W15  1  0.25000000  0.84390100  0.60539300  1
  W  W16  1  0.75000000  0.15609900  0.39460700  1
  W  W17  1  0.75000000  0.25556900  0.66727700  1
  W  W18  1  0.25000000  0.24443100  0.16727700  1
  W  W19  1  0.25000000  0.34390100  0.89460700  1
  O  O20  1  0.75000000  0.56732400  0.88186900  1
  O  O21  1  0.25000000  0.54884100  0.92041400  1
  O  O22  1  0.75000000  0.61310800  0.48637300  1
  O  O23  1  0.44168300  0.64098300  0.36718300  1
  O  O24  1  0.05831700  0.64098300  0.36718300  1
  O  O25  1  0.75000000  0.67897900  0.21787000  1
  O  O26  1  0.75000000  0.73188900  0.71983300  1
  O  O27  1  0.55942100  0.74791800  0.06299400  1
  O  O28  1  0.44057900  0.75208200  0.56299400  1
  O  O29  1  0.94057900  0.74791800  0.06299400  1
  O  O30  1  0.05942100  0.75208200  0.56299400  1
  O  O31  1  0.25000000  0.76811100  0.21983300  1
  O  O32  1  0.25000000  0.82102100  0.71787000  1
  O  O33  1  0.55831700  0.85901700  0.86718300  1
  O  O34  1  0.94168300  0.85901700  0.86718300  1
  O  O35  1  0.25000000  0.88689200  0.98637300  1
  O  O36  1  0.75000000  0.95115900  0.42041400  1
  O  O37  1  0.25000000  0.93267600  0.38186900  1
  O  O38  1  0.75000000  0.06732400  0.61813100  1
  O  O39  1  0.25000000  0.04884100  0.57958600  1
  O  O40  1  0.75000000  0.11310800  0.01362700  1
  O  O41  1  0.44168300  0.14098300  0.13281700  1
  O  O42  1  0.05831700  0.14098300  0.13281700  1
  O  O43  1  0.75000000  0.17897900  0.28213000  1
  O  O44  1  0.75000000  0.23188900  0.78016700  1
  O  O45  1  0.55942100  0.24791800  0.43700600  1
  O  O46  1  0.44057900  0.25208200  0.93700600  1
  O  O47  1  0.94057900  0.24791800  0.43700600  1
  O  O48  1  0.05942100  0.25208200  0.93700600  1
  O  O49  1  0.25000000  0.26811100  0.28016700  1
  O  O50  1  0.25000000  0.32102100  0.78213000  1
  O  O51  1  0.55831700  0.35901700  0.63281700  1
  O  O52  1  0.94168300  0.35901700  0.63281700  1
  O  O53  1  0.25000000  0.38689200  0.51362700  1
  O  O54  1  0.75000000  0.45115900  0.07958600  1
  O  O55  1  0.25000000  0.43267600  0.11813100  1
