# generated using pymatgen
data_Li4Mn5Sn3O16
_symmetry_space_group_name_H-M   'P 1'
_cell_length_a   10.53679400
_cell_length_b   6.13056800
_cell_length_c   9.86586282
_cell_angle_alpha   90.00000000
_cell_angle_beta   90.64069431
_cell_angle_gamma   90.00000000
_symmetry_Int_Tables_number   1
_chemical_formula_structural   Li4Mn5Sn3O16
_chemical_formula_sum   'Li8 Mn10 Sn6 O32'
_cell_volume   637.26068010
_cell_formula_units_Z   2
loop_
 _symmetry_equiv_pos_site_id
 _symmetry_equiv_pos_as_xyz
  1  'x, y, z'
loop_
 _atom_site_type_symbol
 _atom_site_label
 _atom_site_symmetry_multiplicity
 _atom_site_fract_x
 _atom_site_fract_y
 _atom_site_fract_z
 _atom_site_occupancy
  Li  Li0  1  0.67751300  0.00000000  0.88384900  1
  Li  Li1  1  0.98171000  0.00000000  0.99323400  1
  Li  Li2  1  0.98528000  0.00000000  0.50090600  1
  Li  Li3  1  0.33962300  0.00000000  0.39438800  1
  Li  Li4  1  0.17751300  0.50000000  0.88384900  1
  Li  Li5  1  0.48171000  0.50000000  0.99323400  1
  Li  Li6  1  0.48528000  0.50000000  0.50090600  1
  Li  Li7  1  0.83962300  0.50000000  0.39438800  1
  Mn  Mn8  1  0.66964800  0.00000000  0.49659800  1
  Mn  Mn9  1  0.83270000  0.00000000  0.21753700  1
  Mn  Mn10  1  0.34092500  0.00000000  0.99009000  1
  Mn  Mn11  1  0.41850650  0.24418550  0.71519600  1
  Mn  Mn12  1  0.41850650  0.75581450  0.71519600  1
  Mn  Mn13  1  0.16964800  0.50000000  0.49659800  1
  Mn  Mn14  1  0.33270000  0.50000000  0.21753700  1
  Mn  Mn15  1  0.84092500  0.50000000  0.99009000  1
  Mn  Mn16  1  0.91850650  0.74418550  0.71519600  1
  Mn  Mn17  1  0.91850650  0.25581450  0.71519600  1
  Sn  Sn18  1  0.58660650  0.24764550  0.21463900  1
  Sn  Sn19  1  0.58660650  0.75235450  0.21463900  1
  Sn  Sn20  1  0.17059600  0.00000000  0.71421300  1
  Sn  Sn21  1  0.08660650  0.74764550  0.21463900  1
  Sn  Sn22  1  0.08660650  0.25235450  0.21463900  1
  Sn  Sn23  1  0.67059600  0.50000000  0.71421300  1
  O  O24  1  0.57258400  0.26095500  0.60178400  1
  O  O25  1  0.51906700  0.00000000  0.33950200  1
  O  O26  1  0.67471800  0.00000000  0.10050000  1
  O  O27  1  0.99386900  0.00000000  0.31848900  1
  O  O28  1  0.99257900  0.00000000  0.81065100  1
  O  O29  1  0.57258400  0.73904500  0.60178400  1
  O  O30  1  0.75053650  0.21968350  0.33442100  1
  O  O31  1  0.75053650  0.78031650  0.33442100  1
  O  O32  1  0.15366700  0.00000000  0.09315200  1
  O  O33  1  0.83591800  0.00000000  0.61118200  1
  O  O34  1  0.26929800  0.22644700  0.83263700  1
  O  O35  1  0.26929800  0.77355300  0.83263700  1
  O  O36  1  0.34388700  0.00000000  0.60643700  1
  O  O37  1  0.41351300  0.26771100  0.10567700  1
  O  O38  1  0.48894300  0.00000000  0.82808800  1
  O  O39  1  0.41351300  0.73228900  0.10567700  1
  O  O40  1  0.07258400  0.76095500  0.60178400  1
  O  O41  1  0.01906700  0.50000000  0.33950200  1
  O  O42  1  0.17471800  0.50000000  0.10050000  1
  O  O43  1  0.49386900  0.50000000  0.31848900  1
  O  O44  1  0.49257900  0.50000000  0.81065100  1
  O  O45  1  0.07258400  0.23904500  0.60178400  1
  O  O46  1  0.25053650  0.71968350  0.33442100  1
  O  O47  1  0.25053650  0.28031650  0.33442100  1
  O  O48  1  0.65366700  0.50000000  0.09315200  1
  O  O49  1  0.33591800  0.50000000  0.61118200  1
  O  O50  1  0.76929800  0.72644700  0.83263700  1
  O  O51  1  0.76929800  0.27355300  0.83263700  1
  O  O52  1  0.84388700  0.50000000  0.60643700  1
  O  O53  1  0.91351300  0.76771100  0.10567700  1
  O  O54  1  0.98894300  0.50000000  0.82808800  1
  O  O55  1  0.91351300  0.23228900  0.10567700  1
