# generated using pymatgen
data_LiCr4(PO4)3
_symmetry_space_group_name_H-M   'P 1'
_cell_length_a   6.86538600
_cell_length_b   6.86538600
_cell_length_c   19.13241800
_cell_angle_alpha   90.00000000
_cell_angle_beta   90.00000000
_cell_angle_gamma   90.00000000
_symmetry_Int_Tables_number   1
_chemical_formula_structural   LiCr4(PO4)3
_chemical_formula_sum   'Li4 Cr16 P12 O48'
_cell_volume   901.77830075
_cell_formula_units_Z   4
loop_
 _symmetry_equiv_pos_site_id
 _symmetry_equiv_pos_as_xyz
  1  'x, y, z'
loop_
 _atom_site_type_symbol
 _atom_site_label
 _atom_site_symmetry_multiplicity
 _atom_site_fract_x
 _atom_site_fract_y
 _atom_site_fract_z
 _atom_site_occupancy
  Li  Li0  1  0.50000000  0.00000000  0.25000000  1
  Li  Li1  1  0.50000000  0.50000000  0.00000000  1
  Li  Li2  1  0.00000000  0.50000000  0.75000000  1
  Li  Li3  1  0.00000000  0.00000000  0.50000000  1
  Cr  Cr4  1  0.24741700  0.25000000  0.12500000  1
  Cr  Cr5  1  0.50000000  0.50000000  0.27529800  1
  Cr  Cr6  1  0.75000000  0.25258300  0.37500000  1
  Cr  Cr7  1  0.75258300  0.75000000  0.12500000  1
  Cr  Cr8  1  0.00000000  0.00000000  0.22470200  1
  Cr  Cr9  1  0.00000000  0.50000000  0.02529800  1
  Cr  Cr10  1  0.00000000  0.50000000  0.47470200  1
  Cr  Cr11  1  0.25000000  0.74741700  0.37500000  1
  Cr  Cr12  1  0.74741700  0.75000000  0.62500000  1
  Cr  Cr13  1  0.00000000  0.00000000  0.77529800  1
  Cr  Cr14  1  0.25000000  0.75258300  0.87500000  1
  Cr  Cr15  1  0.25258300  0.25000000  0.62500000  1
  Cr  Cr16  1  0.50000000  0.50000000  0.72470200  1
  Cr  Cr17  1  0.50000000  0.00000000  0.52529800  1
  Cr  Cr18  1  0.50000000  0.00000000  0.97470200  1
  Cr  Cr19  1  0.75000000  0.24741700  0.87500000  1
  P  P20  1  0.00000000  0.00000000  0.00000000  1
  P  P21  1  0.35586700  0.75000000  0.12500000  1
  P  P22  1  0.64413300  0.25000000  0.12500000  1
  P  P23  1  0.75000000  0.85586700  0.37500000  1
  P  P24  1  0.00000000  0.50000000  0.25000000  1
  P  P25  1  0.25000000  0.14413300  0.37500000  1
  P  P26  1  0.50000000  0.50000000  0.50000000  1
  P  P27  1  0.85586700  0.25000000  0.62500000  1
  P  P28  1  0.14413300  0.75000000  0.62500000  1
  P  P29  1  0.25000000  0.35586700  0.87500000  1
  P  P30  1  0.50000000  0.00000000  0.75000000  1
  P  P31  1  0.75000000  0.64413300  0.87500000  1
  O  O32  1  0.05106700  0.18943200  0.04183200  1
  O  O33  1  0.23691400  0.56988600  0.10496600  1
  O  O34  1  0.23691400  0.93011400  0.14503400  1
  O  O35  1  0.43011400  0.26308600  0.35496600  1
  O  O36  1  0.49841400  0.21730700  0.06144100  1
  O  O37  1  0.49841400  0.28269300  0.18855900  1
  O  O38  1  0.50158600  0.71730700  0.18855900  1
  O  O39  1  0.50158600  0.78269300  0.06144100  1
  O  O40  1  0.56988600  0.73691400  0.35496600  1
  O  O41  1  0.68943200  0.44893300  0.45816800  1
  O  O42  1  0.71730700  0.00158600  0.43855900  1
  O  O43  1  0.76308600  0.06988600  0.14503400  1
  O  O44  1  0.76308600  0.43011400  0.10496600  1
  O  O45  1  0.78269300  0.00158600  0.31144100  1
  O  O46  1  0.81056800  0.44893300  0.29183200  1
  O  O47  1  0.94893300  0.68943200  0.20816800  1
  O  O48  1  0.94893300  0.81056800  0.04183200  1
  O  O49  1  0.93011400  0.73691400  0.39503400  1
  O  O50  1  0.06988600  0.26308600  0.39503400  1
  O  O51  1  0.05106700  0.31056800  0.20816800  1
  O  O52  1  0.18943200  0.55106700  0.29183200  1
  O  O53  1  0.21730700  0.99841400  0.31144100  1
  O  O54  1  0.28269300  0.99841400  0.43855900  1
  O  O55  1  0.31056800  0.55106700  0.45816800  1
  O  O56  1  0.55106700  0.68943200  0.54183200  1
  O  O57  1  0.73691400  0.06988600  0.60496600  1
  O  O58  1  0.73691400  0.43011400  0.64503400  1
  O  O59  1  0.93011400  0.76308600  0.85496600  1
  O  O60  1  0.99841400  0.71730700  0.56144100  1
  O  O61  1  0.99841400  0.78269300  0.68855900  1
  O  O62  1  0.00158600  0.21730700  0.68855900  1
  O  O63  1  0.00158600  0.28269300  0.56144100  1
  O  O64  1  0.06988600  0.23691400  0.85496600  1
  O  O65  1  0.18943200  0.94893300  0.95816800  1
  O  O66  1  0.21730700  0.50158600  0.93855900  1
  O  O67  1  0.26308600  0.56988600  0.64503400  1
  O  O68  1  0.26308600  0.93011400  0.60496600  1
  O  O69  1  0.28269300  0.50158600  0.81144100  1
  O  O70  1  0.31056800  0.94893300  0.79183200  1
  O  O71  1  0.44893300  0.18943200  0.70816800  1
  O  O72  1  0.44893300  0.31056800  0.54183200  1
  O  O73  1  0.43011400  0.23691400  0.89503400  1
  O  O74  1  0.56988600  0.76308600  0.89503400  1
  O  O75  1  0.55106700  0.81056800  0.70816800  1
  O  O76  1  0.68943200  0.05106700  0.79183200  1
  O  O77  1  0.71730700  0.49841400  0.81144100  1
  O  O78  1  0.78269300  0.49841400  0.93855900  1
  O  O79  1  0.81056800  0.05106700  0.95816800  1
