# generated using pymatgen
data_LiCoSiO4
_symmetry_space_group_name_H-M   'P 1'
_cell_length_a   5.54626300
_cell_length_b   5.38404200
_cell_length_c   8.08890929
_cell_angle_alpha   90.00000000
_cell_angle_beta   130.13038350
_cell_angle_gamma   90.00000000
_symmetry_Int_Tables_number   1
_chemical_formula_structural   LiCoSiO4
_chemical_formula_sum   'Li2 Co2 Si2 O8'
_cell_volume   184.68075376
_cell_formula_units_Z   2
loop_
 _symmetry_equiv_pos_site_id
 _symmetry_equiv_pos_as_xyz
  1  'x, y, z'
loop_
 _atom_site_type_symbol
 _atom_site_label
 _atom_site_symmetry_multiplicity
 _atom_site_fract_x
 _atom_site_fract_y
 _atom_site_fract_z
 _atom_site_occupancy
  Li  Li0  1  0.39490300  0.17277900  0.72169600  1
  Li  Li1  1  0.39490300  0.82722100  0.22169600  1
  Co  Co2  1  0.00883700  0.32922800  0.00366200  1
  Co  Co3  1  0.00883700  0.67077200  0.50366200  1
  Si  Si4  1  0.74366500  0.81862200  0.73984700  1
  Si  Si5  1  0.74366500  0.18137800  0.23984700  1
  O  O6  1  0.40878800  0.79793100  0.69439800  1
  O  O7  1  0.70264900  0.28748300  0.03306800  1
  O  O8  1  0.02466300  0.33022100  0.46421900  1
  O  O9  1  0.81185600  0.88105500  0.26479100  1
  O  O10  1  0.40878800  0.20206900  0.19439800  1
  O  O11  1  0.70264900  0.71251700  0.53306800  1
  O  O12  1  0.02466300  0.66977900  0.96421900  1
  O  O13  1  0.81185600  0.11894500  0.76479100  1
