# generated using pymatgen
data_LiZn4Fe13O24
_symmetry_space_group_name_H-M   'P 1'
_cell_length_a   10.49617200
_cell_length_b   6.05787400
_cell_length_c   14.81432128
_cell_angle_alpha   90.00000000
_cell_angle_beta   90.29718338
_cell_angle_gamma   90.00000000
_symmetry_Int_Tables_number   1
_chemical_formula_structural   LiZn4Fe13O24
_chemical_formula_sum   'Li2 Zn8 Fe26 O48'
_cell_volume   941.94835452
_cell_formula_units_Z   2
loop_
 _symmetry_equiv_pos_site_id
 _symmetry_equiv_pos_as_xyz
  1  'x, y, z'
loop_
 _atom_site_type_symbol
 _atom_site_label
 _atom_site_symmetry_multiplicity
 _atom_site_fract_x
 _atom_site_fract_y
 _atom_site_fract_z
 _atom_site_occupancy
  Li  Li0  1  0.50073300  0.50000000  0.75002600  1
  Li  Li1  1  0.00073300  0.00000000  0.75002600  1
  Zn  Zn2  1  0.66817300  0.00000000  0.04121100  1
  Zn  Zn3  1  0.83393200  0.00000000  0.20785900  1
  Zn  Zn4  1  0.66374900  0.50000000  0.54359900  1
  Zn  Zn5  1  0.99962500  0.00000000  0.37577600  1
  Zn  Zn6  1  0.16817300  0.50000000  0.04121100  1
  Zn  Zn7  1  0.33393200  0.50000000  0.20785900  1
  Zn  Zn8  1  0.16374900  0.00000000  0.54359900  1
  Zn  Zn9  1  0.49962500  0.50000000  0.37577600  1
  Fe  Fe10  1  0.50132200  0.50000000  0.99570400  1
  Fe  Fe11  1  0.58379000  0.25057100  0.20816900  1
  Fe  Fe12  1  0.83065700  0.50000000  0.08751200  1
  Fe  Fe13  1  0.83821600  0.50000000  0.33337400  1
  Fe  Fe14  1  0.91670150  0.75479750  0.54227400  1
  Fe  Fe15  1  0.58379000  0.74942900  0.20816900  1
  Fe  Fe16  1  0.75157700  0.74666200  0.87304100  1
  Fe  Fe17  1  0.91670150  0.24520250  0.54227400  1
  Fe  Fe18  1  0.66084900  0.00000000  0.41704800  1
  Fe  Fe19  1  0.99792400  0.50000000  0.87348600  1
  Fe  Fe20  1  0.83373900  0.50000000  0.71235400  1
  Fe  Fe21  1  0.66943700  0.00000000  0.66608500  1
  Fe  Fe22  1  0.75157700  0.25333800  0.87304100  1
  Fe  Fe23  1  0.00132200  0.00000000  0.99570400  1
  Fe  Fe24  1  0.08379000  0.75057100  0.20816900  1
  Fe  Fe25  1  0.33065700  0.00000000  0.08751200  1
  Fe  Fe26  1  0.33821600  0.00000000  0.33337400  1
  Fe  Fe27  1  0.41670150  0.25479750  0.54227400  1
  Fe  Fe28  1  0.08379000  0.24942900  0.20816900  1
  Fe  Fe29  1  0.25157700  0.24666200  0.87304100  1
  Fe  Fe30  1  0.41670150  0.74520250  0.54227400  1
  Fe  Fe31  1  0.16084900  0.50000000  0.41704800  1
  Fe  Fe32  1  0.49792400  0.00000000  0.87348600  1
  Fe  Fe33  1  0.33373900  0.00000000  0.71235400  1
  Fe  Fe34  1  0.16943700  0.50000000  0.66608500  1
  Fe  Fe35  1  0.25157700  0.75333800  0.87304100  1
  O  O36  1  0.92532250  0.24367650  0.28705200  1
  O  O37  1  0.74187800  0.24301200  0.12789100  1
  O  O38  1  0.66175200  0.00000000  0.28419700  1
  O  O39  1  0.50687000  0.00000000  0.12989300  1
  O  O40  1  0.83602500  0.50000000  0.46548400  1
  O  O41  1  0.66225500  0.50000000  0.28529500  1
  O  O42  1  0.50572600  0.50000000  0.12817900  1
  O  O43  1  0.75846600  0.73924600  0.62643100  1
  O  O44  1  0.92532250  0.75632350  0.28705200  1
  O  O45  1  0.90906250  0.72641550  0.79785300  1
  O  O46  1  0.57425050  0.74630950  0.46158400  1
  O  O47  1  0.74187800  0.75698800  0.12789100  1
  O  O48  1  0.57425050  0.25369050  0.46158400  1
  O  O49  1  0.68354800  0.50000000  0.79661700  1
  O  O50  1  0.83487100  0.00000000  0.46346300  1
  O  O51  1  0.99320100  0.00000000  0.61141800  1
  O  O52  1  0.66725500  0.00000000  0.79902900  1
  O  O53  1  0.99075200  0.50000000  0.62398600  1
  O  O54  1  0.82693900  0.00000000  0.95206300  1
  O  O55  1  0.58841600  0.23982000  0.95154800  1
  O  O56  1  0.75846600  0.26075400  0.62643100  1
  O  O57  1  0.58841600  0.76018000  0.95154800  1
  O  O58  1  0.90906250  0.27358450  0.79785300  1
  O  O59  1  0.83352200  0.50000000  0.95466100  1
  O  O60  1  0.42532250  0.74367650  0.28705200  1
  O  O61  1  0.24187800  0.74301200  0.12789100  1
  O  O62  1  0.16175200  0.50000000  0.28419700  1
  O  O63  1  0.00687000  0.50000000  0.12989300  1
  O  O64  1  0.33602500  0.00000000  0.46548400  1
  O  O65  1  0.16225500  0.00000000  0.28529500  1
  O  O66  1  0.00572600  0.00000000  0.12817900  1
  O  O67  1  0.25846600  0.23924600  0.62643100  1
  O  O68  1  0.42532250  0.25632350  0.28705200  1
  O  O69  1  0.40906250  0.22641550  0.79785300  1
  O  O70  1  0.07425050  0.24630950  0.46158400  1
  O  O71  1  0.24187800  0.25698800  0.12789100  1
  O  O72  1  0.07425050  0.75369050  0.46158400  1
  O  O73  1  0.18354800  0.00000000  0.79661700  1
  O  O74  1  0.33487100  0.50000000  0.46346300  1
  O  O75  1  0.49320100  0.50000000  0.61141800  1
  O  O76  1  0.16725500  0.50000000  0.79902900  1
  O  O77  1  0.49075200  0.00000000  0.62398600  1
  O  O78  1  0.32693900  0.50000000  0.95206300  1
  O  O79  1  0.08841600  0.73982000  0.95154800  1
  O  O80  1  0.25846600  0.76075400  0.62643100  1
  O  O81  1  0.08841600  0.26018000  0.95154800  1
  O  O82  1  0.40906250  0.77358450  0.79785300  1
  O  O83  1  0.33352200  0.00000000  0.95466100  1
