# generated using pymatgen
data_Ba2SrI6
_symmetry_space_group_name_H-M   'P 1'
_cell_length_a   15.53120600
_cell_length_b   15.53120600
_cell_length_c   15.53120600
_cell_angle_alpha   90.00000000
_cell_angle_beta   90.00000000
_cell_angle_gamma   90.00000000
_symmetry_Int_Tables_number   1
_chemical_formula_structural   Ba2SrI6
_chemical_formula_sum   'Ba16 Sr8 I48'
_cell_volume   3746.41203726
_cell_formula_units_Z   8
loop_
 _symmetry_equiv_pos_site_id
 _symmetry_equiv_pos_as_xyz
  1  'x, y, z'
loop_
 _atom_site_type_symbol
 _atom_site_label
 _atom_site_symmetry_multiplicity
 _atom_site_fract_x
 _atom_site_fract_y
 _atom_site_fract_z
 _atom_site_occupancy
  Ba  Ba0  1  0.84465100  0.15534900  0.65534900  1
  Ba  Ba1  1  0.84465100  0.34465100  0.15534900  1
  Ba  Ba2  1  0.15534900  0.15534900  0.15534900  1
  Ba  Ba3  1  0.15534900  0.65534900  0.84465100  1
  Ba  Ba4  1  0.15534900  0.84465100  0.34465100  1
  Ba  Ba5  1  0.34465100  0.15534900  0.84465100  1
  Ba  Ba6  1  0.34465100  0.34465100  0.34465100  1
  Ba  Ba7  1  0.65534900  0.84465100  0.15534900  1
  Ba  Ba8  1  0.34465100  0.65534900  0.15534900  1
  Ba  Ba9  1  0.34465100  0.84465100  0.65534900  1
  Ba  Ba10  1  0.65534900  0.65534900  0.65534900  1
  Ba  Ba11  1  0.65534900  0.15534900  0.34465100  1
  Ba  Ba12  1  0.65534900  0.34465100  0.84465100  1
  Ba  Ba13  1  0.84465100  0.65534900  0.34465100  1
  Ba  Ba14  1  0.84465100  0.84465100  0.84465100  1
  Ba  Ba15  1  0.15534900  0.34465100  0.65534900  1
  Sr  Sr16  1  0.00000000  0.00000000  0.00000000  1
  Sr  Sr17  1  0.00000000  0.00000000  0.50000000  1
  Sr  Sr18  1  0.00000000  0.50000000  0.00000000  1
  Sr  Sr19  1  0.50000000  0.00000000  0.00000000  1
  Sr  Sr20  1  0.50000000  0.50000000  0.50000000  1
  Sr  Sr21  1  0.50000000  0.50000000  0.00000000  1
  Sr  Sr22  1  0.50000000  0.00000000  0.50000000  1
  Sr  Sr23  1  0.00000000  0.50000000  0.50000000  1
  I  I24  1  0.84851700  0.43099200  0.36794900  1
  I  I25  1  0.86794900  0.15148300  0.43099200  1
  I  I26  1  0.93099200  0.13205100  0.15148300  1
  I  I27  1  0.06900800  0.36794900  0.15148300  1
  I  I28  1  0.06900800  0.13205100  0.65148300  1
  I  I29  1  0.06900800  0.63205100  0.34851700  1
  I  I30  1  0.13205100  0.15148300  0.93099200  1
  I  I31  1  0.13205100  0.65148300  0.06900800  1
  I  I32  1  0.13205100  0.34851700  0.43099200  1
  I  I33  1  0.15148300  0.06900800  0.36794900  1
  I  I34  1  0.15148300  0.93099200  0.13205100  1
  I  I35  1  0.15148300  0.43099200  0.86794900  1
  I  I36  1  0.34851700  0.06900800  0.63205100  1
  I  I37  1  0.34851700  0.43099200  0.13205100  1
  I  I38  1  0.34851700  0.56900800  0.36794900  1
  I  I39  1  0.36794900  0.84851700  0.43099200  1
  I  I40  1  0.36794900  0.15148300  0.06900800  1
  I  I41  1  0.36794900  0.34851700  0.56900800  1
  I  I42  1  0.43099200  0.86794900  0.15148300  1
  I  I43  1  0.43099200  0.36794900  0.84851700  1
  I  I44  1  0.43099200  0.13205100  0.34851700  1
  I  I45  1  0.56900800  0.36794900  0.34851700  1
  I  I46  1  0.63205100  0.34851700  0.06900800  1
  I  I47  1  0.65148300  0.06900800  0.13205100  1
  I  I48  1  0.34851700  0.93099200  0.86794900  1
  I  I49  1  0.36794900  0.65148300  0.93099200  1
  I  I50  1  0.43099200  0.63205100  0.65148300  1
  I  I51  1  0.56900800  0.86794900  0.65148300  1
  I  I52  1  0.56900800  0.63205100  0.15148300  1
  I  I53  1  0.56900800  0.13205100  0.84851700  1
  I  I54  1  0.63205100  0.65148300  0.43099200  1
  I  I55  1  0.63205100  0.15148300  0.56900800  1
  I  I56  1  0.63205100  0.84851700  0.93099200  1
  I  I57  1  0.65148300  0.56900800  0.86794900  1
  I  I58  1  0.65148300  0.43099200  0.63205100  1
  I  I59  1  0.65148300  0.93099200  0.36794900  1
  I  I60  1  0.84851700  0.56900800  0.13205100  1
  I  I61  1  0.84851700  0.93099200  0.63205100  1
  I  I62  1  0.84851700  0.06900800  0.86794900  1
  I  I63  1  0.86794900  0.34851700  0.93099200  1
  I  I64  1  0.86794900  0.65148300  0.56900800  1
  I  I65  1  0.86794900  0.84851700  0.06900800  1
  I  I66  1  0.93099200  0.36794900  0.65148300  1
  I  I67  1  0.93099200  0.86794900  0.34851700  1
  I  I68  1  0.93099200  0.63205100  0.84851700  1
  I  I69  1  0.06900800  0.86794900  0.84851700  1
  I  I70  1  0.13205100  0.84851700  0.56900800  1
  I  I71  1  0.15148300  0.56900800  0.63205100  1
