# generated using pymatgen
data_LiVSiO4
_symmetry_space_group_name_H-M   'P 1'
_cell_length_a   4.86206000
_cell_length_b   5.55035800
_cell_length_c   9.46680600
_cell_angle_alpha   90.00000000
_cell_angle_beta   90.00000000
_cell_angle_gamma   90.00000000
_symmetry_Int_Tables_number   1
_chemical_formula_structural   LiVSiO4
_chemical_formula_sum   'Li4 V4 Si4 O16'
_cell_volume   255.47287039
_cell_formula_units_Z   4
loop_
 _symmetry_equiv_pos_site_id
 _symmetry_equiv_pos_as_xyz
  1  'x, y, z'
loop_
 _atom_site_type_symbol
 _atom_site_label
 _atom_site_symmetry_multiplicity
 _atom_site_fract_x
 _atom_site_fract_y
 _atom_site_fract_z
 _atom_site_occupancy
  Li  Li0  1  0.44257200  0.75000000  0.11026850  1
  Li  Li1  1  0.05742800  0.75000000  0.61026850  1
  Li  Li2  1  0.94257200  0.25000000  0.38973150  1
  Li  Li3  1  0.55742800  0.25000000  0.88973150  1
  V  V4  1  0.02080800  0.25000000  0.72377250  1
  V  V5  1  0.52080800  0.75000000  0.77622750  1
  V  V6  1  0.47919200  0.25000000  0.22377250  1
  V  V7  1  0.97919200  0.75000000  0.27622750  1
  Si  Si8  1  0.50000000  0.00000000  0.50000000  1
  Si  Si9  1  0.50000000  0.50000000  0.50000000  1
  Si  Si10  1  0.00000000  0.50000000  0.00000000  1
  Si  Si11  1  0.00000000  0.00000000  0.00000000  1
  O  O12  1  0.22497100  0.75000000  0.93275550  1
  O  O13  1  0.27502900  0.75000000  0.43275550  1
  O  O14  1  0.72497100  0.25000000  0.56724450  1
  O  O15  1  0.77502900  0.25000000  0.06724450  1
  O  O16  1  0.31245800  0.25000000  0.42630450  1
  O  O17  1  0.18754200  0.25000000  0.92630450  1
  O  O18  1  0.81245800  0.75000000  0.07369550  1
  O  O19  1  0.68754200  0.75000000  0.57369550  1
  O  O20  1  0.19651400  0.00432250  0.15992750  1
  O  O21  1  0.19651400  0.49567750  0.15992750  1
  O  O22  1  0.30348600  0.00432250  0.65992750  1
  O  O23  1  0.30348600  0.49567750  0.65992750  1
  O  O24  1  0.69651400  0.50432250  0.34007250  1
  O  O25  1  0.69651400  0.99567750  0.34007250  1
  O  O26  1  0.80348600  0.50432250  0.84007250  1
  O  O27  1  0.80348600  0.99567750  0.84007250  1
