# generated using pymatgen
data_Li4Ti3O8
_symmetry_space_group_name_H-M   'P 1'
_cell_length_a   5.90713005
_cell_length_b   5.90713005
_cell_length_c   14.39764316
_cell_angle_alpha   90.00000000
_cell_angle_beta   90.00000000
_cell_angle_gamma   120.00000000
_symmetry_Int_Tables_number   1
_chemical_formula_structural   Li4Ti3O8
_chemical_formula_sum   'Li12 Ti9 O24'
_cell_volume   435.08599225
_cell_formula_units_Z   3
loop_
 _symmetry_equiv_pos_site_id
 _symmetry_equiv_pos_as_xyz
  1  'x, y, z'
loop_
 _atom_site_type_symbol
 _atom_site_label
 _atom_site_symmetry_multiplicity
 _atom_site_fract_x
 _atom_site_fract_y
 _atom_site_fract_z
 _atom_site_occupancy
  Li  Li0  1  0.16666667  0.33333333  0.33333333  1
  Li  Li1  1  0.50000000  0.50000000  0.00000000  1
  Li  Li2  1  0.00000000  0.00000000  0.00000000  1
  Li  Li3  1  0.00000000  0.50000000  0.00000000  1
  Li  Li4  1  0.83333333  0.66666667  0.66666667  1
  Li  Li5  1  0.16666667  0.83333333  0.33333333  1
  Li  Li6  1  0.66666667  0.33333333  0.33333333  1
  Li  Li7  1  0.66666667  0.83333333  0.33333333  1
  Li  Li8  1  0.50000000  0.00000000  0.00000000  1
  Li  Li9  1  0.83333333  0.16666667  0.66666667  1
  Li  Li10  1  0.33333333  0.66666667  0.66666667  1
  Li  Li11  1  0.33333333  0.16666667  0.66666667  1
  Ti  Ti12  1  0.33333333  0.16666667  0.16666667  1
  Ti  Ti13  1  0.83333333  0.16666667  0.16666667  1
  Ti  Ti14  1  0.16666667  0.33333333  0.83333333  1
  Ti  Ti15  1  0.00000000  0.50000000  0.50000000  1
  Ti  Ti16  1  0.50000000  0.50000000  0.50000000  1
  Ti  Ti17  1  0.83333333  0.66666667  0.16666667  1
  Ti  Ti18  1  0.66666667  0.83333333  0.83333333  1
  Ti  Ti19  1  0.16666667  0.83333333  0.83333333  1
  Ti  Ti20  1  0.50000000  0.00000000  0.50000000  1
  O  O21  1  0.33333333  0.66666667  0.91258367  1
  O  O22  1  0.97275000  0.48637500  0.24105800  1
  O  O23  1  0.15304167  0.30608333  0.09227533  1
  O  O24  1  0.15304167  0.84695833  0.09227533  1
  O  O25  1  0.51362500  0.48637500  0.24105800  1
  O  O26  1  0.51362500  0.02725000  0.24105800  1
  O  O27  1  0.69391667  0.84695833  0.09227533  1
  O  O28  1  0.33333333  0.66666667  0.42074967  1
  O  O29  1  0.00000000  0.00000000  0.24591700  1
  O  O30  1  0.63941667  0.81970833  0.57439133  1
  O  O31  1  0.81970833  0.63941667  0.42560867  1
  O  O32  1  0.81970833  0.18029167  0.42560867  1
  O  O33  1  0.18029167  0.81970833  0.57439133  1
  O  O34  1  0.18029167  0.36058333  0.57439133  1
  O  O35  1  0.36058333  0.18029167  0.42560867  1
  O  O36  1  0.00000000  0.00000000  0.75408300  1
  O  O37  1  0.66666667  0.33333333  0.57925033  1
  O  O38  1  0.30608333  0.15304167  0.90772467  1
  O  O39  1  0.48637500  0.97275000  0.75894200  1
  O  O40  1  0.48637500  0.51362500  0.75894200  1
  O  O41  1  0.84695833  0.15304167  0.90772467  1
  O  O42  1  0.84695833  0.69391667  0.90772467  1
  O  O43  1  0.02725000  0.51362500  0.75894200  1
  O  O44  1  0.66666667  0.33333333  0.08741633  1
