# generated using pymatgen
data_Bi3PO7
_symmetry_space_group_name_H-M   'P 1'
_cell_length_a   13.05112600
_cell_length_b   13.63084200
_cell_length_c   12.28981445
_cell_angle_alpha   90.00000000
_cell_angle_beta   108.65655441
_cell_angle_gamma   90.00000000
_symmetry_Int_Tables_number   1
_chemical_formula_structural   Bi3PO7
_chemical_formula_sum   'Bi36 P12 O84'
_cell_volume   2071.44649902
_cell_formula_units_Z   12
loop_
 _symmetry_equiv_pos_site_id
 _symmetry_equiv_pos_as_xyz
  1  'x, y, z'
loop_
 _atom_site_type_symbol
 _atom_site_label
 _atom_site_symmetry_multiplicity
 _atom_site_fract_x
 _atom_site_fract_y
 _atom_site_fract_z
 _atom_site_occupancy
  Bi  Bi0  1  0.31455150  0.16879350  0.94545900  1
  Bi  Bi1  1  0.31455150  0.83120650  0.94545900  1
  Bi  Bi2  1  0.34580450  0.15572350  0.62182000  1
  Bi  Bi3  1  0.34580450  0.84427650  0.62182000  1
  Bi  Bi4  1  0.52042000  0.32981500  0.84000200  1
  Bi  Bi5  1  0.52042000  0.67018500  0.84000200  1
  Bi  Bi6  1  0.35431700  0.84576900  0.28183000  1
  Bi  Bi7  1  0.35431700  0.15423100  0.28183000  1
  Bi  Bi8  1  0.48069750  0.34689350  0.50175900  1
  Bi  Bi9  1  0.48069750  0.65310650  0.50175900  1
  Bi  Bi10  1  0.49047000  0.34462800  0.16290900  1
  Bi  Bi11  1  0.49047000  0.65537200  0.16290900  1
  Bi  Bi12  1  0.67202850  0.82779450  0.69722700  1
  Bi  Bi13  1  0.67202850  0.17220550  0.69722700  1
  Bi  Bi14  1  0.66758500  0.18646500  0.39059800  1
  Bi  Bi15  1  0.66758500  0.81353500  0.39059800  1
  Bi  Bi16  1  0.66380300  0.17245100  0.08470500  1
  Bi  Bi17  1  0.66380300  0.82754900  0.08470500  1
  Bi  Bi18  1  0.81455150  0.66879350  0.94545900  1
  Bi  Bi19  1  0.81455150  0.33120650  0.94545900  1
  Bi  Bi20  1  0.84580450  0.65572350  0.62182000  1
  Bi  Bi21  1  0.84580450  0.34427650  0.62182000  1
  Bi  Bi22  1  0.02042000  0.82981500  0.84000200  1
  Bi  Bi23  1  0.02042000  0.17018500  0.84000200  1
  Bi  Bi24  1  0.85431700  0.34576900  0.28183000  1
  Bi  Bi25  1  0.85431700  0.65423100  0.28183000  1
  Bi  Bi26  1  0.98069750  0.84689350  0.50175900  1
  Bi  Bi27  1  0.98069750  0.15310650  0.50175900  1
  Bi  Bi28  1  0.99047000  0.84462800  0.16290900  1
  Bi  Bi29  1  0.99047000  0.15537200  0.16290900  1
  Bi  Bi30  1  0.17202850  0.32779450  0.69722700  1
  Bi  Bi31  1  0.17202850  0.67220550  0.69722700  1
  Bi  Bi32  1  0.16758500  0.68646500  0.39059800  1
  Bi  Bi33  1  0.16758500  0.31353500  0.39059800  1
  Bi  Bi34  1  0.16380300  0.67245100  0.08470500  1
  Bi  Bi35  1  0.16380300  0.32754900  0.08470500  1
  P  P36  1  0.17018200  0.00000000  0.71272200  1
  P  P37  1  0.16589000  0.00000000  0.07540100  1
  P  P38  1  0.50482200  0.00000000  0.51144600  1
  P  P39  1  0.50062300  0.00000000  0.12787800  1
  P  P40  1  0.83938000  0.00000000  0.65656800  1
  P  P41  1  0.83495100  0.00000000  0.27326600  1
  P  P42  1  0.67018200  0.50000000  0.71272200  1
  P  P43  1  0.66589000  0.50000000  0.07540100  1
  P  P44  1  0.00482200  0.50000000  0.51144600  1
  P  P45  1  0.00062300  0.50000000  0.12787800  1
  P  P46  1  0.33938000  0.50000000  0.65656800  1
  P  P47  1  0.33495100  0.50000000  0.27326600  1
  O  O48  1  0.07574400  0.00000000  0.59814500  1
  O  O49  1  0.16568900  0.90493000  0.78098900  1
  O  O50  1  0.16568900  0.09507000  0.78098900  1
  O  O51  1  0.05287600  0.00000000  0.09396800  1
  O  O52  1  0.28133900  0.00000000  0.69060400  1
  O  O53  1  0.33937350  0.75429650  0.77494900  1
  O  O54  1  0.33937350  0.24570350  0.77494900  1
  O  O55  1  0.17187050  0.09573450  0.00922700  1
  O  O56  1  0.17187050  0.90426550  0.00922700  1
  O  O57  1  0.25799700  0.00000000  0.19203700  1
  O  O58  1  0.33452650  0.23038050  0.44658100  1
  O  O59  1  0.33452650  0.76961950  0.44658100  1
  O  O60  1  0.40198200  0.00000000  0.40275200  1
  O  O61  1  0.47425600  0.00000000  0.62404300  1
  O  O62  1  0.33067450  0.74762050  0.11463500  1
  O  O63  1  0.33067450  0.25237950  0.11463500  1
  O  O64  1  0.50612200  0.24842900  0.66947100  1
  O  O65  1  0.50612200  0.75157100  0.66947100  1
  O  O66  1  0.38956900  0.00000000  0.02926000  1
  O  O67  1  0.66796950  0.77427450  0.89456200  1
  O  O68  1  0.66796950  0.22572550  0.89456200  1
  O  O69  1  0.50091250  0.26856450  0.33778300  1
  O  O70  1  0.50091250  0.73143550  0.33778300  1
  O  O71  1  0.56830600  0.90394600  0.50859800  1
  O  O72  1  0.56830600  0.09605400  0.50859800  1
  O  O73  1  0.51164500  0.90491900  0.20144800  1
  O  O74  1  0.51164500  0.09508100  0.20144800  1
  O  O75  1  0.49733750  0.74574450  0.01021500  1
  O  O76  1  0.49733750  0.25425550  0.01021500  1
  O  O77  1  0.67019000  0.71898900  0.55486100  1
  O  O78  1  0.67019000  0.28101100  0.55486100  1
  O  O79  1  0.74290400  0.00000000  0.70649900  1
  O  O80  1  0.59156600  0.00000000  0.06945400  1
  O  O81  1  0.66675600  0.71877600  0.23071800  1
  O  O82  1  0.66675600  0.28122400  0.23071800  1
  O  O83  1  0.83208050  0.90475950  0.58383900  1
  O  O84  1  0.83208050  0.09524050  0.58383900  1
  O  O85  1  0.77284450  0.90419050  0.28066700  1
  O  O86  1  0.77284450  0.09580950  0.28066700  1
  O  O87  1  0.94627600  0.00000000  0.76057900  1
  O  O88  1  0.85934100  0.00000000  0.15735100  1
  O  O89  1  0.94329300  0.00000000  0.37664700  1
  O  O90  1  0.57574400  0.50000000  0.59814500  1
  O  O91  1  0.66568900  0.40493000  0.78098900  1
  O  O92  1  0.66568900  0.59507000  0.78098900  1
  O  O93  1  0.55287600  0.50000000  0.09396800  1
  O  O94  1  0.78133900  0.50000000  0.69060400  1
  O  O95  1  0.83937350  0.25429650  0.77494900  1
  O  O96  1  0.83937350  0.74570350  0.77494900  1
  O  O97  1  0.67187050  0.59573450  0.00922700  1
  O  O98  1  0.67187050  0.40426550  0.00922700  1
  O  O99  1  0.75799700  0.50000000  0.19203700  1
  O  O100  1  0.83452650  0.73038050  0.44658100  1
  O  O101  1  0.83452650  0.26961950  0.44658100  1
  O  O102  1  0.90198200  0.50000000  0.40275200  1
  O  O103  1  0.97425600  0.50000000  0.62404300  1
  O  O104  1  0.83067450  0.24762050  0.11463500  1
  O  O105  1  0.83067450  0.75237950  0.11463500  1
  O  O106  1  0.00612200  0.74842900  0.66947100  1
  O  O107  1  0.00612200  0.25157100  0.66947100  1
  O  O108  1  0.88956900  0.50000000  0.02926000  1
  O  O109  1  0.16796950  0.27427450  0.89456200  1
  O  O110  1  0.16796950  0.72572550  0.89456200  1
  O  O111  1  0.00091250  0.76856450  0.33778300  1
  O  O112  1  0.00091250  0.23143550  0.33778300  1
  O  O113  1  0.06830600  0.40394600  0.50859800  1
  O  O114  1  0.06830600  0.59605400  0.50859800  1
  O  O115  1  0.01164500  0.40491900  0.20144800  1
  O  O116  1  0.01164500  0.59508100  0.20144800  1
  O  O117  1  0.99733750  0.24574450  0.01021500  1
  O  O118  1  0.99733750  0.75425550  0.01021500  1
  O  O119  1  0.17019000  0.21898900  0.55486100  1
  O  O120  1  0.17019000  0.78101100  0.55486100  1
  O  O121  1  0.24290400  0.50000000  0.70649900  1
  O  O122  1  0.09156600  0.50000000  0.06945400  1
  O  O123  1  0.16675600  0.21877600  0.23071800  1
  O  O124  1  0.16675600  0.78122400  0.23071800  1
  O  O125  1  0.33208050  0.40475950  0.58383900  1
  O  O126  1  0.33208050  0.59524050  0.58383900  1
  O  O127  1  0.27284450  0.40419050  0.28066700  1
  O  O128  1  0.27284450  0.59580950  0.28066700  1
  O  O129  1  0.44627600  0.50000000  0.76057900  1
  O  O130  1  0.35934100  0.50000000  0.15735100  1
  O  O131  1  0.44329300  0.50000000  0.37664700  1
