# generated using pymatgen
data_Li6TeO6
_symmetry_space_group_name_H-M   'P 1'
_cell_length_a   5.81946621
_cell_length_b   5.81946621
_cell_length_c   13.71402164
_cell_angle_alpha   90.00000000
_cell_angle_beta   90.00000000
_cell_angle_gamma   120.00000000
_symmetry_Int_Tables_number   1
_chemical_formula_structural   Li6TeO6
_chemical_formula_sum   'Li18 Te3 O18'
_cell_volume   402.21824190
_cell_formula_units_Z   3
loop_
 _symmetry_equiv_pos_site_id
 _symmetry_equiv_pos_as_xyz
  1  'x, y, z'
loop_
 _atom_site_type_symbol
 _atom_site_label
 _atom_site_symmetry_multiplicity
 _atom_site_fract_x
 _atom_site_fract_y
 _atom_site_fract_z
 _atom_site_occupancy
  Li  Li0  1  0.61345767  0.58872433  0.10353633  1
  Li  Li1  1  0.69140000  0.94679100  0.22979700  1
  Li  Li2  1  0.25539100  0.30860000  0.22979700  1
  Li  Li3  1  0.41127567  0.02473333  0.10353633  1
  Li  Li4  1  0.97526667  0.38654233  0.10353633  1
  Li  Li5  1  0.05320900  0.74460900  0.22979700  1
  Li  Li6  1  0.28012433  0.92205767  0.43686967  1
  Li  Li7  1  0.35806667  0.28012433  0.56313033  1
  Li  Li8  1  0.92205767  0.64193333  0.56313033  1
  Li  Li9  1  0.07794233  0.35806667  0.43686967  1
  Li  Li10  1  0.64193333  0.71987567  0.43686967  1
  Li  Li11  1  0.71987567  0.07794233  0.56313033  1
  Li  Li12  1  0.94679100  0.25539100  0.77020300  1
  Li  Li13  1  0.02473333  0.61345767  0.89646367  1
  Li  Li14  1  0.58872433  0.97526667  0.89646367  1
  Li  Li15  1  0.74460900  0.69140000  0.77020300  1
  Li  Li16  1  0.30860000  0.05320900  0.77020300  1
  Li  Li17  1  0.38654233  0.41127567  0.89646367  1
  Te  Te18  1  0.00000000  0.00000000  0.00000000  1
  Te  Te19  1  0.66666667  0.33333333  0.33333333  1
  Te  Te20  1  0.33333333  0.66666667  0.66666667  1
  O  O21  1  0.64611500  0.59773700  0.25076000  1
  O  O22  1  0.71504467  0.97944833  0.08257333  1
  O  O23  1  0.26440367  0.28495533  0.08257333  1
  O  O24  1  0.40226300  0.04837800  0.25076000  1
  O  O25  1  0.95162200  0.35388500  0.25076000  1
  O  O26  1  0.02055167  0.73559633  0.08257333  1
  O  O27  1  0.31278167  0.93107033  0.58409333  1
  O  O28  1  0.38171133  0.31278167  0.41590667  1
  O  O29  1  0.93107033  0.61828867  0.41590667  1
  O  O30  1  0.06892967  0.38171133  0.58409333  1
  O  O31  1  0.61828867  0.68721833  0.58409333  1
  O  O32  1  0.68721833  0.06892967  0.41590667  1
  O  O33  1  0.97944833  0.26440367  0.91742667  1
  O  O34  1  0.04837800  0.64611500  0.74924000  1
  O  O35  1  0.59773700  0.95162200  0.74924000  1
  O  O36  1  0.73559633  0.71504467  0.91742667  1
  O  O37  1  0.28495533  0.02055167  0.91742667  1
  O  O38  1  0.35388500  0.40226300  0.74924000  1
