# generated using pymatgen
data_BaZnGeO4
_symmetry_space_group_name_H-M   'P 1'
_cell_length_a   9.33656840
_cell_length_b   9.33656840
_cell_length_c   9.21648900
_cell_angle_alpha   90.00000000
_cell_angle_beta   90.00000000
_cell_angle_gamma   120.00000000
_symmetry_Int_Tables_number   1
_chemical_formula_structural   BaZnGeO4
_chemical_formula_sum   'Ba6 Zn6 Ge6 O24'
_cell_volume   695.77802375
_cell_formula_units_Z   6
loop_
 _symmetry_equiv_pos_site_id
 _symmetry_equiv_pos_as_xyz
  1  'x, y, z'
loop_
 _atom_site_type_symbol
 _atom_site_label
 _atom_site_symmetry_multiplicity
 _atom_site_fract_x
 _atom_site_fract_y
 _atom_site_fract_z
 _atom_site_occupancy
  Ba  Ba0  1  0.66666667  0.33333333  0.71967600  1
  Ba  Ba1  1  0.00000000  0.00000000  0.72627500  1
  Ba  Ba2  1  0.00000000  0.00000000  0.22627500  1
  Ba  Ba3  1  0.66666667  0.33333333  0.22095300  1
  Ba  Ba4  1  0.33333333  0.66666667  0.21967600  1
  Ba  Ba5  1  0.33333333  0.66666667  0.72095300  1
  Zn  Zn6  1  0.67133700  0.66721700  0.52134300  1
  Zn  Zn7  1  0.33278300  0.00412000  0.52134300  1
  Zn  Zn8  1  0.99588000  0.32866300  0.52134300  1
  Zn  Zn9  1  0.00412000  0.67133700  0.02134300  1
  Zn  Zn10  1  0.66721700  0.99588000  0.02134300  1
  Zn  Zn11  1  0.32866300  0.33278300  0.02134300  1
  Ge  Ge12  1  0.66778600  0.66340400  0.92713200  1
  Ge  Ge13  1  0.99561800  0.33221400  0.92713200  1
  Ge  Ge14  1  0.33659600  0.00438200  0.92713200  1
  Ge  Ge15  1  0.66340400  0.99561800  0.42713200  1
  Ge  Ge16  1  0.00438200  0.66778600  0.42713200  1
  Ge  Ge17  1  0.33221400  0.33659600  0.42713200  1
  O  O18  1  0.90922000  0.78312600  0.48095500  1
  O  O19  1  0.67307800  0.66116300  0.73553100  1
  O  O20  1  0.76456300  0.55134100  0.98546800  1
  O  O21  1  0.54308000  0.42889900  0.47839000  1
  O  O22  1  0.88581900  0.45692000  0.47839000  1
  O  O23  1  0.21687400  0.12609400  0.48095500  1
  O  O24  1  0.44865900  0.21322200  0.98546800  1
  O  O25  1  0.33883700  0.01191500  0.73553100  1
  O  O26  1  0.98808500  0.32692200  0.73553100  1
  O  O27  1  0.12609400  0.90922000  0.98095500  1
  O  O28  1  0.78677800  0.23543700  0.98546800  1
  O  O29  1  0.57110100  0.11418100  0.47839000  1
  O  O30  1  0.42889900  0.88581900  0.97839000  1
  O  O31  1  0.21322200  0.76456300  0.48546800  1
  O  O32  1  0.87390600  0.09078000  0.48095500  1
  O  O33  1  0.01191500  0.67307800  0.23553100  1
  O  O34  1  0.66116300  0.98808500  0.23553100  1
  O  O35  1  0.55134100  0.78677800  0.48546800  1
  O  O36  1  0.78312600  0.87390600  0.98095500  1
  O  O37  1  0.11418100  0.54308000  0.97839000  1
  O  O38  1  0.45692000  0.57110100  0.97839000  1
  O  O39  1  0.23543700  0.44865900  0.48546800  1
  O  O40  1  0.32692200  0.33883700  0.23553100  1
  O  O41  1  0.09078000  0.21687400  0.98095500  1
