# generated using pymatgen
data_Ni3OF5
_symmetry_space_group_name_H-M   'P 1'
_cell_length_a   9.04225400
_cell_length_b   6.69142800
_cell_length_c   7.27886050
_cell_angle_alpha   90.00000000
_cell_angle_beta   111.62855656
_cell_angle_gamma   90.00000000
_symmetry_Int_Tables_number   1
_chemical_formula_structural   Ni3OF5
_chemical_formula_sum   'Ni12 O4 F20'
_cell_volume   409.40364336
_cell_formula_units_Z   4
loop_
 _symmetry_equiv_pos_site_id
 _symmetry_equiv_pos_as_xyz
  1  'x, y, z'
loop_
 _atom_site_type_symbol
 _atom_site_label
 _atom_site_symmetry_multiplicity
 _atom_site_fract_x
 _atom_site_fract_y
 _atom_site_fract_z
 _atom_site_occupancy
  Ni  Ni0  1  0.00000000  0.50000000  0.00000000  1
  Ni  Ni1  1  0.00000000  0.50000000  0.50000000  1
  Ni  Ni2  1  0.34064800  0.50000000  0.83734600  1
  Ni  Ni3  1  0.33706700  0.50000000  0.32787100  1
  Ni  Ni4  1  0.66293300  0.50000000  0.67212900  1
  Ni  Ni5  1  0.65935200  0.50000000  0.16265400  1
  Ni  Ni6  1  0.50000000  0.00000000  0.00000000  1
  Ni  Ni7  1  0.50000000  0.00000000  0.50000000  1
  Ni  Ni8  1  0.84064800  0.00000000  0.83734600  1
  Ni  Ni9  1  0.83706700  0.00000000  0.32787100  1
  Ni  Ni10  1  0.16293300  0.00000000  0.67212900  1
  Ni  Ni11  1  0.15935200  0.00000000  0.16265400  1
  O  O12  1  0.43335400  0.50000000  0.13055700  1
  O  O13  1  0.56664600  0.50000000  0.86944300  1
  O  O14  1  0.93335400  0.00000000  0.13055700  1
  O  O15  1  0.06664600  0.00000000  0.86944300  1
  F  F16  1  0.83500900  0.69560900  0.83289800  1
  F  F17  1  0.00000000  0.19818800  0.50000000  1
  F  F18  1  0.76498600  0.50000000  0.46547600  1
  F  F19  1  0.10480900  0.50000000  0.79817000  1
  F  F20  1  0.89519100  0.50000000  0.20183000  1
  F  F21  1  0.23501400  0.50000000  0.53452400  1
  F  F22  1  0.16499100  0.30439100  0.16710200  1
  F  F23  1  0.00000000  0.80181200  0.50000000  1
  F  F24  1  0.83500900  0.30439100  0.83289800  1
  F  F25  1  0.16499100  0.69560900  0.16710200  1
  F  F26  1  0.33500900  0.19560900  0.83289800  1
  F  F27  1  0.50000000  0.69818800  0.50000000  1
  F  F28  1  0.26498600  0.00000000  0.46547600  1
  F  F29  1  0.60480900  0.00000000  0.79817000  1
  F  F30  1  0.39519100  0.00000000  0.20183000  1
  F  F31  1  0.73501400  0.00000000  0.53452400  1
  F  F32  1  0.66499100  0.80439100  0.16710200  1
  F  F33  1  0.50000000  0.30181200  0.50000000  1
  F  F34  1  0.33500900  0.80439100  0.83289800  1
  F  F35  1  0.66499100  0.19560900  0.16710200  1
