# generated using pymatgen
data_Ho2(WO4)3
_symmetry_space_group_name_H-M   'P 1'
_cell_length_a   7.73052000
_cell_length_b   11.49481200
_cell_length_c   11.40584058
_cell_angle_alpha   90.00000000
_cell_angle_beta   109.64111160
_cell_angle_gamma   90.00000000
_symmetry_Int_Tables_number   1
_chemical_formula_structural   Ho2(WO4)3
_chemical_formula_sum   'Ho8 W12 O48'
_cell_volume   954.56208110
_cell_formula_units_Z   4
loop_
 _symmetry_equiv_pos_site_id
 _symmetry_equiv_pos_as_xyz
  1  'x, y, z'
loop_
 _atom_site_type_symbol
 _atom_site_label
 _atom_site_symmetry_multiplicity
 _atom_site_fract_x
 _atom_site_fract_y
 _atom_site_fract_z
 _atom_site_occupancy
  Ho  Ho0  1  0.16524100  0.12244400  0.59311500  1
  Ho  Ho1  1  0.16524100  0.87755600  0.09311500  1
  Ho  Ho2  1  0.83475900  0.12244400  0.90688500  1
  Ho  Ho3  1  0.83475900  0.87755600  0.40688500  1
  Ho  Ho4  1  0.66524100  0.62244400  0.59311500  1
  Ho  Ho5  1  0.66524100  0.37755600  0.09311500  1
  Ho  Ho6  1  0.33475900  0.62244400  0.90688500  1
  Ho  Ho7  1  0.33475900  0.37755600  0.40688500  1
  W  W8  1  0.35354150  0.10695850  0.95082200  1
  W  W9  1  0.35354150  0.89304150  0.45082200  1
  W  W10  1  0.50000000  0.36807200  0.75000000  1
  W  W11  1  0.50000000  0.63192800  0.25000000  1
  W  W12  1  0.64645850  0.10695850  0.54917800  1
  W  W13  1  0.64645850  0.89304150  0.04917800  1
  W  W14  1  0.85354150  0.60695850  0.95082200  1
  W  W15  1  0.85354150  0.39304150  0.45082200  1
  W  W16  1  0.00000000  0.86807200  0.75000000  1
  W  W17  1  0.00000000  0.13192800  0.25000000  1
  W  W18  1  0.14645850  0.60695850  0.54917800  1
  W  W19  1  0.14645850  0.39304150  0.04917800  1
  O  O20  1  0.27345600  0.17780700  0.79826900  1
  O  O21  1  0.16870650  0.95972650  0.71941800  1
  O  O22  1  0.63095800  0.28974200  0.89412000  1
  O  O23  1  0.45157900  0.78126600  0.56177000  1
  O  O24  1  0.13110800  0.04982600  0.96212100  1
  O  O25  1  0.43457850  0.03796350  0.57596300  1
  O  O26  1  0.27345600  0.82219300  0.29826900  1
  O  O27  1  0.56542150  0.03796350  0.92403700  1
  O  O28  1  0.86889200  0.04982600  0.53787900  1
  O  O29  1  0.54842100  0.78126600  0.93823000  1
  O  O30  1  0.36904200  0.28974200  0.60588000  1
  O  O31  1  0.16870650  0.04027350  0.21941800  1
  O  O32  1  0.83129350  0.95972650  0.78058200  1
  O  O33  1  0.63095800  0.71025800  0.39412000  1
  O  O34  1  0.45157900  0.21873400  0.06177000  1
  O  O35  1  0.13110800  0.95017400  0.46212100  1
  O  O36  1  0.43457850  0.96203650  0.07596300  1
  O  O37  1  0.72654400  0.17780700  0.70173100  1
  O  O38  1  0.56542150  0.96203650  0.42403700  1
  O  O39  1  0.86889200  0.95017400  0.03787900  1
  O  O40  1  0.54842100  0.21873400  0.43823000  1
  O  O41  1  0.36904200  0.71025800  0.10588000  1
  O  O42  1  0.83129350  0.04027350  0.28058200  1
  O  O43  1  0.72654400  0.82219300  0.20173100  1
  O  O44  1  0.77345600  0.67780700  0.79826900  1
  O  O45  1  0.66870650  0.45972650  0.71941800  1
  O  O46  1  0.13095800  0.78974200  0.89412000  1
  O  O47  1  0.95157900  0.28126600  0.56177000  1
  O  O48  1  0.63110800  0.54982600  0.96212100  1
  O  O49  1  0.93457850  0.53796350  0.57596300  1
  O  O50  1  0.77345600  0.32219300  0.29826900  1
  O  O51  1  0.06542150  0.53796350  0.92403700  1
  O  O52  1  0.36889200  0.54982600  0.53787900  1
  O  O53  1  0.04842100  0.28126600  0.93823000  1
  O  O54  1  0.86904200  0.78974200  0.60588000  1
  O  O55  1  0.66870650  0.54027350  0.21941800  1
  O  O56  1  0.33129350  0.45972650  0.78058200  1
  O  O57  1  0.13095800  0.21025800  0.39412000  1
  O  O58  1  0.95157900  0.71873400  0.06177000  1
  O  O59  1  0.63110800  0.45017400  0.46212100  1
  O  O60  1  0.93457850  0.46203650  0.07596300  1
  O  O61  1  0.22654400  0.67780700  0.70173100  1
  O  O62  1  0.06542150  0.46203650  0.42403700  1
  O  O63  1  0.36889200  0.45017400  0.03787900  1
  O  O64  1  0.04842100  0.71873400  0.43823000  1
  O  O65  1  0.86904200  0.21025800  0.10588000  1
  O  O66  1  0.33129350  0.54027350  0.28058200  1
  O  O67  1  0.22654400  0.32219300  0.20173100  1
