# generated using pymatgen
data_CsClO3
_symmetry_space_group_name_H-M   'P 1'
_cell_length_a   4.72617300
_cell_length_b   6.57345200
_cell_length_c   6.81280600
_cell_angle_alpha   90.00000000
_cell_angle_beta   90.00000000
_cell_angle_gamma   90.00000000
_symmetry_Int_Tables_number   1
_chemical_formula_structural   CsClO3
_chemical_formula_sum   'Cs2 Cl2 O6'
_cell_volume   211.65529272
_cell_formula_units_Z   2
loop_
 _symmetry_equiv_pos_site_id
 _symmetry_equiv_pos_as_xyz
  1  'x, y, z'
loop_
 _atom_site_type_symbol
 _atom_site_label
 _atom_site_symmetry_multiplicity
 _atom_site_fract_x
 _atom_site_fract_y
 _atom_site_fract_z
 _atom_site_occupancy
  Cs  Cs0  1  0.00269600  0.00000000  0.51146100  1
  Cs  Cs1  1  0.99730400  0.50000000  0.01146100  1
  Cl  Cl2  1  0.46927100  0.00000000  0.97002400  1
  Cl  Cl3  1  0.53072900  0.50000000  0.47002400  1
  O  O4  1  0.52035600  0.81571600  0.84263300  1
  O  O5  1  0.52035600  0.18428400  0.84263300  1
  O  O6  1  0.84328800  0.50000000  0.52024600  1
  O  O7  1  0.47964400  0.68428400  0.34263300  1
  O  O8  1  0.47964400  0.31571600  0.34263300  1
  O  O9  1  0.15671200  0.00000000  0.02024600  1
