# generated using pymatgen
data_Li2Fe(Si2O5)3
_symmetry_space_group_name_H-M   'P 1'
_cell_length_a   6.99776200
_cell_length_b   12.70088200
_cell_length_c   7.53827421
_cell_angle_alpha   90.00000000
_cell_angle_beta   111.90855919
_cell_angle_gamma   90.00000000
_symmetry_Int_Tables_number   1
_chemical_formula_structural   Li2Fe(Si2O5)3
_chemical_formula_sum   'Li4 Fe2 Si12 O30'
_cell_volume   621.59889211
_cell_formula_units_Z   2
loop_
 _symmetry_equiv_pos_site_id
 _symmetry_equiv_pos_as_xyz
  1  'x, y, z'
loop_
 _atom_site_type_symbol
 _atom_site_label
 _atom_site_symmetry_multiplicity
 _atom_site_fract_x
 _atom_site_fract_y
 _atom_site_fract_z
 _atom_site_occupancy
  Li  Li0  1  0.14688700  0.33864000  0.45810200  1
  Li  Li1  1  0.17265700  0.17006400  0.16265800  1
  Li  Li2  1  0.82734300  0.67006400  0.83734200  1
  Li  Li3  1  0.85311300  0.83864000  0.54189800  1
  Fe  Fe4  1  0.26292600  0.74992200  0.75187100  1
  Fe  Fe5  1  0.73707400  0.24992200  0.24812900  1
  Si  Si6  1  0.03480900  0.66704800  0.31276800  1
  Si  Si7  1  0.00164400  0.84581600  0.02490900  1
  Si  Si8  1  0.30390100  0.51190200  0.91055600  1
  Si  Si9  1  0.30733200  0.01009700  0.70591200  1
  Si  Si10  1  0.53750500  0.34147500  0.80776500  1
  Si  Si11  1  0.49372500  0.66312900  0.47597600  1
  Si  Si12  1  0.50627500  0.16312900  0.52402400  1
  Si  Si13  1  0.46249500  0.84147500  0.19223500  1
  Si  Si14  1  0.69266800  0.51009700  0.29408800  1
  Si  Si15  1  0.69609900  0.01190200  0.08944400  1
  Si  Si16  1  0.99835600  0.34581600  0.97509100  1
  Si  Si17  1  0.96519100  0.16704800  0.68723200  1
  O  O18  1  0.98237800  0.80801300  0.81404400  1
  O  O19  1  0.06868300  0.23856200  0.88429100  1
  O  O20  1  0.14781200  0.44460100  0.98172300  1
  O  O21  1  0.04166400  0.73634700  0.49510800  1
  O  O22  1  0.09233100  0.05690900  0.71246400  1
  O  O23  1  0.17481500  0.61590000  0.80956900  1
  O  O24  1  0.29153300  0.88560700  0.66201200  1
  O  O25  1  0.26398900  0.63224200  0.32718900  1
  O  O26  1  0.44786600  0.77588800  0.00378000  1
  O  O27  1  0.36634100  0.43763000  0.75906400  1
  O  O28  1  0.23316700  0.88356100  0.16791800  1
  O  O29  1  0.48602400  0.04021600  0.91046800  1
  O  O30  1  0.35004500  0.06810800  0.52908800  1
  O  O31  1  0.51255500  0.68440800  0.69238700  1
  O  O32  1  0.43266400  0.27034800  0.61093700  1
  O  O33  1  0.56733600  0.77034800  0.38906300  1
  O  O34  1  0.48744500  0.18440800  0.30761300  1
  O  O35  1  0.64995500  0.56810800  0.47091200  1
  O  O36  1  0.51397600  0.54021600  0.08953200  1
  O  O37  1  0.76683300  0.38356100  0.83208200  1
  O  O38  1  0.63365900  0.93763000  0.24093600  1
  O  O39  1  0.55213400  0.27588800  0.99622000  1
  O  O40  1  0.73601100  0.13224200  0.67281100  1
  O  O41  1  0.70846700  0.38560700  0.33798800  1
  O  O42  1  0.82518500  0.11590000  0.19043100  1
  O  O43  1  0.90766900  0.55690900  0.28753600  1
  O  O44  1  0.95833600  0.23634700  0.50489200  1
  O  O45  1  0.85218800  0.94460100  0.01827700  1
  O  O46  1  0.93131700  0.73856200  0.11570900  1
  O  O47  1  0.01762200  0.30801300  0.18595600  1
