# generated using pymatgen
data_Li2CrF4
_symmetry_space_group_name_H-M   'P 1'
_cell_length_a   8.85254700
_cell_length_b   4.08069500
_cell_length_c   8.94242350
_cell_angle_alpha   90.00000000
_cell_angle_beta   92.30070866
_cell_angle_gamma   90.00000000
_symmetry_Int_Tables_number   1
_chemical_formula_structural   Li2CrF4
_chemical_formula_sum   'Li8 Cr4 F16'
_cell_volume   322.78056992
_cell_formula_units_Z   4
loop_
 _symmetry_equiv_pos_site_id
 _symmetry_equiv_pos_as_xyz
  1  'x, y, z'
loop_
 _atom_site_type_symbol
 _atom_site_label
 _atom_site_symmetry_multiplicity
 _atom_site_fract_x
 _atom_site_fract_y
 _atom_site_fract_z
 _atom_site_occupancy
  Li  Li0  1  0.92540400  0.00000000  0.37201400  1
  Li  Li1  1  0.89490800  0.50000000  0.57811900  1
  Li  Li2  1  0.61705500  0.00000000  0.13250800  1
  Li  Li3  1  0.64027800  0.50000000  0.88417500  1
  Li  Li4  1  0.38056600  0.50000000  0.09670800  1
  Li  Li5  1  0.38462200  0.00000000  0.87571600  1
  Li  Li6  1  0.34258600  0.50000000  0.63309000  1
  Li  Li7  1  0.11805600  0.00000000  0.61716800  1
  Cr  Cr8  1  0.88250200  0.50000000  0.13837400  1
  Cr  Cr9  1  0.62813500  0.00000000  0.62021100  1
  Cr  Cr10  1  0.35112200  0.00000000  0.36480200  1
  Cr  Cr11  1  0.11575000  0.50000000  0.87950400  1
  F  F12  1  0.86347800  0.50000000  0.91318800  1
  F  F13  1  0.88827800  0.50000000  0.36380900  1
  F  F14  1  0.84759000  0.00000000  0.15897600  1
  F  F15  1  0.88916200  0.00000000  0.58674800  1
  F  F16  1  0.61394200  0.50000000  0.09995700  1
  F  F17  1  0.64252900  0.50000000  0.63953400  1
  F  F18  1  0.61342900  0.00000000  0.84749300  1
  F  F19  1  0.58396400  0.00000000  0.39454400  1
  F  F20  1  0.35334400  0.00000000  0.64056600  1
  F  F21  1  0.40074100  0.00000000  0.10427000  1
  F  F22  1  0.36041600  0.50000000  0.39434500  1
  F  F23  1  0.38657000  0.50000000  0.86182300  1
  F  F24  1  0.13230800  0.00000000  0.40116600  1
  F  F25  1  0.14222400  0.00000000  0.85712000  1
  F  F26  1  0.11151000  0.50000000  0.65093900  1
  F  F27  1  0.14897900  0.50000000  0.09956100  1
