# generated using pymatgen
data_YBiO3
_symmetry_space_group_name_H-M   'P 1'
_cell_length_a   6.03303381
_cell_length_b   6.03303381
_cell_length_c   15.21037500
_cell_angle_alpha   90.00000000
_cell_angle_beta   90.00000000
_cell_angle_gamma   120.00000000
_symmetry_Int_Tables_number   1
_chemical_formula_structural   YBiO3
_chemical_formula_sum   'Y6 Bi6 O18'
_cell_volume   479.44861814
_cell_formula_units_Z   6
loop_
 _symmetry_equiv_pos_site_id
 _symmetry_equiv_pos_as_xyz
  1  'x, y, z'
loop_
 _atom_site_type_symbol
 _atom_site_label
 _atom_site_symmetry_multiplicity
 _atom_site_fract_x
 _atom_site_fract_y
 _atom_site_fract_z
 _atom_site_occupancy
  Y  Y0  1  0.00000000  0.00000000  0.14079500  1
  Y  Y1  1  0.66666667  0.33333333  0.19253833  1
  Y  Y2  1  0.66666667  0.33333333  0.47412833  1
  Y  Y3  1  0.33333333  0.66666667  0.52587167  1
  Y  Y4  1  0.33333333  0.66666667  0.80746167  1
  Y  Y5  1  0.00000000  0.00000000  0.85920500  1
  Bi  Bi6  1  0.33333333  0.66666667  0.02295867  1
  Bi  Bi7  1  0.33333333  0.66666667  0.31037467  1
  Bi  Bi8  1  0.00000000  0.00000000  0.35629200  1
  Bi  Bi9  1  0.00000000  0.00000000  0.64370800  1
  Bi  Bi10  1  0.66666667  0.33333333  0.68962533  1
  Bi  Bi11  1  0.66666667  0.33333333  0.97704133  1
  O  O12  1  0.92838367  0.30258733  0.08238133  1
  O  O13  1  0.29246300  0.26171700  0.25095200  1
  O  O14  1  0.96925400  0.70753700  0.25095200  1
  O  O15  1  0.69741267  0.62579633  0.08238133  1
  O  O16  1  0.37420367  0.07161633  0.08238133  1
  O  O17  1  0.73828300  0.03074600  0.25095200  1
  O  O18  1  0.59505033  0.63592067  0.41571467  1
  O  O19  1  0.95912967  0.59505033  0.58428533  1
  O  O20  1  0.63592067  0.04087033  0.58428533  1
  O  O21  1  0.36407933  0.95912967  0.41571467  1
  O  O22  1  0.04087033  0.40494967  0.41571467  1
  O  O23  1  0.40494967  0.36407933  0.58428533  1
  O  O24  1  0.26171700  0.96925400  0.74904800  1
  O  O25  1  0.62579633  0.92838367  0.91761867  1
  O  O26  1  0.30258733  0.37420367  0.91761867  1
  O  O27  1  0.03074600  0.29246300  0.74904800  1
  O  O28  1  0.70753700  0.73828300  0.74904800  1
  O  O29  1  0.07161633  0.69741267  0.91761867  1
