# generated using pymatgen
data_LiMg(Fe5O8)2
_symmetry_space_group_name_H-M   'P 1'
_cell_length_a   5.97584612
_cell_length_b   5.97584612
_cell_length_c   28.77097875
_cell_angle_alpha   90.00000000
_cell_angle_beta   90.00000000
_cell_angle_gamma   120.00000000
_symmetry_Int_Tables_number   1
_chemical_formula_structural   LiMg(Fe5O8)2
_chemical_formula_sum   'Li3 Mg3 Fe30 O48'
_cell_volume   889.78295016
_cell_formula_units_Z   3
loop_
 _symmetry_equiv_pos_site_id
 _symmetry_equiv_pos_as_xyz
  1  'x, y, z'
loop_
 _atom_site_type_symbol
 _atom_site_label
 _atom_site_symmetry_multiplicity
 _atom_site_fract_x
 _atom_site_fract_y
 _atom_site_fract_z
 _atom_site_occupancy
  Li  Li0  1  0.33333333  0.66666667  0.16325367  1
  Li  Li1  1  0.00000000  0.00000000  0.49658700  1
  Li  Li2  1  0.66666667  0.33333333  0.82992033  1
  Mg  Mg3  1  0.00000000  0.00000000  0.31002700  1
  Mg  Mg4  1  0.66666667  0.33333333  0.64336033  1
  Mg  Mg5  1  0.33333333  0.66666667  0.97669367  1
  Fe  Fe6  1  0.66666667  0.33333333  0.33164333  1
  Fe  Fe7  1  0.00483667  0.50241833  0.24696833  1
  Fe  Fe8  1  0.49758167  0.50241833  0.24696833  1
  Fe  Fe9  1  0.66666667  0.33333333  0.13879933  1
  Fe  Fe10  1  0.49758167  0.99516333  0.24696833  1
  Fe  Fe11  1  0.00000000  0.00000000  0.18565500  1
  Fe  Fe12  1  0.16707867  0.83292133  0.08104833  1
  Fe  Fe13  1  0.66584267  0.83292133  0.08104833  1
  Fe  Fe14  1  0.16707867  0.33415733  0.08104833  1
  Fe  Fe15  1  0.66666667  0.33333333  0.02204633  1
  Fe  Fe16  1  0.33333333  0.66666667  0.66497667  1
  Fe  Fe17  1  0.67150333  0.83575167  0.58030167  1
  Fe  Fe18  1  0.16424833  0.83575167  0.58030167  1
  Fe  Fe19  1  0.33333333  0.66666667  0.47213267  1
  Fe  Fe20  1  0.16424833  0.32849667  0.58030167  1
  Fe  Fe21  1  0.66666667  0.33333333  0.51898833  1
  Fe  Fe22  1  0.83374533  0.16625467  0.41438167  1
  Fe  Fe23  1  0.33250933  0.16625467  0.41438167  1
  Fe  Fe24  1  0.83374533  0.66749067  0.41438167  1
  Fe  Fe25  1  0.33333333  0.66666667  0.35537967  1
  Fe  Fe26  1  0.00000000  0.00000000  0.99831000  1
  Fe  Fe27  1  0.33817000  0.16908500  0.91363500  1
  Fe  Fe28  1  0.83091500  0.16908500  0.91363500  1
  Fe  Fe29  1  0.00000000  0.00000000  0.80546600  1
  Fe  Fe30  1  0.83091500  0.66183000  0.91363500  1
  Fe  Fe31  1  0.33333333  0.66666667  0.85232167  1
  Fe  Fe32  1  0.50041200  0.49958800  0.74771500  1
  Fe  Fe33  1  0.99917600  0.49958800  0.74771500  1
  Fe  Fe34  1  0.50041200  0.00082400  0.74771500  1
  Fe  Fe35  1  0.00000000  0.00000000  0.68871300  1
  O  O36  1  0.37021667  0.18510833  0.28888633  1
  O  O37  1  0.81489167  0.18510833  0.28888633  1
  O  O38  1  0.66666667  0.33333333  0.20713433  1
  O  O39  1  0.81489167  0.62978333  0.28888633  1
  O  O40  1  0.17156800  0.34313600  0.20902500  1
  O  O41  1  0.33333333  0.66666667  0.28380467  1
  O  O42  1  0.17156800  0.82843200  0.20902500  1
  O  O43  1  0.65686400  0.82843200  0.20902500  1
  O  O44  1  0.01650467  0.50825233  0.11665933  1
  O  O45  1  0.49174767  0.50825233  0.11665933  1
  O  O46  1  0.33333333  0.66666667  0.04615967  1
  O  O47  1  0.49174767  0.98349533  0.11665933  1
  O  O48  1  0.00000000  0.00000000  0.11749700  1
  O  O49  1  0.85400300  0.70800600  0.04211500  1
  O  O50  1  0.29199400  0.14599700  0.04211500  1
  O  O51  1  0.85400300  0.14599700  0.04211500  1
  O  O52  1  0.03688333  0.51844167  0.62221967  1
  O  O53  1  0.48155833  0.51844167  0.62221967  1
  O  O54  1  0.33333333  0.66666667  0.54046767  1
  O  O55  1  0.48155833  0.96311667  0.62221967  1
  O  O56  1  0.83823467  0.67646933  0.54235833  1
  O  O57  1  0.00000000  0.00000000  0.61713800  1
  O  O58  1  0.83823467  0.16176533  0.54235833  1
  O  O59  1  0.32353067  0.16176533  0.54235833  1
  O  O60  1  0.68317133  0.84158567  0.44999267  1
  O  O61  1  0.15841433  0.84158567  0.44999267  1
  O  O62  1  0.00000000  0.00000000  0.37949300  1
  O  O63  1  0.15841433  0.31682867  0.44999267  1
  O  O64  1  0.66666667  0.33333333  0.45083033  1
  O  O65  1  0.52066967  0.04133933  0.37544833  1
  O  O66  1  0.95866067  0.47933033  0.37544833  1
  O  O67  1  0.52066967  0.47933033  0.37544833  1
  O  O68  1  0.70355000  0.85177500  0.95555300  1
  O  O69  1  0.14822500  0.85177500  0.95555300  1
  O  O70  1  0.00000000  0.00000000  0.87380100  1
  O  O71  1  0.14822500  0.29645000  0.95555300  1
  O  O72  1  0.50490133  0.00980267  0.87569167  1
  O  O73  1  0.66666667  0.33333333  0.95047133  1
  O  O74  1  0.50490133  0.49509867  0.87569167  1
  O  O75  1  0.99019733  0.49509867  0.87569167  1
  O  O76  1  0.34983800  0.17491900  0.78332600  1
  O  O77  1  0.82508100  0.17491900  0.78332600  1
  O  O78  1  0.66666667  0.33333333  0.71282633  1
  O  O79  1  0.82508100  0.65016200  0.78332600  1
  O  O80  1  0.33333333  0.66666667  0.78416367  1
  O  O81  1  0.18733633  0.37467267  0.70878167  1
  O  O82  1  0.62532733  0.81266367  0.70878167  1
  O  O83  1  0.18733633  0.81266367  0.70878167  1
