# generated using pymatgen
data_CdH8(NO5)2
_symmetry_space_group_name_H-M   'P 1'
_cell_length_a   5.90895100
_cell_length_b   25.91641310
_cell_length_c   6.32205192
_cell_angle_alpha   90.00000000
_cell_angle_beta   117.77976162
_cell_angle_gamma   90.00000000
_symmetry_Int_Tables_number   1
_chemical_formula_structural   CdH8(NO5)2
_chemical_formula_sum   'Cd4 H32 N8 O40'
_cell_volume   856.56787351
_cell_formula_units_Z   4
loop_
 _symmetry_equiv_pos_site_id
 _symmetry_equiv_pos_as_xyz
  1  'x, y, z'
loop_
 _atom_site_type_symbol
 _atom_site_label
 _atom_site_symmetry_multiplicity
 _atom_site_fract_x
 _atom_site_fract_y
 _atom_site_fract_z
 _atom_site_occupancy
  Cd  Cd0  1  0.11902850  0.12705650  0.48779000  1
  Cd  Cd1  1  0.61902850  0.37294350  0.98779000  1
  Cd  Cd2  1  0.61902850  0.62705650  0.48779000  1
  Cd  Cd3  1  0.11902850  0.87294350  0.98779000  1
  H  H4  1  0.66999200  0.31972300  0.61683400  1
  H  H5  1  0.68915200  0.93379000  0.62261000  1
  H  H6  1  0.68915200  0.06621000  0.12261000  1
  H  H7  1  0.16999200  0.18027700  0.11683400  1
  H  H8  1  0.17892800  0.87887000  0.56279100  1
  H  H9  1  0.12893650  0.37463550  0.56145000  1
  H  H10  1  0.62893650  0.12536450  0.06145000  1
  H  H11  1  0.17892800  0.12113000  0.06279100  1
  H  H12  1  0.41962650  0.21153350  0.81338700  1
  H  H13  1  0.13805350  0.04265650  0.81347000  1
  H  H14  1  0.14575100  0.96111500  0.31866900  1
  H  H15  1  0.91962650  0.28846650  0.31338700  1
  H  H16  1  0.59058550  0.17866950  0.73375900  1
  H  H17  1  0.89070550  0.07672850  0.73471700  1
  H  H18  1  0.89475550  0.92857250  0.23697700  1
  H  H19  1  0.09356550  0.32557950  0.23727600  1
  H  H20  1  0.16999200  0.81972300  0.61683400  1
  H  H21  1  0.18915200  0.43379000  0.62261000  1
  H  H22  1  0.18915200  0.56621000  0.12261000  1
  H  H23  1  0.66999200  0.68027700  0.11683400  1
  H  H24  1  0.67892800  0.37887000  0.56279100  1
  H  H25  1  0.62893650  0.87463550  0.56145000  1
  H  H26  1  0.12893650  0.62536450  0.06145000  1
  H  H27  1  0.67892800  0.62113000  0.06279100  1
  H  H28  1  0.91962650  0.71153350  0.81338700  1
  H  H29  1  0.63805350  0.54265650  0.81347000  1
  H  H30  1  0.64575100  0.46111500  0.31866900  1
  H  H31  1  0.41962650  0.78846650  0.31338700  1
  H  H32  1  0.09058550  0.67866950  0.73375900  1
  H  H33  1  0.39070550  0.57672850  0.73471700  1
  H  H34  1  0.39475550  0.42857250  0.23697700  1
  H  H35  1  0.59356550  0.82557950  0.23727600  1
  N  N36  1  0.80235450  0.21669850  0.50693600  1
  N  N37  1  0.45430050  0.03760150  0.50721300  1
  N  N38  1  0.45332500  0.96649100  0.00750100  1
  N  N39  1  0.30391200  0.28713100  0.00906900  1
  N  N40  1  0.30235450  0.71669850  0.50693600  1
  N  N41  1  0.95430050  0.53760150  0.50721300  1
  N  N42  1  0.95332500  0.46649100  0.00750100  1
  N  N43  1  0.80391200  0.78713100  0.00906900  1
  O  O44  1  0.83210500  0.17506400  0.62518000  1
  O  O45  1  0.54263350  0.07928650  0.62549700  1
  O  O46  1  0.54263350  0.92071350  0.12549700  1
  O  O47  1  0.33210500  0.32493600  0.12518000  1
  O  O48  1  0.92897350  0.22210750  0.39077500  1
  O  O49  1  0.21270000  0.03259900  0.38724000  1
  O  O50  1  0.21159300  0.97226200  0.88611200  1
  O  O51  1  0.42830750  0.28236850  0.89051600  1
  O  O52  1  0.65062550  0.25071850  0.50403000  1
  O  O53  1  0.60404450  0.00309250  0.50909100  1
  O  O54  1  0.60404450  0.99690750  0.00909100  1
  O  O55  1  0.15062550  0.24928150  0.00403000  1
  O  O56  1  0.72736550  0.35351350  0.69318200  1
  O  O57  1  0.71726050  0.89924750  0.69391400  1
  O  O58  1  0.71726050  0.10075250  0.19391400  1
  O  O59  1  0.22736550  0.14648650  0.19318200  1
  O  O60  1  0.46049300  0.17546900  0.79071300  1
  O  O61  1  0.07794650  0.07899250  0.79042000  1
  O  O62  1  0.08128250  0.92509850  0.29461500  1
  O  O63  1  0.96049300  0.32453100  0.29071300  1
  O  O64  1  0.33210500  0.67506400  0.62518000  1
  O  O65  1  0.04263350  0.57928650  0.62549700  1
  O  O66  1  0.04263350  0.42071350  0.12549700  1
  O  O67  1  0.83210500  0.82493600  0.12518000  1
  O  O68  1  0.42897350  0.72210750  0.39077500  1
  O  O69  1  0.71270000  0.53259900  0.38724000  1
  O  O70  1  0.71159300  0.47226200  0.88611200  1
  O  O71  1  0.92830750  0.78236850  0.89051600  1
  O  O72  1  0.15062550  0.75071850  0.50403000  1
  O  O73  1  0.10404450  0.50309250  0.50909100  1
  O  O74  1  0.10404450  0.49690750  0.00909100  1
  O  O75  1  0.65062550  0.74928150  0.00403000  1
  O  O76  1  0.22736550  0.85351350  0.69318200  1
  O  O77  1  0.21726050  0.39924750  0.69391400  1
  O  O78  1  0.21726050  0.60075250  0.19391400  1
  O  O79  1  0.72736550  0.64648650  0.19318200  1
  O  O80  1  0.96049300  0.67546900  0.79071300  1
  O  O81  1  0.57794650  0.57899250  0.79042000  1
  O  O82  1  0.58128250  0.42509850  0.29461500  1
  O  O83  1  0.46049300  0.82453100  0.29071300  1
