# generated using pymatgen
data_Na5V2P(CO4)4
_symmetry_space_group_name_H-M   'P 1'
_cell_length_a   13.88483800
_cell_length_b   14.09319400
_cell_length_c   14.23666000
_cell_angle_alpha   90.00000000
_cell_angle_beta   90.00000000
_cell_angle_gamma   90.00000000
_symmetry_Int_Tables_number   1
_chemical_formula_structural   Na5V2P(CO4)4
_chemical_formula_sum   'Na40 V16 P8 C32 O128'
_cell_volume   2785.85405311
_cell_formula_units_Z   8
loop_
 _symmetry_equiv_pos_site_id
 _symmetry_equiv_pos_as_xyz
  1  'x, y, z'
loop_
 _atom_site_type_symbol
 _atom_site_label
 _atom_site_symmetry_multiplicity
 _atom_site_fract_x
 _atom_site_fract_y
 _atom_site_fract_z
 _atom_site_occupancy
  Na  Na0  1  0.50827500  0.70243550  0.37848450  1
  Na  Na1  1  0.74172500  0.45243550  0.12848450  1
  Na  Na2  1  0.95146950  0.24115950  0.12780400  1
  Na  Na3  1  0.04853050  0.75884050  0.12780400  1
  Na  Na4  1  0.70146950  0.50884050  0.37780400  1
  Na  Na5  1  0.49172500  0.29756450  0.37848450  1
  Na  Na6  1  0.29853050  0.49115950  0.37780400  1
  Na  Na7  1  0.25000000  0.75000000  0.32812400  1
  Na  Na8  1  0.25827500  0.54756450  0.12848450  1
  Na  Na9  1  0.00000000  0.50000000  0.07812400  1
  Na  Na10  1  0.50827500  0.20243550  0.87848450  1
  Na  Na11  1  0.74172500  0.95243550  0.62848450  1
  Na  Na12  1  0.95146950  0.74115950  0.62780400  1
  Na  Na13  1  0.04853050  0.25884050  0.62780400  1
  Na  Na14  1  0.70146950  0.00884050  0.87780400  1
  Na  Na15  1  0.49172500  0.79756450  0.87848450  1
  Na  Na16  1  0.29853050  0.99115950  0.87780400  1
  Na  Na17  1  0.25000000  0.25000000  0.82812400  1
  Na  Na18  1  0.25827500  0.04756450  0.62848450  1
  Na  Na19  1  0.00000000  0.00000000  0.57812400  1
  Na  Na20  1  0.00827500  0.70243550  0.87848450  1
  Na  Na21  1  0.24172500  0.45243550  0.62848450  1
  Na  Na22  1  0.45146950  0.24115950  0.62780400  1
  Na  Na23  1  0.54853050  0.75884050  0.62780400  1
  Na  Na24  1  0.20146950  0.50884050  0.87780400  1
  Na  Na25  1  0.99172500  0.29756450  0.87848450  1
  Na  Na26  1  0.79853050  0.49115950  0.87780400  1
  Na  Na27  1  0.75000000  0.75000000  0.82812400  1
  Na  Na28  1  0.75827500  0.54756450  0.62848450  1
  Na  Na29  1  0.50000000  0.50000000  0.57812400  1
  Na  Na30  1  0.00827500  0.20243550  0.37848450  1
  Na  Na31  1  0.24172500  0.95243550  0.12848450  1
  Na  Na32  1  0.45146950  0.74115950  0.12780400  1
  Na  Na33  1  0.54853050  0.25884050  0.12780400  1
  Na  Na34  1  0.20146950  0.00884050  0.37780400  1
  Na  Na35  1  0.99172500  0.79756450  0.37848450  1
  Na  Na36  1  0.79853050  0.99115950  0.37780400  1
  Na  Na37  1  0.75000000  0.25000000  0.32812400  1
  Na  Na38  1  0.75827500  0.04756450  0.12848450  1
  Na  Na39  1  0.50000000  0.00000000  0.07812400  1
  V  V40  1  0.37661000  0.87627050  0.49994650  1
  V  V41  1  0.12661000  0.37372950  0.24994650  1
  V  V42  1  0.62339000  0.12372950  0.49994650  1
  V  V43  1  0.37339000  0.12627050  0.24994650  1
  V  V44  1  0.37661000  0.37627050  0.99994650  1
  V  V45  1  0.12661000  0.87372950  0.74994650  1
  V  V46  1  0.62339000  0.62372950  0.99994650  1
  V  V47  1  0.37339000  0.62627050  0.74994650  1
  V  V48  1  0.87661000  0.87627050  0.99994650  1
  V  V49  1  0.62661000  0.37372950  0.74994650  1
  V  V50  1  0.12339000  0.12372950  0.99994650  1
  V  V51  1  0.87339000  0.12627050  0.74994650  1
  V  V52  1  0.87661000  0.37627050  0.49994650  1
  V  V53  1  0.62661000  0.87372950  0.24994650  1
  V  V54  1  0.12339000  0.62372950  0.49994650  1
  V  V55  1  0.87339000  0.62627050  0.24994650  1
  P  P56  1  0.25000000  0.75000000  0.12731600  1
  P  P57  1  0.50000000  0.50000000  0.37731600  1
  P  P58  1  0.25000000  0.25000000  0.62731600  1
  P  P59  1  0.50000000  0.00000000  0.87731600  1
  P  P60  1  0.75000000  0.75000000  0.62731600  1
  P  P61  1  0.00000000  0.50000000  0.87731600  1
  P  P62  1  0.75000000  0.25000000  0.12731600  1
  P  P63  1  0.00000000  0.00000000  0.37731600  1
  C  C64  1  0.34050700  0.33815150  0.20995850  1
  C  C65  1  0.15949300  0.16184850  0.20995850  1
  C  C66  1  0.16084200  0.33809400  0.03707600  1
  C  C67  1  0.83915800  0.66190600  0.03707600  1
  C  C68  1  0.09050700  0.41184850  0.45995850  1
  C  C69  1  0.40949300  0.08815150  0.45995850  1
  C  C70  1  0.91084200  0.41190600  0.28707600  1
  C  C71  1  0.08915800  0.58809400  0.28707600  1
  C  C72  1  0.34050700  0.83815150  0.70995850  1
  C  C73  1  0.15949300  0.66184850  0.70995850  1
  C  C74  1  0.16084200  0.83809400  0.53707600  1
  C  C75  1  0.83915800  0.16190600  0.53707600  1
  C  C76  1  0.09050700  0.91184850  0.95995850  1
  C  C77  1  0.40949300  0.58815150  0.95995850  1
  C  C78  1  0.91084200  0.91190600  0.78707600  1
  C  C79  1  0.08915800  0.08809400  0.78707600  1
  C  C80  1  0.84050700  0.33815150  0.70995850  1
  C  C81  1  0.65949300  0.16184850  0.70995850  1
  C  C82  1  0.66084200  0.33809400  0.53707600  1
  C  C83  1  0.33915800  0.66190600  0.53707600  1
  C  C84  1  0.59050700  0.41184850  0.95995850  1
  C  C85  1  0.90949300  0.08815150  0.95995850  1
  C  C86  1  0.41084200  0.41190600  0.78707600  1
  C  C87  1  0.58915800  0.58809400  0.78707600  1
  C  C88  1  0.84050700  0.83815150  0.20995850  1
  C  C89  1  0.65949300  0.66184850  0.20995850  1
  C  C90  1  0.66084200  0.83809400  0.03707600  1
  C  C91  1  0.33915800  0.16190600  0.03707600  1
  C  C92  1  0.59050700  0.91184850  0.45995850  1
  C  C93  1  0.90949300  0.58815150  0.45995850  1
  C  C94  1  0.41084200  0.91190600  0.28707600  1
  C  C95  1  0.58915800  0.08809400  0.28707600  1
  O  O96  1  0.51889000  0.85367650  0.47548550  1
  O  O97  1  0.35678250  0.26997550  0.26804600  1
  O  O98  1  0.14321750  0.23002450  0.26804600  1
  O  O99  1  0.98201800  0.35390050  0.27207350  1
  O  O100  1  0.23111000  0.10367650  0.22548550  1
  O  O101  1  0.31397600  0.68593050  0.19260350  1
  O  O102  1  0.18602400  0.81406950  0.19260350  1
  O  O103  1  0.39544050  0.35185900  0.13827750  1
  O  O104  1  0.10455950  0.14814100  0.13827750  1
  O  O105  1  0.10356900  0.35345600  0.10763900  1
  O  O106  1  0.89643100  0.64654400  0.10763900  1
  O  O107  1  0.18417800  0.68398250  0.06846150  1
  O  O108  1  0.81582200  0.31601750  0.06846150  1
  O  O109  1  0.60678250  0.48002450  0.01804600  1
  O  O110  1  0.39321750  0.51997550  0.01804600  1
  O  O111  1  0.76798200  0.60390050  0.02207350  1
  O  O112  1  0.48111000  0.14632350  0.47548550  1
  O  O113  1  0.64612650  0.26860700  0.47981250  1
  O  O114  1  0.35387350  0.73139300  0.47981250  1
  O  O115  1  0.56397600  0.56406950  0.44260350  1
  O  O116  1  0.43602400  0.43593050  0.44260350  1
  O  O117  1  0.35455950  0.10185900  0.38827750  1
  O  O118  1  0.14544050  0.39814100  0.38827750  1
  O  O119  1  0.35356900  0.89654400  0.35763900  1
  O  O120  1  0.14643100  0.60345600  0.35763900  1
  O  O121  1  0.56582200  0.43398250  0.31846150  1
  O  O122  1  0.43417800  0.56601750  0.31846150  1
  O  O123  1  0.01798200  0.64609950  0.27207350  1
  O  O124  1  0.26889000  0.39632350  0.22548550  1
  O  O125  1  0.10387350  0.51860700  0.22981250  1
  O  O126  1  0.89612650  0.48139300  0.22981250  1
  O  O127  1  0.23201800  0.39609950  0.02207350  1
  O  O128  1  0.51889000  0.35367650  0.97548550  1
  O  O129  1  0.35678250  0.76997550  0.76804600  1
  O  O130  1  0.14321750  0.73002450  0.76804600  1
  O  O131  1  0.98201800  0.85390050  0.77207350  1
  O  O132  1  0.23111000  0.60367650  0.72548550  1
  O  O133  1  0.31397600  0.18593050  0.69260350  1
  O  O134  1  0.18602400  0.31406950  0.69260350  1
  O  O135  1  0.39544050  0.85185900  0.63827750  1
  O  O136  1  0.10455950  0.64814100  0.63827750  1
  O  O137  1  0.10356900  0.85345600  0.60763900  1
  O  O138  1  0.89643100  0.14654400  0.60763900  1
  O  O139  1  0.18417800  0.18398250  0.56846150  1
  O  O140  1  0.81582200  0.81601750  0.56846150  1
  O  O141  1  0.60678250  0.98002450  0.51804600  1
  O  O142  1  0.39321750  0.01997550  0.51804600  1
  O  O143  1  0.76798200  0.10390050  0.52207350  1
  O  O144  1  0.48111000  0.64632350  0.97548550  1
  O  O145  1  0.64612650  0.76860700  0.97981250  1
  O  O146  1  0.35387350  0.23139300  0.97981250  1
  O  O147  1  0.56397600  0.06406950  0.94260350  1
  O  O148  1  0.43602400  0.93593050  0.94260350  1
  O  O149  1  0.35455950  0.60185900  0.88827750  1
  O  O150  1  0.14544050  0.89814100  0.88827750  1
  O  O151  1  0.35356900  0.39654400  0.85763900  1
  O  O152  1  0.14643100  0.10345600  0.85763900  1
  O  O153  1  0.56582200  0.93398250  0.81846150  1
  O  O154  1  0.43417800  0.06601750  0.81846150  1
  O  O155  1  0.01798200  0.14609950  0.77207350  1
  O  O156  1  0.26889000  0.89632350  0.72548550  1
  O  O157  1  0.10387350  0.01860700  0.72981250  1
  O  O158  1  0.89612650  0.98139300  0.72981250  1
  O  O159  1  0.23201800  0.89609950  0.52207350  1
  O  O160  1  0.01889000  0.85367650  0.97548550  1
  O  O161  1  0.85678250  0.26997550  0.76804600  1
  O  O162  1  0.64321750  0.23002450  0.76804600  1
  O  O163  1  0.48201800  0.35390050  0.77207350  1
  O  O164  1  0.73111000  0.10367650  0.72548550  1
  O  O165  1  0.81397600  0.68593050  0.69260350  1
  O  O166  1  0.68602400  0.81406950  0.69260350  1
  O  O167  1  0.89544050  0.35185900  0.63827750  1
  O  O168  1  0.60455950  0.14814100  0.63827750  1
  O  O169  1  0.60356900  0.35345600  0.60763900  1
  O  O170  1  0.39643100  0.64654400  0.60763900  1
  O  O171  1  0.68417800  0.68398250  0.56846150  1
  O  O172  1  0.31582200  0.31601750  0.56846150  1
  O  O173  1  0.10678250  0.48002450  0.51804600  1
  O  O174  1  0.89321750  0.51997550  0.51804600  1
  O  O175  1  0.26798200  0.60390050  0.52207350  1
  O  O176  1  0.98111000  0.14632350  0.97548550  1
  O  O177  1  0.14612650  0.26860700  0.97981250  1
  O  O178  1  0.85387350  0.73139300  0.97981250  1
  O  O179  1  0.06397600  0.56406950  0.94260350  1
  O  O180  1  0.93602400  0.43593050  0.94260350  1
  O  O181  1  0.85455950  0.10185900  0.88827750  1
  O  O182  1  0.64544050  0.39814100  0.88827750  1
  O  O183  1  0.85356900  0.89654400  0.85763900  1
  O  O184  1  0.64643100  0.60345600  0.85763900  1
  O  O185  1  0.06582200  0.43398250  0.81846150  1
  O  O186  1  0.93417800  0.56601750  0.81846150  1
  O  O187  1  0.51798200  0.64609950  0.77207350  1
  O  O188  1  0.76889000  0.39632350  0.72548550  1
  O  O189  1  0.60387350  0.51860700  0.72981250  1
  O  O190  1  0.39612650  0.48139300  0.72981250  1
  O  O191  1  0.73201800  0.39609950  0.52207350  1
  O  O192  1  0.01889000  0.35367650  0.47548550  1
  O  O193  1  0.85678250  0.76997550  0.26804600  1
  O  O194  1  0.64321750  0.73002450  0.26804600  1
  O  O195  1  0.48201800  0.85390050  0.27207350  1
  O  O196  1  0.73111000  0.60367650  0.22548550  1
  O  O197  1  0.81397600  0.18593050  0.19260350  1
  O  O198  1  0.68602400  0.31406950  0.19260350  1
  O  O199  1  0.89544050  0.85185900  0.13827750  1
  O  O200  1  0.60455950  0.64814100  0.13827750  1
  O  O201  1  0.60356900  0.85345600  0.10763900  1
  O  O202  1  0.39643100  0.14654400  0.10763900  1
  O  O203  1  0.68417800  0.18398250  0.06846150  1
  O  O204  1  0.31582200  0.81601750  0.06846150  1
  O  O205  1  0.10678250  0.98002450  0.01804600  1
  O  O206  1  0.89321750  0.01997550  0.01804600  1
  O  O207  1  0.26798200  0.10390050  0.02207350  1
  O  O208  1  0.98111000  0.64632350  0.47548550  1
  O  O209  1  0.14612650  0.76860700  0.47981250  1
  O  O210  1  0.85387350  0.23139300  0.47981250  1
  O  O211  1  0.06397600  0.06406950  0.44260350  1
  O  O212  1  0.93602400  0.93593050  0.44260350  1
  O  O213  1  0.85455950  0.60185900  0.38827750  1
  O  O214  1  0.64544050  0.89814100  0.38827750  1
  O  O215  1  0.85356900  0.39654400  0.35763900  1
  O  O216  1  0.64643100  0.10345600  0.35763900  1
  O  O217  1  0.06582200  0.93398250  0.31846150  1
  O  O218  1  0.93417800  0.06601750  0.31846150  1
  O  O219  1  0.51798200  0.14609950  0.27207350  1
  O  O220  1  0.76889000  0.89632350  0.22548550  1
  O  O221  1  0.60387350  0.01860700  0.22981250  1
  O  O222  1  0.39612650  0.98139300  0.22981250  1
  O  O223  1  0.73201800  0.89609950  0.02207350  1
