# generated using pymatgen
data_Tm2GeO5
_symmetry_space_group_name_H-M   'P 1'
_cell_length_a   14.83560000
_cell_length_b   6.80738000
_cell_length_c   10.37103205
_cell_angle_alpha   90.00000000
_cell_angle_beta   121.82860306
_cell_angle_gamma   90.00000000
_symmetry_Int_Tables_number   1
_chemical_formula_structural   Tm2GeO5
_chemical_formula_sum   'Tm16 Ge8 O40'
_cell_volume   889.89072493
_cell_formula_units_Z   8
loop_
 _symmetry_equiv_pos_site_id
 _symmetry_equiv_pos_as_xyz
  1  'x, y, z'
loop_
 _atom_site_type_symbol
 _atom_site_label
 _atom_site_symmetry_multiplicity
 _atom_site_fract_x
 _atom_site_fract_y
 _atom_site_fract_z
 _atom_site_occupancy
  Tm  Tm0  1  0.03457950  0.24035950  0.46543500  1
  Tm  Tm1  1  0.86362400  0.87193900  0.16299800  1
  Tm  Tm2  1  0.13637600  0.87193900  0.33700200  1
  Tm  Tm3  1  0.96542050  0.24035950  0.03456500  1
  Tm  Tm4  1  0.03457950  0.75964050  0.96543500  1
  Tm  Tm5  1  0.86362400  0.12806100  0.66299800  1
  Tm  Tm6  1  0.13637600  0.12806100  0.83700200  1
  Tm  Tm7  1  0.96542050  0.75964050  0.53456500  1
  Tm  Tm8  1  0.53457950  0.74035950  0.46543500  1
  Tm  Tm9  1  0.36362400  0.37193900  0.16299800  1
  Tm  Tm10  1  0.63637600  0.37193900  0.33700200  1
  Tm  Tm11  1  0.46542050  0.74035950  0.03456500  1
  Tm  Tm12  1  0.53457950  0.25964050  0.96543500  1
  Tm  Tm13  1  0.36362400  0.62806100  0.66299800  1
  Tm  Tm14  1  0.63637600  0.62806100  0.83700200  1
  Tm  Tm15  1  0.46542050  0.25964050  0.53456500  1
  Ge  Ge16  1  0.68518500  0.90654300  0.30945400  1
  Ge  Ge17  1  0.18518500  0.59345700  0.80945400  1
  Ge  Ge18  1  0.81481500  0.40654300  0.19054600  1
  Ge  Ge19  1  0.31481500  0.09345700  0.69054600  1
  Ge  Ge20  1  0.18518500  0.40654300  0.30945400  1
  Ge  Ge21  1  0.68518500  0.09345700  0.80945400  1
  Ge  Ge22  1  0.31481500  0.90654300  0.19054600  1
  Ge  Ge23  1  0.81481500  0.59345700  0.69054600  1
  O  O24  1  0.01719800  0.90190500  0.39776800  1
  O  O25  1  0.20460350  0.57724950  0.44974300  1
  O  O26  1  0.88426950  0.19974650  0.17656300  1
  O  O27  1  0.11573050  0.19974650  0.32343700  1
  O  O28  1  0.79539650  0.57724950  0.05025700  1
  O  O29  1  0.98280200  0.90190500  0.10223200  1
  O  O30  1  0.80576800  0.84642500  0.32519000  1
  O  O31  1  0.58132000  0.99697700  0.13312100  1
  O  O32  1  0.91868000  0.49697700  0.36687900  1
  O  O33  1  0.69423200  0.34642500  0.17481000  1
  O  O34  1  0.30576800  0.65357500  0.82519000  1
  O  O35  1  0.08132000  0.50302300  0.63312100  1
  O  O36  1  0.41868000  0.00302300  0.86687900  1
  O  O37  1  0.19423200  0.15357500  0.67481000  1
  O  O38  1  0.01719800  0.09809500  0.89776800  1
  O  O39  1  0.20460350  0.42275050  0.94974300  1
  O  O40  1  0.88426950  0.80025350  0.67656300  1
  O  O41  1  0.11573050  0.80025350  0.82343700  1
  O  O42  1  0.79539650  0.42275050  0.55025700  1
  O  O43  1  0.98280200  0.09809500  0.60223200  1
  O  O44  1  0.51719800  0.40190500  0.39776800  1
  O  O45  1  0.70460350  0.07724950  0.44974300  1
  O  O46  1  0.38426950  0.69974650  0.17656300  1
  O  O47  1  0.61573050  0.69974650  0.32343700  1
  O  O48  1  0.29539650  0.07724950  0.05025700  1
  O  O49  1  0.48280200  0.40190500  0.10223200  1
  O  O50  1  0.30576800  0.34642500  0.32519000  1
  O  O51  1  0.08132000  0.49697700  0.13312100  1
  O  O52  1  0.41868000  0.99697700  0.36687900  1
  O  O53  1  0.19423200  0.84642500  0.17481000  1
  O  O54  1  0.80576800  0.15357500  0.82519000  1
  O  O55  1  0.58132000  0.00302300  0.63312100  1
  O  O56  1  0.91868000  0.50302300  0.86687900  1
  O  O57  1  0.69423200  0.65357500  0.67481000  1
  O  O58  1  0.51719800  0.59809500  0.89776800  1
  O  O59  1  0.70460350  0.92275050  0.94974300  1
  O  O60  1  0.38426950  0.30025350  0.67656300  1
  O  O61  1  0.61573050  0.30025350  0.82343700  1
  O  O62  1  0.29539650  0.92275050  0.55025700  1
  O  O63  1  0.48280200  0.59809500  0.60223200  1
