# generated using pymatgen
data_Na3CoPCO7
_symmetry_space_group_name_H-M   'P 1'
_cell_length_a   5.24525771
_cell_length_b   6.73354550
_cell_length_c   8.92611869
_cell_angle_alpha   90.00000000
_cell_angle_beta   91.74791627
_cell_angle_gamma   90.00000000
_symmetry_Int_Tables_number   1
_chemical_formula_structural   Na3CoPCO7
_chemical_formula_sum   'Na6 Co2 P2 C2 O14'
_cell_volume   315.11651374
_cell_formula_units_Z   2
loop_
 _symmetry_equiv_pos_site_id
 _symmetry_equiv_pos_as_xyz
  1  'x, y, z'
loop_
 _atom_site_type_symbol
 _atom_site_label
 _atom_site_symmetry_multiplicity
 _atom_site_fract_x
 _atom_site_fract_y
 _atom_site_fract_z
 _atom_site_occupancy
  Na  Na0  1  0.27400850  0.25000000  0.41713825  1
  Na  Na1  1  0.72599150  0.75000000  0.58286175  1
  Na  Na2  1  0.75631400  0.00824550  0.22720575  1
  Na  Na3  1  0.75631400  0.49175450  0.22720575  1
  Na  Na4  1  0.24368600  0.99175450  0.77279425  1
  Na  Na5  1  0.24368600  0.50824550  0.77279425  1
  Co  Co6  1  0.27708500  0.75000000  0.15349175  1
  Co  Co7  1  0.72291500  0.25000000  0.84650825  1
  P  P8  1  0.21598650  0.25000000  0.08429425  1
  P  P9  1  0.78401350  0.75000000  0.91570575  1
  C  C10  1  0.21248000  0.75000000  0.43899425  1
  C  C11  1  0.78752000  0.25000000  0.56100575  1
  O  O12  1  0.43778900  0.75000000  0.38085275  1
  O  O13  1  0.56221100  0.25000000  0.61914725  1
  O  O14  1  0.81328050  0.25000000  0.41755675  1
  O  O15  1  0.18671950  0.75000000  0.58244325  1
  O  O16  1  0.01426200  0.75000000  0.34679725  1
  O  O17  1  0.98573800  0.25000000  0.65320275  1
  O  O18  1  0.64381300  0.75000000  0.06566125  1
  O  O19  1  0.35618700  0.25000000  0.93433875  1
  O  O20  1  0.92116450  0.25000000  0.05157125  1
  O  O21  1  0.07883550  0.75000000  0.94842875  1
  O  O22  1  0.28697650  0.06498300  0.18258575  1
  O  O23  1  0.28697650  0.43501700  0.18258575  1
  O  O24  1  0.71302350  0.93501700  0.81741425  1
  O  O25  1  0.71302350  0.56498300  0.81741425  1
