# generated using pymatgen
data_Ti3Fe2Sb(PO4)6
_symmetry_space_group_name_H-M   'P 1'
_cell_length_a   8.81508398
_cell_length_b   8.81508398
_cell_length_c   21.00819986
_cell_angle_alpha   90.00000000
_cell_angle_beta   90.00000000
_cell_angle_gamma   120.00000000
_symmetry_Int_Tables_number   1
_chemical_formula_structural   Ti3Fe2Sb(PO4)6
_chemical_formula_sum   'Ti9 Fe6 Sb3 P18 O72'
_cell_volume   1413.74922685
_cell_formula_units_Z   3
loop_
 _symmetry_equiv_pos_site_id
 _symmetry_equiv_pos_as_xyz
  1  'x, y, z'
loop_
 _atom_site_type_symbol
 _atom_site_label
 _atom_site_symmetry_multiplicity
 _atom_site_fract_x
 _atom_site_fract_y
 _atom_site_fract_z
 _atom_site_occupancy
  Ti  Ti0  1  0.33333333  0.66666667  0.52203567  1
  Ti  Ti1  1  0.33333333  0.66666667  0.31287167  1
  Ti  Ti2  1  0.33333333  0.66666667  0.02065667  1
  Ti  Ti3  1  0.00000000  0.00000000  0.85536900  1
  Ti  Ti4  1  0.00000000  0.00000000  0.64620500  1
  Ti  Ti5  1  0.00000000  0.00000000  0.35399000  1
  Ti  Ti6  1  0.66666667  0.33333333  0.18870233  1
  Ti  Ti7  1  0.66666667  0.33333333  0.97953833  1
  Ti  Ti8  1  0.66666667  0.33333333  0.68732333  1
  Fe  Fe9  1  0.33333333  0.66666667  0.66667167  1
  Fe  Fe10  1  0.33333333  0.66666667  0.16777867  1
  Fe  Fe11  1  0.00000000  0.00000000  0.00000500  1
  Fe  Fe12  1  0.00000000  0.00000000  0.50111200  1
  Fe  Fe13  1  0.66666667  0.33333333  0.33333833  1
  Fe  Fe14  1  0.66666667  0.33333333  0.83444533  1
  Sb  Sb15  1  0.33333333  0.66666667  0.81296767  1
  Sb  Sb16  1  0.00000000  0.00000000  0.14630100  1
  Sb  Sb17  1  0.66666667  0.33333333  0.47963433  1
  P  P18  1  0.69560800  0.69479100  0.25154200  1
  P  P19  1  0.30520900  0.00081700  0.25154200  1
  P  P20  1  0.65657767  0.03864633  0.08248433  1
  P  P21  1  0.38206867  0.34342233  0.08248433  1
  P  P22  1  0.96135367  0.61793133  0.08248433  1
  P  P23  1  0.99918300  0.30439200  0.25154200  1
  P  P24  1  0.36227467  0.02812433  0.58487533  1
  P  P25  1  0.97187567  0.33415033  0.58487533  1
  P  P26  1  0.32324433  0.37197967  0.41581767  1
  P  P27  1  0.04873533  0.67675567  0.41581767  1
  P  P28  1  0.62802033  0.95126467  0.41581767  1
  P  P29  1  0.66584967  0.63772533  0.58487533  1
  P  P30  1  0.02894133  0.36145767  0.91820867  1
  P  P31  1  0.63854233  0.66748367  0.91820867  1
  P  P32  1  0.98991100  0.70531300  0.74915100  1
  P  P33  1  0.71540200  0.01008900  0.74915100  1
  P  P34  1  0.29468700  0.28459800  0.74915100  1
  P  P35  1  0.33251633  0.97105867  0.91820867  1
  O  O36  1  0.53141733  0.83422767  0.35823867  1
  O  O37  1  0.30281033  0.46858267  0.35823867  1
  O  O38  1  0.67808867  0.51092533  0.25953833  1
  O  O39  1  0.16577233  0.69718967  0.35823867  1
  O  O40  1  0.77705167  0.77603333  0.18762733  1
  O  O41  1  0.50775333  0.67176067  0.24855667  1
  O  O42  1  0.48907467  0.16716333  0.25953833  1
  O  O43  1  0.32823933  0.83599267  0.24855667  1
  O  O44  1  0.66950533  0.14257667  0.14374367  1
  O  O45  1  0.16400733  0.49224667  0.24855667  1
  O  O46  1  0.82097800  0.02320000  0.06866500  1
  O  O47  1  0.47307133  0.33049467  0.14374367  1
  O  O48  1  0.22396667  0.00101833  0.18762733  1
  O  O49  1  0.83283667  0.32191133  0.25953833  1
  O  O50  1  0.49234267  0.85221733  0.09050233  1
  O  O51  1  0.99898167  0.22294833  0.18762733  1
  O  O52  1  0.35987467  0.50765733  0.09050233  1
  O  O53  1  0.20222200  0.17902200  0.06866500  1
  O  O54  1  0.14778267  0.64012533  0.09050233  1
  O  O55  1  0.85742333  0.52692867  0.14374367  1
  O  O56  1  0.52318800  0.66483500  0.97477400  1
  O  O57  1  0.97680000  0.79777800  0.06866500  1
  O  O58  1  0.33516500  0.85835300  0.97477400  1
  O  O59  1  0.14164700  0.47681200  0.97477400  1
  O  O60  1  0.19808400  0.16756100  0.69157200  1
  O  O61  1  0.96947700  0.80191600  0.69157200  1
  O  O62  1  0.34475533  0.84425867  0.59287167  1
  O  O63  1  0.83243900  0.03052300  0.69157200  1
  O  O64  1  0.44371833  0.10936667  0.52096067  1
  O  O65  1  0.17442000  0.00509400  0.58189000  1
  O  O66  1  0.15574133  0.50049667  0.59287167  1
  O  O67  1  0.99490600  0.16932600  0.58189000  1
  O  O68  1  0.33617200  0.47591000  0.47707700  1
  O  O69  1  0.83067400  0.82558000  0.58189000  1
  O  O70  1  0.48764467  0.35653333  0.40199833  1
  O  O71  1  0.13973800  0.66382800  0.47707700  1
  O  O72  1  0.89063333  0.33435167  0.52096067  1
  O  O73  1  0.49950333  0.65524467  0.59287167  1
  O  O74  1  0.15900933  0.18555067  0.42383567  1
  O  O75  1  0.66564833  0.55628167  0.52096067  1
  O  O76  1  0.02654133  0.84099067  0.42383567  1
  O  O77  1  0.86888867  0.51235533  0.40199833  1
  O  O78  1  0.81444933  0.97345867  0.42383567  1
  O  O79  1  0.52409000  0.86026200  0.47707700  1
  O  O80  1  0.18985467  0.99816833  0.30810733  1
  O  O81  1  0.64346667  0.13111133  0.40199833  1
  O  O82  1  0.00183167  0.19168633  0.30810733  1
  O  O83  1  0.80831367  0.81014533  0.30810733  1
  O  O84  1  0.86475067  0.50089433  0.02490533  1
  O  O85  1  0.63614367  0.13524933  0.02490533  1
  O  O86  1  0.01142200  0.17759200  0.92620500  1
  O  O87  1  0.49910567  0.36385633  0.02490533  1
  O  O88  1  0.11038500  0.44270000  0.85429400  1
  O  O89  1  0.84108667  0.33842733  0.91522333  1
  O  O90  1  0.82240800  0.83383000  0.92620500  1
  O  O91  1  0.66157267  0.50265933  0.91522333  1
  O  O92  1  0.00283867  0.80924333  0.81041033  1
  O  O93  1  0.49734067  0.15891333  0.91522333  1
  O  O94  1  0.15431133  0.68986667  0.73533167  1
  O  O95  1  0.80640467  0.99716133  0.81041033  1
  O  O96  1  0.55730000  0.66768500  0.85429400  1
  O  O97  1  0.16617000  0.98857800  0.92620500  1
  O  O98  1  0.82567600  0.51888400  0.75716900  1
  O  O99  1  0.33231500  0.88961500  0.85429400  1
  O  O100  1  0.69320800  0.17432400  0.75716900  1
  O  O101  1  0.53555533  0.84568867  0.73533167  1
  O  O102  1  0.48111600  0.30679200  0.75716900  1
  O  O103  1  0.19075667  0.19359533  0.81041033  1
  O  O104  1  0.85652133  0.33150167  0.64144067  1
  O  O105  1  0.31013333  0.46444467  0.73533167  1
  O  O106  1  0.66849833  0.52501967  0.64144067  1
  O  O107  1  0.47498033  0.14347867  0.64144067  1
