# generated using pymatgen
data_Zr2N2O
_symmetry_space_group_name_H-M   'P 1'
_cell_length_a   8.86681005
_cell_length_b   8.87617348
_cell_length_c   8.87817094
_cell_angle_alpha   109.65738258
_cell_angle_beta   109.36006317
_cell_angle_gamma   109.33706134
_symmetry_Int_Tables_number   1
_chemical_formula_structural   Zr2N2O
_chemical_formula_sum   'Zr16 N16 O8'
_cell_volume   538.28004500
_cell_formula_units_Z   8
loop_
 _symmetry_equiv_pos_site_id
 _symmetry_equiv_pos_as_xyz
  1  'x, y, z'
loop_
 _atom_site_type_symbol
 _atom_site_label
 _atom_site_symmetry_multiplicity
 _atom_site_fract_x
 _atom_site_fract_y
 _atom_site_fract_z
 _atom_site_occupancy
  Zr  Zr0  1  0.71398380  0.95809800  0.24945207  1
  Zr  Zr1  1  0.49996825  0.50712503  0.48985145  1
  Zr  Zr2  1  0.75606557  0.79047117  0.96799741  1
  Zr  Zr3  1  0.24172235  0.70377746  0.53620863  1
  Zr  Zr4  1  0.97244382  0.75061300  0.28071910  1
  Zr  Zr5  1  0.46364679  0.74787599  0.78099931  1
  Zr  Zr6  1  0.00066682  0.49959132  0.00203597  1
  Zr  Zr7  1  0.20635858  0.45851349  0.25474309  1
  Zr  Zr8  1  0.79059295  0.53258166  0.75753300  1
  Zr  Zr9  1  0.50182481  0.00857313  0.98826345  1
  Zr  Zr10  1  0.00922464  0.00475130  0.50241829  1
  Zr  Zr11  1  0.53360870  0.25713721  0.21232609  1
  Zr  Zr12  1  0.02887773  0.24620830  0.71292624  1
  Zr  Zr13  1  0.25780822  0.21957182  0.03634733  1
  Zr  Zr14  1  0.74660883  0.28577748  0.46670153  1
  Zr  Zr15  1  0.28781887  0.03940519  0.74899917  1
  N  N16  1  0.51066942  0.73989279  0.53507507  1
  N  N17  1  0.24042120  0.46832633  0.98385691  1
  N  N18  1  0.04433549  0.77304979  0.48633347  1
  N  N19  1  0.76942956  0.04370865  0.96999892  1
  N  N20  1  0.99127378  0.45673098  0.77372998  1
  N  N21  1  0.53546862  0.27243184  0.95054153  1
  N  N22  1  0.27622458  0.51417051  0.45051921  1
  N  N23  1  0.03518973  0.98539497  0.73825750  1
  N  N24  1  0.00569240  0.54145117  0.22998899  1
  N  N25  1  0.22603561  0.95805873  0.03407061  1
  N  N26  1  0.75967129  0.53238456  0.01289563  1
  N  N27  1  0.95220340  0.22403284  0.51285870  1
  N  N28  1  0.54355583  0.02888418  0.72988443  1
  N  N29  1  0.73978254  0.72701149  0.23014563  1
  N  N30  1  0.26955353  0.23380265  0.27289475  1
  N  N31  1  0.49110174  0.26311987  0.46610772  1
  O  O32  1  0.72479876  0.76151403  0.73063034  1
  O  O33  1  0.26234220  0.27262471  0.77084811  1
  O  O34  1  0.45843154  0.96956890  0.27329665  1
  O  O35  1  0.46808953  0.72651238  0.04490473  1
  O  O36  1  0.96135466  0.01512192  0.26237991  1
  O  O37  1  0.72390465  0.48466235  0.55033457  1
  O  O38  1  0.22446535  0.77163484  0.76562746  1
  O  O39  1  0.77478383  0.22583895  0.23729704  1
