# generated using pymatgen
data_Ba2YBr7
_symmetry_space_group_name_H-M   'P 1'
_cell_length_a   17.59347200
_cell_length_b   8.66712600
_cell_length_c   11.36325892
_cell_angle_alpha   90.00000000
_cell_angle_beta   128.94630190
_cell_angle_gamma   90.00000000
_symmetry_Int_Tables_number   1
_chemical_formula_structural   Ba2YBr7
_chemical_formula_sum   'Ba8 Y4 Br28'
_cell_volume   1347.60138199
_cell_formula_units_Z   4
loop_
 _symmetry_equiv_pos_site_id
 _symmetry_equiv_pos_as_xyz
  1  'x, y, z'
loop_
 _atom_site_type_symbol
 _atom_site_label
 _atom_site_symmetry_multiplicity
 _atom_site_fract_x
 _atom_site_fract_y
 _atom_site_fract_z
 _atom_site_occupancy
  Ba  Ba0  1  0.80498100  0.48629600  0.70036100  1
  Ba  Ba1  1  0.30498100  0.01370400  0.20036100  1
  Ba  Ba2  1  0.69501900  0.98629600  0.79963900  1
  Ba  Ba3  1  0.19501900  0.51370400  0.29963900  1
  Ba  Ba4  1  0.30498100  0.98629600  0.70036100  1
  Ba  Ba5  1  0.80498100  0.51370400  0.20036100  1
  Ba  Ba6  1  0.19501900  0.48629600  0.79963900  1
  Ba  Ba7  1  0.69501900  0.01370400  0.29963900  1
  Y  Y8  1  0.50000000  0.44798900  0.75000000  1
  Y  Y9  1  0.50000000  0.55201100  0.25000000  1
  Y  Y10  1  0.00000000  0.94798900  0.75000000  1
  Y  Y11  1  0.00000000  0.05201100  0.25000000  1
  Br  Br12  1  0.68965600  0.37374200  0.83926200  1
  Br  Br13  1  0.18965600  0.12625800  0.33926200  1
  Br  Br14  1  0.90992650  0.15840650  0.94338500  1
  Br  Br15  1  0.37928700  0.72263900  0.56428900  1
  Br  Br16  1  0.50000000  0.10045400  0.75000000  1
  Br  Br17  1  0.40992650  0.34159350  0.44338500  1
  Br  Br18  1  0.62071300  0.72263900  0.93571100  1
  Br  Br19  1  0.37928700  0.27736100  0.06428900  1
  Br  Br20  1  0.59007350  0.65840650  0.55661500  1
  Br  Br21  1  0.50000000  0.89954600  0.25000000  1
  Br  Br22  1  0.62071300  0.27736100  0.43571100  1
  Br  Br23  1  0.09007350  0.84159350  0.05661500  1
  Br  Br24  1  0.81034400  0.87374200  0.66073800  1
  Br  Br25  1  0.31034400  0.62625800  0.16073800  1
  Br  Br26  1  0.18965600  0.87374200  0.83926200  1
  Br  Br27  1  0.68965600  0.62625800  0.33926200  1
  Br  Br28  1  0.40992650  0.65840650  0.94338500  1
  Br  Br29  1  0.87928700  0.22263900  0.56428900  1
  Br  Br30  1  0.00000000  0.60045400  0.75000000  1
  Br  Br31  1  0.90992650  0.84159350  0.44338500  1
  Br  Br32  1  0.12071300  0.22263900  0.93571100  1
  Br  Br33  1  0.87928700  0.77736100  0.06428900  1
  Br  Br34  1  0.09007350  0.15840650  0.55661500  1
  Br  Br35  1  0.00000000  0.39954600  0.25000000  1
  Br  Br36  1  0.12071300  0.77736100  0.43571100  1
  Br  Br37  1  0.59007350  0.34159350  0.05661500  1
  Br  Br38  1  0.31034400  0.37374200  0.66073800  1
  Br  Br39  1  0.81034400  0.12625800  0.16073800  1
