# generated using pymatgen
data_MoO3
_symmetry_space_group_name_H-M   'P 1'
_cell_length_a   5.32089500
_cell_length_b   5.20367300
_cell_length_c   9.18954546
_cell_angle_alpha   90.00000000
_cell_angle_beta   106.21899559
_cell_angle_gamma   90.00000000
_symmetry_Int_Tables_number   1
_chemical_formula_structural   MoO3
_chemical_formula_sum   'Mo4 O12'
_cell_volume   244.31545066
_cell_formula_units_Z   4
loop_
 _symmetry_equiv_pos_site_id
 _symmetry_equiv_pos_as_xyz
  1  'x, y, z'
loop_
 _atom_site_type_symbol
 _atom_site_label
 _atom_site_symmetry_multiplicity
 _atom_site_fract_x
 _atom_site_fract_y
 _atom_site_fract_z
 _atom_site_occupancy
  Mo  Mo0  1  0.98181600  0.26384500  0.04195300  1
  Mo  Mo1  1  0.48181600  0.73615500  0.04195300  1
  Mo  Mo2  1  0.70608600  0.76839800  0.52706400  1
  Mo  Mo3  1  0.20608600  0.23160200  0.52706400  1
  O  O4  1  0.94020600  0.46998600  0.51917700  1
  O  O5  1  0.44020600  0.53001400  0.51917700  1
  O  O6  1  0.57225100  0.67153300  0.23253500  1
  O  O7  1  0.07225100  0.32846700  0.23253500  1
  O  O8  1  0.47179200  0.04157700  0.45264300  1
  O  O9  1  0.97179200  0.95842300  0.45264300  1
  O  O10  1  0.80860300  0.84273000  0.71555800  1
  O  O11  1  0.30860300  0.15727000  0.71555800  1
  O  O12  1  0.71835300  0.50410800  0.96573500  1
  O  O13  1  0.21835300  0.49589200  0.96573500  1
  O  O14  1  0.74969300  0.99206000  0.02453400  1
  O  O15  1  0.24969300  0.00794000  0.02453400  1
