# generated using pymatgen
data_Li4Co3Ni5O16
_symmetry_space_group_name_H-M   'P 1'
_cell_length_a   9.77282459
_cell_length_b   5.64975967
_cell_length_c   9.38625232
_cell_angle_alpha   90.00000000
_cell_angle_beta   90.01817072
_cell_angle_gamma   90.00000000
_symmetry_Int_Tables_number   1
_chemical_formula_structural   Li4Co3Ni5O16
_chemical_formula_sum   'Li8 Co6 Ni10 O32'
_cell_volume   518.25354428
_cell_formula_units_Z   2
loop_
 _symmetry_equiv_pos_site_id
 _symmetry_equiv_pos_as_xyz
  1  'x, y, z'
loop_
 _atom_site_type_symbol
 _atom_site_label
 _atom_site_symmetry_multiplicity
 _atom_site_fract_x
 _atom_site_fract_y
 _atom_site_fract_z
 _atom_site_occupancy
  Li  Li0  1  0.33231550  0.00000000  0.10717200  1
  Li  Li1  1  0.99846400  0.00000000  0.00244400  1
  Li  Li2  1  0.00057200  0.00000000  0.50214700  1
  Li  Li3  1  0.66730800  0.00000000  0.60576900  1
  Li  Li4  1  0.83231550  0.50000000  0.10717200  1
  Li  Li5  1  0.49846400  0.50000000  0.00244400  1
  Li  Li6  1  0.50057200  0.50000000  0.50214700  1
  Li  Li7  1  0.16730800  0.50000000  0.60576900  1
  Co  Co8  1  0.41650900  0.75306100  0.78600000  1
  Co  Co9  1  0.41650900  0.24693900  0.78600000  1
  Co  Co10  1  0.83186100  0.00000000  0.28622400  1
  Co  Co11  1  0.91650900  0.25306100  0.78600000  1
  Co  Co12  1  0.91650900  0.74693900  0.78600000  1
  Co  Co13  1  0.33186100  0.50000000  0.28622400  1
  Ni  Ni14  1  0.33329900  0.00000000  0.50928500  1
  Ni  Ni15  1  0.16910050  0.00000000  0.78529400  1
  Ni  Ni16  1  0.66622400  0.00000000  0.00960400  1
  Ni  Ni17  1  0.58463850  0.75306550  0.28494400  1
  Ni  Ni18  1  0.58463850  0.24693450  0.28494400  1
  Ni  Ni19  1  0.83329900  0.50000000  0.50928500  1
  Ni  Ni20  1  0.66910050  0.50000000  0.78529400  1
  Ni  Ni21  1  0.16622400  0.50000000  0.00960400  1
  Ni  Ni22  1  0.08463850  0.25306550  0.28494400  1
  Ni  Ni23  1  0.08463850  0.74693450  0.28494400  1
  O  O24  1  0.41979250  0.73568350  0.39311400  1
  O  O25  1  0.48287250  0.00000000  0.67371900  1
  O  O26  1  0.33128000  0.00000000  0.88958200  1
  O  O27  1  0.00276800  0.00000000  0.68970000  1
  O  O28  1  0.00271300  0.00000000  0.19105500  1
  O  O29  1  0.41979250  0.26431650  0.39311400  1
  O  O30  1  0.26089650  0.77694850  0.67063100  1
  O  O31  1  0.26089650  0.22305150  0.67063100  1
  O  O32  1  0.84134500  0.00000000  0.89079000  1
  O  O33  1  0.15886350  0.00000000  0.39442900  1
  O  O34  1  0.74246800  0.77822700  0.17177300  1
  O  O35  1  0.74246800  0.22177300  0.17177300  1
  O  O36  1  0.66425650  0.00000000  0.38758500  1
  O  O37  1  0.57737600  0.73749000  0.89360500  1
  O  O38  1  0.51835600  0.00000000  0.16772500  1
  O  O39  1  0.57737600  0.26251000  0.89360500  1
  O  O40  1  0.91979250  0.23568350  0.39311400  1
  O  O41  1  0.98287250  0.50000000  0.67371900  1
  O  O42  1  0.83128000  0.50000000  0.88958200  1
  O  O43  1  0.50276800  0.50000000  0.68970000  1
  O  O44  1  0.50271300  0.50000000  0.19105500  1
  O  O45  1  0.91979250  0.76431650  0.39311400  1
  O  O46  1  0.76089650  0.27694850  0.67063100  1
  O  O47  1  0.76089650  0.72305150  0.67063100  1
  O  O48  1  0.34134500  0.50000000  0.89079000  1
  O  O49  1  0.65886350  0.50000000  0.39442900  1
  O  O50  1  0.24246800  0.27822700  0.17177300  1
  O  O51  1  0.24246800  0.72177300  0.17177300  1
  O  O52  1  0.16425650  0.50000000  0.38758500  1
  O  O53  1  0.07737600  0.23749000  0.89360500  1
  O  O54  1  0.01835600  0.50000000  0.16772500  1
  O  O55  1  0.07737600  0.76251000  0.89360500  1
