# generated using pymatgen
data_Ba2Ta2O7
_symmetry_space_group_name_H-M   'P 1'
_cell_length_a   7.72682400
_cell_length_b   8.07548400
_cell_length_c   10.82438800
_cell_angle_alpha   90.00000000
_cell_angle_beta   90.00000000
_cell_angle_gamma   90.00000000
_symmetry_Int_Tables_number   1
_chemical_formula_structural   Ba2Ta2O7
_chemical_formula_sum   'Ba8 Ta8 O28'
_cell_volume   675.41846930
_cell_formula_units_Z   4
loop_
 _symmetry_equiv_pos_site_id
 _symmetry_equiv_pos_as_xyz
  1  'x, y, z'
loop_
 _atom_site_type_symbol
 _atom_site_label
 _atom_site_symmetry_multiplicity
 _atom_site_fract_x
 _atom_site_fract_y
 _atom_site_fract_z
 _atom_site_occupancy
  Ba  Ba0  1  0.00000000  0.00000000  0.00000000  1
  Ba  Ba1  1  0.00000000  0.00000000  0.50000000  1
  Ba  Ba2  1  0.25000000  0.25000000  0.25000000  1
  Ba  Ba3  1  0.75000000  0.25000000  0.25000000  1
  Ba  Ba4  1  0.50000000  0.50000000  0.50000000  1
  Ba  Ba5  1  0.50000000  0.50000000  0.00000000  1
  Ba  Ba6  1  0.75000000  0.75000000  0.75000000  1
  Ba  Ba7  1  0.25000000  0.75000000  0.75000000  1
  Ta  Ta8  1  0.75000000  0.75000000  0.25000000  1
  Ta  Ta9  1  0.50000000  0.00000000  0.50000000  1
  Ta  Ta10  1  0.25000000  0.75000000  0.25000000  1
  Ta  Ta11  1  0.50000000  0.00000000  0.00000000  1
  Ta  Ta12  1  0.25000000  0.25000000  0.75000000  1
  Ta  Ta13  1  0.00000000  0.50000000  0.00000000  1
  Ta  Ta14  1  0.75000000  0.25000000  0.75000000  1
  Ta  Ta15  1  0.00000000  0.50000000  0.50000000  1
  O  O16  1  0.31055150  0.08234550  0.88123450  1
  O  O17  1  0.50000000  0.79040550  0.59039950  1
  O  O18  1  0.00000000  0.83370800  0.25000000  1
  O  O19  1  0.00000000  0.70959450  0.59039950  1
  O  O20  1  0.68944850  0.08234550  0.61876550  1
  O  O21  1  0.68944850  0.91765450  0.38123450  1
  O  O22  1  0.68944850  0.08234550  0.88123450  1
  O  O23  1  0.31055150  0.91765450  0.11876550  1
  O  O24  1  0.31055150  0.91765450  0.38123450  1
  O  O25  1  0.31055150  0.08234550  0.61876550  1
  O  O26  1  0.00000000  0.29040550  0.40960050  1
  O  O27  1  0.00000000  0.16629200  0.75000000  1
  O  O28  1  0.50000000  0.20959450  0.40960050  1
  O  O29  1  0.68944850  0.91765450  0.11876550  1
  O  O30  1  0.81055150  0.58234550  0.38123450  1
  O  O31  1  0.00000000  0.29040550  0.09039950  1
  O  O32  1  0.50000000  0.33370800  0.75000000  1
  O  O33  1  0.50000000  0.20959450  0.09039950  1
  O  O34  1  0.18944850  0.58234550  0.11876550  1
  O  O35  1  0.18944850  0.41765450  0.88123450  1
  O  O36  1  0.18944850  0.58234550  0.38123450  1
  O  O37  1  0.81055150  0.41765450  0.61876550  1
  O  O38  1  0.81055150  0.41765450  0.88123450  1
  O  O39  1  0.81055150  0.58234550  0.11876550  1
  O  O40  1  0.50000000  0.79040550  0.90960050  1
  O  O41  1  0.50000000  0.66629200  0.25000000  1
  O  O42  1  0.00000000  0.70959450  0.90960050  1
  O  O43  1  0.18944850  0.41765450  0.61876550  1
