# generated using pymatgen
data_Lu2GeO5
_symmetry_space_group_name_H-M   'P 1'
_cell_length_a   11.40137800
_cell_length_b   5.16018400
_cell_length_c   7.36510447
_cell_angle_alpha   90.00000000
_cell_angle_beta   113.92141789
_cell_angle_gamma   90.00000000
_symmetry_Int_Tables_number   1
_chemical_formula_structural   Lu2GeO5
_chemical_formula_sum   'Lu8 Ge4 O20'
_cell_volume   396.09222178
_cell_formula_units_Z   4
loop_
 _symmetry_equiv_pos_site_id
 _symmetry_equiv_pos_as_xyz
  1  'x, y, z'
loop_
 _atom_site_type_symbol
 _atom_site_label
 _atom_site_symmetry_multiplicity
 _atom_site_fract_x
 _atom_site_fract_y
 _atom_site_fract_z
 _atom_site_occupancy
  Lu  Lu0  1  0.13971850  0.49256750  0.25639200  1
  Lu  Lu1  1  0.36028150  0.99256750  0.24360800  1
  Lu  Lu2  1  0.13971850  0.50743250  0.75639200  1
  Lu  Lu3  1  0.36028150  0.00743250  0.74360800  1
  Lu  Lu4  1  0.63971850  0.99256750  0.25639200  1
  Lu  Lu5  1  0.86028150  0.49256750  0.24360800  1
  Lu  Lu6  1  0.63971850  0.00743250  0.75639200  1
  Lu  Lu7  1  0.86028150  0.50743250  0.74360800  1
  Ge  Ge8  1  0.00000000  0.00000000  0.00000000  1
  Ge  Ge9  1  0.00000000  0.00000000  0.50000000  1
  Ge  Ge10  1  0.50000000  0.50000000  0.00000000  1
  Ge  Ge11  1  0.50000000  0.50000000  0.50000000  1
  O  O12  1  0.16784250  0.85626350  0.13774200  1
  O  O13  1  0.07322000  0.68512000  0.45943200  1
  O  O14  1  0.07322000  0.31488000  0.95943200  1
  O  O15  1  0.33215750  0.35626350  0.36225800  1
  O  O16  1  0.16784250  0.14373650  0.63774200  1
  O  O17  1  0.00000000  0.17015400  0.25000000  1
  O  O18  1  0.42678000  0.18512000  0.04056800  1
  O  O19  1  0.42678000  0.81488000  0.54056800  1
  O  O20  1  0.33215750  0.64373650  0.86225800  1
  O  O21  1  0.00000000  0.82984600  0.75000000  1
  O  O22  1  0.66784250  0.35626350  0.13774200  1
  O  O23  1  0.57322000  0.18512000  0.45943200  1
  O  O24  1  0.57322000  0.81488000  0.95943200  1
  O  O25  1  0.83215750  0.85626350  0.36225800  1
  O  O26  1  0.66784250  0.64373650  0.63774200  1
  O  O27  1  0.50000000  0.67015400  0.25000000  1
  O  O28  1  0.92678000  0.68512000  0.04056800  1
  O  O29  1  0.92678000  0.31488000  0.54056800  1
  O  O30  1  0.83215750  0.14373650  0.86225800  1
  O  O31  1  0.50000000  0.32984600  0.75000000  1
