# generated using pymatgen
data_LiGePCO7
_symmetry_space_group_name_H-M   'P 1'
_cell_length_a   5.06550800
_cell_length_b   6.23256100
_cell_length_c   8.62290786
_cell_angle_alpha   90.00000000
_cell_angle_beta   94.54812694
_cell_angle_gamma   90.00000000
_symmetry_Int_Tables_number   1
_chemical_formula_structural   LiGePCO7
_chemical_formula_sum   'Li2 Ge2 P2 C2 O14'
_cell_volume   271.37733414
_cell_formula_units_Z   2
loop_
 _symmetry_equiv_pos_site_id
 _symmetry_equiv_pos_as_xyz
  1  'x, y, z'
loop_
 _atom_site_type_symbol
 _atom_site_label
 _atom_site_symmetry_multiplicity
 _atom_site_fract_x
 _atom_site_fract_y
 _atom_site_fract_z
 _atom_site_occupancy
  Li  Li0  1  0.77186000  0.52509900  0.18333100  1
  Li  Li1  1  0.22814000  0.02509900  0.81666900  1
  Ge  Ge2  1  0.21120200  0.75148500  0.33733300  1
  Ge  Ge3  1  0.78879800  0.25148500  0.66266700  1
  P  P4  1  0.26525100  0.24578100  0.43106700  1
  P  P5  1  0.73474900  0.74578100  0.56893300  1
  C  C6  1  0.27473800  0.74671000  0.06569000  1
  C  C7  1  0.72526200  0.24671000  0.93431000  1
  O  O8  1  0.68614500  0.26923600  0.07215800  1
  O  O9  1  0.03899300  0.74480900  0.12616700  1
  O  O10  1  0.46770100  0.72899900  0.18275500  1
  O  O11  1  0.19607700  0.05153100  0.32647500  1
  O  O12  1  0.17959500  0.44136600  0.33030500  1
  O  O13  1  0.87349400  0.74020000  0.41511300  1
  O  O14  1  0.57067600  0.25263400  0.47717600  1
  O  O15  1  0.42932400  0.75263400  0.52282400  1
  O  O16  1  0.12650600  0.24020000  0.58488700  1
  O  O17  1  0.82040500  0.94136600  0.66969500  1
  O  O18  1  0.80392300  0.55153100  0.67352500  1
  O  O19  1  0.53229900  0.22899900  0.81724500  1
  O  O20  1  0.96100700  0.24480900  0.87383300  1
  O  O21  1  0.31385500  0.76923600  0.92784200  1
