# generated using pymatgen
data_Li6Fe5CoO12
_symmetry_space_group_name_H-M   'P 1'
_cell_length_a   5.08687400
_cell_length_b   8.83285400
_cell_length_c   10.10334336
_cell_angle_alpha   90.00000000
_cell_angle_beta   98.38788177
_cell_angle_gamma   90.00000000
_symmetry_Int_Tables_number   1
_chemical_formula_structural   Li6Fe5CoO12
_chemical_formula_sum   'Li12 Fe10 Co2 O24'
_cell_volume   449.10362704
_cell_formula_units_Z   2
loop_
 _symmetry_equiv_pos_site_id
 _symmetry_equiv_pos_as_xyz
  1  'x, y, z'
loop_
 _atom_site_type_symbol
 _atom_site_label
 _atom_site_symmetry_multiplicity
 _atom_site_fract_x
 _atom_site_fract_y
 _atom_site_fract_z
 _atom_site_occupancy
  Li  Li0  1  0.39620750  0.66188750  0.24197900  1
  Li  Li1  1  0.89620750  0.83811250  0.24197900  1
  Li  Li2  1  0.61982300  0.00000000  0.75830700  1
  Li  Li3  1  0.38017700  0.00000000  0.24169300  1
  Li  Li4  1  0.60379250  0.66188750  0.75802100  1
  Li  Li5  1  0.10379250  0.83811250  0.75802100  1
  Li  Li6  1  0.89620750  0.16188750  0.24197900  1
  Li  Li7  1  0.39620750  0.33811250  0.24197900  1
  Li  Li8  1  0.11982300  0.50000000  0.75830700  1
  Li  Li9  1  0.88017700  0.50000000  0.24169300  1
  Li  Li10  1  0.10379250  0.16188750  0.75802100  1
  Li  Li11  1  0.60379250  0.33811250  0.75802100  1
  Fe  Fe12  1  0.50000000  0.00000000  0.50000000  1
  Fe  Fe13  1  0.00000000  0.66664800  0.00000000  1
  Fe  Fe14  1  0.50000000  0.83335200  0.00000000  1
  Fe  Fe15  1  0.50000000  0.66719800  0.50000000  1
  Fe  Fe16  1  0.00000000  0.83280200  0.50000000  1
  Fe  Fe17  1  0.00000000  0.50000000  0.50000000  1
  Fe  Fe18  1  0.50000000  0.16664800  0.00000000  1
  Fe  Fe19  1  0.00000000  0.33335200  0.00000000  1
  Fe  Fe20  1  0.00000000  0.16719800  0.50000000  1
  Fe  Fe21  1  0.50000000  0.33280200  0.50000000  1
  Co  Co22  1  0.00000000  0.00000000  0.00000000  1
  Co  Co23  1  0.50000000  0.50000000  0.00000000  1
  O  O24  1  0.87072500  0.00000000  0.61491000  1
  O  O25  1  0.70879500  0.00000000  0.10926400  1
  O  O26  1  0.62974500  0.83333800  0.38450300  1
  O  O27  1  0.12974500  0.66666200  0.38450300  1
  O  O28  1  0.69128750  0.66119450  0.10958800  1
  O  O29  1  0.19128750  0.83880550  0.10958800  1
  O  O30  1  0.30871250  0.66119450  0.89041200  1
  O  O31  1  0.80871250  0.83880550  0.89041200  1
  O  O32  1  0.37025500  0.83333800  0.61549700  1
  O  O33  1  0.87025500  0.66666200  0.61549700  1
  O  O34  1  0.29120500  0.00000000  0.89073600  1
  O  O35  1  0.12927500  0.00000000  0.38509000  1
  O  O36  1  0.37072500  0.50000000  0.61491000  1
  O  O37  1  0.20879500  0.50000000  0.10926400  1
  O  O38  1  0.12974500  0.33333800  0.38450300  1
  O  O39  1  0.62974500  0.16666200  0.38450300  1
  O  O40  1  0.19128750  0.16119450  0.10958800  1
  O  O41  1  0.69128750  0.33880550  0.10958800  1
  O  O42  1  0.80871250  0.16119450  0.89041200  1
  O  O43  1  0.30871250  0.33880550  0.89041200  1
  O  O44  1  0.87025500  0.33333800  0.61549700  1
  O  O45  1  0.37025500  0.16666200  0.61549700  1
  O  O46  1  0.79120500  0.50000000  0.89073600  1
  O  O47  1  0.62927500  0.50000000  0.38509000  1
