# generated using pymatgen
data_V6O11F
_symmetry_space_group_name_H-M   'P 1'
_cell_length_a   6.60954400
_cell_length_b   19.57610400
_cell_length_c   2.93809500
_cell_angle_alpha   90.00000000
_cell_angle_beta   90.00000000
_cell_angle_gamma   90.00000000
_symmetry_Int_Tables_number   1
_chemical_formula_structural   V6O11F
_chemical_formula_sum   'V12 O22 F2'
_cell_volume   380.15752869
_cell_formula_units_Z   2
loop_
 _symmetry_equiv_pos_site_id
 _symmetry_equiv_pos_as_xyz
  1  'x, y, z'
loop_
 _atom_site_type_symbol
 _atom_site_label
 _atom_site_symmetry_multiplicity
 _atom_site_fract_x
 _atom_site_fract_y
 _atom_site_fract_z
 _atom_site_occupancy
  V  V0  1  0.66791400  0.33336400  0.00000000  1
  V  V1  1  0.66669750  0.16694450  0.50000000  1
  V  V2  1  0.16669750  0.33305550  0.50000000  1
  V  V3  1  0.16791400  0.16663600  0.00000000  1
  V  V4  1  0.68195500  0.00000000  0.00000000  1
  V  V5  1  0.15052700  0.00000000  0.50000000  1
  V  V6  1  0.16791400  0.83336400  0.00000000  1
  V  V7  1  0.16669750  0.66694450  0.50000000  1
  V  V8  1  0.66669750  0.83305550  0.50000000  1
  V  V9  1  0.66791400  0.66663600  0.00000000  1
  V  V10  1  0.18195500  0.50000000  0.00000000  1
  V  V11  1  0.65052700  0.50000000  0.50000000  1
  O  O12  1  0.66656300  0.26785300  0.50000000  1
  O  O13  1  0.97031550  0.33322950  0.00000000  1
  O  O14  1  0.36296500  0.33413400  0.00000000  1
  O  O15  1  0.86296500  0.16586600  0.00000000  1
  O  O16  1  0.16656300  0.23214700  0.50000000  1
  O  O17  1  0.66395350  0.06518050  0.50000000  1
  O  O18  1  0.16937600  0.10017400  0.50000000  1
  O  O19  1  0.16395350  0.43481950  0.50000000  1
  O  O20  1  0.47031550  0.16677050  0.00000000  1
  O  O21  1  0.96446900  0.00000000  0.00000000  1
  O  O22  1  0.66937600  0.39982600  0.50000000  1
  O  O23  1  0.16656300  0.76785300  0.50000000  1
  O  O24  1  0.47031550  0.83322950  0.00000000  1
  O  O25  1  0.86296500  0.83413400  0.00000000  1
  O  O26  1  0.36296500  0.66586600  0.00000000  1
  O  O27  1  0.66656300  0.73214700  0.50000000  1
  O  O28  1  0.16395350  0.56518050  0.50000000  1
  O  O29  1  0.66937600  0.60017400  0.50000000  1
  O  O30  1  0.66395350  0.93481950  0.50000000  1
  O  O31  1  0.97031550  0.66677050  0.00000000  1
  O  O32  1  0.46446900  0.50000000  0.00000000  1
  O  O33  1  0.16937600  0.89982600  0.50000000  1
  F  F34  1  0.36760600  0.00000000  0.00000000  1
  F  F35  1  0.86760600  0.50000000  0.00000000  1
