# generated using pymatgen
data_Na2Ca9NdY5HoF41
_symmetry_space_group_name_H-M   'P 1'
_cell_length_a   9.77673500
_cell_length_b   10.41954850
_cell_length_c   10.43554140
_cell_angle_alpha   110.49812153
_cell_angle_beta   107.74388348
_cell_angle_gamma   108.19189731
_symmetry_Int_Tables_number   1
_chemical_formula_structural   Na2Ca9NdY5HoF41
_chemical_formula_sum   'Na2 Ca9 Nd1 Y5 Ho1 F41'
_cell_volume   837.31760303
_cell_formula_units_Z   1
loop_
 _symmetry_equiv_pos_site_id
 _symmetry_equiv_pos_as_xyz
  1  'x, y, z'
loop_
 _atom_site_type_symbol
 _atom_site_label
 _atom_site_symmetry_multiplicity
 _atom_site_fract_x
 _atom_site_fract_y
 _atom_site_fract_z
 _atom_site_occupancy
  Na  Na0  1  0.38639100  0.63236100  0.04028900  1
  Na  Na1  1  0.95209900  0.16022900  0.26913000  1
  Ca  Ca2  1  0.07225100  0.51568800  0.21276100  1
  Ca  Ca3  1  0.13498100  0.21176400  0.67397900  1
  Ca  Ca4  1  0.23136300  0.57197900  0.62914400  1
  Ca  Ca5  1  0.34392700  0.94271500  0.59090900  1
  Ca  Ca6  1  0.43942500  0.30670300  0.52540900  1
  Ca  Ca7  1  0.56411900  0.69408700  0.49722100  1
  Ca  Ca8  1  0.61033800  0.36557300  0.93930800  1
  Ca  Ca9  1  0.77331600  0.42171600  0.36786600  1
  Ca  Ca10  1  0.92793000  0.48564400  0.79611700  1
  Nd  Nd11  1  0.86593200  0.80023600  0.28738600  1
  Y  Y12  1  0.01331000  0.83327700  0.71788600  1
  Y  Y13  1  0.68115400  0.72242800  0.88301800  1
  Y  Y14  1  0.18841300  0.87613200  0.16862000  1
  Y  Y15  1  0.80233700  0.09973700  0.83719600  1
  Y  Y16  1  0.33276000  0.27809600  0.10968700  1
  Ho  Ho17  1  0.65556400  0.05311900  0.41715800  1
  F  F18  1  0.02051300  0.44211800  0.38349800  1
  F  F19  1  0.19879900  0.30723300  0.52088400  1
  F  F20  1  0.12974600  0.78008100  0.32350000  1
  F  F21  1  0.13966000  0.45248700  0.76477400  1
  F  F22  1  0.31727400  0.68646000  0.47289200  1
  F  F23  1  0.08762600  0.94157500  0.55821900  1
  F  F24  1  0.46652300  0.55508800  0.61520300  1
  F  F25  1  0.33657200  0.36277600  0.94212400  1
  F  F26  1  0.23287100  0.81535100  0.70167800  1
  F  F27  1  0.40513500  0.04789200  0.42644300  1
  F  F28  1  0.14901600  0.62436700  0.06324100  1
  F  F29  1  0.44403700  0.68952000  0.86782900  1
  F  F30  1  0.28978500  0.47405200  0.20372200  1
  F  F31  1  0.20479600  0.07795800  0.87807200  1
  F  F32  1  0.37897000  0.20889200  0.68628300  1
  F  F33  1  0.62460700  0.86354800  0.77071500  1
  F  F34  1  0.57648900  0.11620900  0.82805900  1
  F  F35  1  0.43375200  0.89714000  0.19127700  1
  F  F36  1  0.29607300  0.11921100  0.20174800  1
  F  F37  1  0.62698700  0.79688200  0.32739500  1
  F  F38  1  0.76103400  0.89959200  0.12183100  1
  F  F39  1  0.65482400  0.47143000  0.78137700  1
  F  F40  1  0.56016200  0.29574800  0.11566100  1
  F  F41  1  0.94240100  0.24541300  0.09058600  1
  F  F42  1  0.85258200  0.36967600  0.93412000  1
  F  F43  1  0.58829900  0.95713200  0.56762900  1
  F  F44  1  0.73024300  0.17544700  0.29873000  1
  F  F45  1  0.62677600  0.60785800  0.04664400  1
  F  F46  1  0.51940100  0.42538700  0.36719000  1
  F  F47  1  0.89219100  0.05469000  0.43877000  1
  F  F48  1  0.88184200  0.96969200  0.67460500  1
  F  F49  1  0.68311300  0.30082600  0.53143000  1
  F  F50  1  0.83638600  0.53437100  0.20600200  1
  F  F51  1  0.90659700  0.71642700  0.04504000  1
  F  F52  1  0.86684200  0.21243600  0.68892500  1
  F  F53  1  0.94574700  0.98901800  0.94100800  1
  F  F54  1  0.81354500  0.68475900  0.45447600  1
  F  F55  1  0.07792100  0.99933800  0.29018500  1
  F  F56  1  0.96684200  0.57191600  0.62305700  1
  F  F57  1  0.77386900  0.69125300  0.70126000  1
  F  F58  1  0.09434800  0.78456900  0.91443400  1
