# generated using pymatgen
data_Rb3NaV4H2O13
_symmetry_space_group_name_H-M   'P 1'
_cell_length_a   8.44491500
_cell_length_b   11.41226500
_cell_length_c   16.08618300
_cell_angle_alpha   90.00000000
_cell_angle_beta   90.00000000
_cell_angle_gamma   90.00000000
_symmetry_Int_Tables_number   1
_chemical_formula_structural   Rb3NaV4H2O13
_chemical_formula_sum   'Rb12 Na4 V16 H8 O52'
_cell_volume   1550.31566513
_cell_formula_units_Z   4
loop_
 _symmetry_equiv_pos_site_id
 _symmetry_equiv_pos_as_xyz
  1  'x, y, z'
loop_
 _atom_site_type_symbol
 _atom_site_label
 _atom_site_symmetry_multiplicity
 _atom_site_fract_x
 _atom_site_fract_y
 _atom_site_fract_z
 _atom_site_occupancy
  Rb  Rb0  1  0.25000000  0.51477400  0.62113000  1
  Rb  Rb1  1  0.75000000  0.51887800  0.69632600  1
  Rb  Rb2  1  0.75000000  0.52609300  0.10168400  1
  Rb  Rb3  1  0.25000000  0.97390700  0.60168400  1
  Rb  Rb4  1  0.25000000  0.98112200  0.19632600  1
  Rb  Rb5  1  0.75000000  0.98522600  0.12113000  1
  Rb  Rb6  1  0.25000000  0.01477400  0.87887000  1
  Rb  Rb7  1  0.75000000  0.01887800  0.80367400  1
  Rb  Rb8  1  0.75000000  0.02609300  0.39831600  1
  Rb  Rb9  1  0.25000000  0.47390700  0.89831600  1
  Rb  Rb10  1  0.25000000  0.48112200  0.30367400  1
  Rb  Rb11  1  0.75000000  0.48522600  0.37887000  1
  Na  Na12  1  0.25000000  0.68410100  0.08449200  1
  Na  Na13  1  0.75000000  0.81589900  0.58449200  1
  Na  Na14  1  0.25000000  0.18410100  0.41550800  1
  Na  Na15  1  0.75000000  0.31589900  0.91550800  1
  V  V16  1  0.46002800  0.71487900  0.47346600  1
  V  V17  1  0.03997200  0.71487900  0.47346600  1
  V  V18  1  0.54983700  0.74213100  0.26774200  1
  V  V19  1  0.95016300  0.74213100  0.26774200  1
  V  V20  1  0.45016300  0.75786900  0.76774200  1
  V  V21  1  0.04983700  0.75786900  0.76774200  1
  V  V22  1  0.53997200  0.78512100  0.97346600  1
  V  V23  1  0.96002800  0.78512100  0.97346600  1
  V  V24  1  0.46002800  0.21487900  0.02653400  1
  V  V25  1  0.03997200  0.21487900  0.02653400  1
  V  V26  1  0.95016300  0.24213100  0.23225800  1
  V  V27  1  0.54983700  0.24213100  0.23225800  1
  V  V28  1  0.45016300  0.25786900  0.73225800  1
  V  V29  1  0.04983700  0.25786900  0.73225800  1
  V  V30  1  0.96002800  0.28512100  0.52653400  1
  V  V31  1  0.53997200  0.28512100  0.52653400  1
  H  H32  1  0.84354900  0.56611200  0.91466600  1
  H  H33  1  0.65645100  0.56611200  0.91466600  1
  H  H34  1  0.34354900  0.93388800  0.41466600  1
  H  H35  1  0.15645100  0.93388800  0.41466600  1
  H  H36  1  0.84354900  0.06611200  0.58533400  1
  H  H37  1  0.65645100  0.06611200  0.58533400  1
  H  H38  1  0.34354900  0.43388800  0.08533400  1
  H  H39  1  0.15645100  0.43388800  0.08533400  1
  O  O40  1  0.75000000  0.52491000  0.89328200  1
  O  O41  1  0.45262000  0.61104400  0.77226600  1
  O  O42  1  0.04738000  0.61104400  0.77226600  1
  O  O43  1  0.93475000  0.62818300  0.53579900  1
  O  O44  1  0.56525000  0.62818300  0.53579900  1
  O  O45  1  0.47817000  0.64551200  0.98490400  1
  O  O46  1  0.02183000  0.64551200  0.98490400  1
  O  O47  1  0.49006400  0.66988000  0.36564400  1
  O  O48  1  0.00993600  0.66988000  0.36564400  1
  O  O49  1  0.75000000  0.69031700  0.24354700  1
  O  O50  1  0.06966500  0.69589200  0.19251200  1
  O  O51  1  0.43033500  0.69589200  0.19251200  1
  O  O52  1  0.25000000  0.70382100  0.50099300  1
  O  O53  1  0.75000000  0.79617900  0.00099300  1
  O  O54  1  0.56966500  0.80410800  0.69251200  1
  O  O55  1  0.93033500  0.80410800  0.69251200  1
  O  O56  1  0.25000000  0.80968300  0.74354700  1
  O  O57  1  0.50993600  0.83012000  0.86564400  1
  O  O58  1  0.99006400  0.83012000  0.86564400  1
  O  O59  1  0.52183000  0.85448800  0.48490400  1
  O  O60  1  0.97817000  0.85448800  0.48490400  1
  O  O61  1  0.43475000  0.87181700  0.03579900  1
  O  O62  1  0.06525000  0.87181700  0.03579900  1
  O  O63  1  0.95262000  0.88895600  0.27226600  1
  O  O64  1  0.54738000  0.88895600  0.27226600  1
  O  O65  1  0.25000000  0.97509000  0.39328200  1
  O  O66  1  0.75000000  0.02491000  0.60671800  1
  O  O67  1  0.45262000  0.11104400  0.72773400  1
  O  O68  1  0.04738000  0.11104400  0.72773400  1
  O  O69  1  0.93475000  0.12818300  0.96420100  1
  O  O70  1  0.56525000  0.12818300  0.96420100  1
  O  O71  1  0.47817000  0.14551200  0.51509600  1
  O  O72  1  0.02183000  0.14551200  0.51509600  1
  O  O73  1  0.49006400  0.16988000  0.13435600  1
  O  O74  1  0.00993600  0.16988000  0.13435600  1
  O  O75  1  0.75000000  0.19031700  0.25645300  1
  O  O76  1  0.43033500  0.19589200  0.30748800  1
  O  O77  1  0.06966500  0.19589200  0.30748800  1
  O  O78  1  0.25000000  0.20382100  0.99900700  1
  O  O79  1  0.75000000  0.29617900  0.49900700  1
  O  O80  1  0.93033500  0.30410800  0.80748800  1
  O  O81  1  0.56966500  0.30410800  0.80748800  1
  O  O82  1  0.25000000  0.30968300  0.75645300  1
  O  O83  1  0.99006400  0.33012000  0.63435600  1
  O  O84  1  0.50993600  0.33012000  0.63435600  1
  O  O85  1  0.97817000  0.35448800  0.01509600  1
  O  O86  1  0.52183000  0.35448800  0.01509600  1
  O  O87  1  0.43475000  0.37181700  0.46420100  1
  O  O88  1  0.06525000  0.37181700  0.46420100  1
  O  O89  1  0.95262000  0.38895600  0.22773400  1
  O  O90  1  0.54738000  0.38895600  0.22773400  1
  O  O91  1  0.25000000  0.47509000  0.10671800  1
