# generated using pymatgen
data_BiOF
_symmetry_space_group_name_H-M   'P 1'
_cell_length_a   7.66316900
_cell_length_b   10.98215600
_cell_length_c   7.91746515
_cell_angle_alpha   90.00000000
_cell_angle_beta   98.50742053
_cell_angle_gamma   90.00000000
_symmetry_Int_Tables_number   1
_chemical_formula_structural   BiOF
_chemical_formula_sum   'Bi12 O12 F12'
_cell_volume   658.98726221
_cell_formula_units_Z   12
loop_
 _symmetry_equiv_pos_site_id
 _symmetry_equiv_pos_as_xyz
  1  'x, y, z'
loop_
 _atom_site_type_symbol
 _atom_site_label
 _atom_site_symmetry_multiplicity
 _atom_site_fract_x
 _atom_site_fract_y
 _atom_site_fract_z
 _atom_site_occupancy
  Bi  Bi0  1  0.92247700  0.50862700  0.27294100  1
  Bi  Bi1  1  0.92475700  0.21231400  0.98271600  1
  Bi  Bi2  1  0.87246700  0.19336500  0.53071400  1
  Bi  Bi3  1  0.62753300  0.69336500  0.46928600  1
  Bi  Bi4  1  0.57524300  0.71231400  0.01728400  1
  Bi  Bi5  1  0.57752300  0.00862700  0.72705900  1
  Bi  Bi6  1  0.42247700  0.99137300  0.27294100  1
  Bi  Bi7  1  0.42475700  0.28768600  0.98271600  1
  Bi  Bi8  1  0.37246700  0.30663500  0.53071400  1
  Bi  Bi9  1  0.12753300  0.80663500  0.46928600  1
  Bi  Bi10  1  0.07524300  0.78768600  0.01728400  1
  Bi  Bi11  1  0.07752300  0.49137300  0.72705900  1
  O  O12  1  0.89792900  0.60511700  0.51187700  1
  O  O13  1  0.93324500  0.31621300  0.75128600  1
  O  O14  1  0.64762800  0.58916500  0.23107800  1
  O  O15  1  0.85237200  0.08916500  0.76892200  1
  O  O16  1  0.56675500  0.81621300  0.24871400  1
  O  O17  1  0.60207100  0.10511700  0.48812300  1
  O  O18  1  0.39792900  0.89488300  0.51187700  1
  O  O19  1  0.43324500  0.18378700  0.75128600  1
  O  O20  1  0.14762800  0.91083500  0.23107800  1
  O  O21  1  0.35237200  0.41083500  0.76892200  1
  O  O22  1  0.06675500  0.68378700  0.24871400  1
  O  O23  1  0.10207100  0.39488300  0.48812300  1
  F  F24  1  0.79524100  0.86381800  0.00337600  1
  F  F25  1  0.79155200  0.85221400  0.56987400  1
  F  F26  1  0.87061700  0.62291700  0.94344400  1
  F  F27  1  0.62938300  0.12291700  0.05655600  1
  F  F28  1  0.70844800  0.35221400  0.43012600  1
  F  F29  1  0.70475900  0.36381800  0.99662400  1
  F  F30  1  0.29524100  0.63618200  0.00337600  1
  F  F31  1  0.29155200  0.64778600  0.56987400  1
  F  F32  1  0.37061700  0.87708300  0.94344400  1
  F  F33  1  0.12938300  0.37708300  0.05655600  1
  F  F34  1  0.20844800  0.14778600  0.43012600  1
  F  F35  1  0.20475900  0.13618200  0.99662400  1
