# generated using pymatgen
data_Zr3N4
_symmetry_space_group_name_H-M   'P 1'
_cell_length_a   3.46527628
_cell_length_b   3.46527628
_cell_length_c   25.47706003
_cell_angle_alpha   90.00000000
_cell_angle_beta   90.00000000
_cell_angle_gamma   120.00000000
_symmetry_Int_Tables_number   1
_chemical_formula_structural   Zr3N4
_chemical_formula_sum   'Zr9 N12'
_cell_volume   264.94496730
_cell_formula_units_Z   3
loop_
 _symmetry_equiv_pos_site_id
 _symmetry_equiv_pos_as_xyz
  1  'x, y, z'
loop_
 _atom_site_type_symbol
 _atom_site_label
 _atom_site_symmetry_multiplicity
 _atom_site_fract_x
 _atom_site_fract_y
 _atom_site_fract_z
 _atom_site_occupancy
  Zr  Zr0  1  0.00000000  0.00000000  0.22229600  1
  Zr  Zr1  1  0.66666667  0.33333333  0.11103733  1
  Zr  Zr2  1  0.00000000  0.00000000  0.00000000  1
  Zr  Zr3  1  0.66666667  0.33333333  0.55562933  1
  Zr  Zr4  1  0.33333333  0.66666667  0.44437067  1
  Zr  Zr5  1  0.66666667  0.33333333  0.33333333  1
  Zr  Zr6  1  0.33333333  0.66666667  0.88896267  1
  Zr  Zr7  1  0.00000000  0.00000000  0.77770400  1
  Zr  Zr8  1  0.33333333  0.66666667  0.66666667  1
  N  N9  1  0.33333333  0.66666667  0.28840867  1
  N  N10  1  0.66666667  0.33333333  0.20119733  1
  N  N11  1  0.00000000  0.00000000  0.13213600  1
  N  N12  1  0.33333333  0.66666667  0.04492467  1
  N  N13  1  0.00000000  0.00000000  0.62174200  1
  N  N14  1  0.33333333  0.66666667  0.53453067  1
  N  N15  1  0.66666667  0.33333333  0.46546933  1
  N  N16  1  0.00000000  0.00000000  0.37825800  1
  N  N17  1  0.66666667  0.33333333  0.95507533  1
  N  N18  1  0.00000000  0.00000000  0.86786400  1
  N  N19  1  0.33333333  0.66666667  0.79880267  1
  N  N20  1  0.66666667  0.33333333  0.71159133  1
