# generated using pymatgen
data_BaNa4O3
_symmetry_space_group_name_H-M   'P 1'
_cell_length_a   13.14200200
_cell_length_b   5.79703000
_cell_length_c   8.27773501
_cell_angle_alpha   90.00000000
_cell_angle_beta   108.90222006
_cell_angle_gamma   90.00000000
_symmetry_Int_Tables_number   1
_chemical_formula_structural   BaNa4O3
_chemical_formula_sum   'Ba4 Na16 O12'
_cell_volume   596.62734759
_cell_formula_units_Z   4
loop_
 _symmetry_equiv_pos_site_id
 _symmetry_equiv_pos_as_xyz
  1  'x, y, z'
loop_
 _atom_site_type_symbol
 _atom_site_label
 _atom_site_symmetry_multiplicity
 _atom_site_fract_x
 _atom_site_fract_y
 _atom_site_fract_z
 _atom_site_occupancy
  Ba  Ba0  1  0.48533300  0.78016700  0.71440300  1
  Ba  Ba1  1  0.48533300  0.21983300  0.21440300  1
  Ba  Ba2  1  0.98533300  0.28016700  0.71440300  1
  Ba  Ba3  1  0.98533300  0.71983300  0.21440300  1
  Na  Na4  1  0.13187200  0.82505300  0.94261700  1
  Na  Na5  1  0.13187200  0.17494700  0.44261700  1
  Na  Na6  1  0.19139900  0.68647800  0.60378600  1
  Na  Na7  1  0.30015750  0.20811950  0.83278400  1
  Na  Na8  1  0.19139900  0.31352200  0.10378600  1
  Na  Na9  1  0.30015750  0.79188050  0.33278400  1
  Na  Na10  1  0.34169350  0.32669350  0.49245200  1
  Na  Na11  1  0.34169350  0.67330650  0.99245200  1
  Na  Na12  1  0.63187200  0.32505300  0.94261700  1
  Na  Na13  1  0.63187200  0.67494700  0.44261700  1
  Na  Na14  1  0.69139900  0.18647800  0.60378600  1
  Na  Na15  1  0.80015750  0.70811950  0.83278400  1
  Na  Na16  1  0.69139900  0.81352200  0.10378600  1
  Na  Na17  1  0.80015750  0.29188050  0.33278400  1
  Na  Na18  1  0.84169350  0.82669350  0.49245200  1
  Na  Na19  1  0.84169350  0.17330650  0.99245200  1
  O  O20  1  0.17129250  0.48930350  0.83578600  1
  O  O21  1  0.17129250  0.51069650  0.33578600  1
  O  O22  1  0.30098100  0.98977500  0.59389100  1
  O  O23  1  0.46983050  0.46166050  0.93665100  1
  O  O24  1  0.30098100  0.01022500  0.09389100  1
  O  O25  1  0.46983050  0.53833950  0.43665100  1
  O  O26  1  0.67129250  0.98930350  0.83578600  1
  O  O27  1  0.67129250  0.01069650  0.33578600  1
  O  O28  1  0.80098100  0.48977500  0.59389100  1
  O  O29  1  0.96983050  0.96166050  0.93665100  1
  O  O30  1  0.80098100  0.51022500  0.09389100  1
  O  O31  1  0.96983050  0.03833950  0.43665100  1
