# generated using pymatgen
data_Ho2(SeO4)3
_symmetry_space_group_name_H-M   'P 1'
_cell_length_a   9.62561211
_cell_length_b   9.62561211
_cell_length_c   24.64000649
_cell_angle_alpha   90.00000000
_cell_angle_beta   90.00000000
_cell_angle_gamma   120.00000000
_symmetry_Int_Tables_number   1
_chemical_formula_structural   Ho2(SeO4)3
_chemical_formula_sum   'Ho12 Se18 O72'
_cell_volume   1977.09784400
_cell_formula_units_Z   6
loop_
 _symmetry_equiv_pos_site_id
 _symmetry_equiv_pos_as_xyz
  1  'x, y, z'
loop_
 _atom_site_type_symbol
 _atom_site_label
 _atom_site_symmetry_multiplicity
 _atom_site_fract_x
 _atom_site_fract_y
 _atom_site_fract_z
 _atom_site_occupancy
  Ho  Ho0  1  0.33333333  0.66666667  0.02264767  1
  Ho  Ho1  1  0.33333333  0.66666667  0.31068567  1
  Ho  Ho2  1  0.66666667  0.33333333  0.18931433  1
  Ho  Ho3  1  0.00000000  0.00000000  0.14401900  1
  Ho  Ho4  1  0.00000000  0.00000000  0.35598100  1
  Ho  Ho5  1  0.00000000  0.00000000  0.64401900  1
  Ho  Ho6  1  0.33333333  0.66666667  0.52264767  1
  Ho  Ho7  1  0.66666667  0.33333333  0.47735233  1
  Ho  Ho8  1  0.66666667  0.33333333  0.68931433  1
  Ho  Ho9  1  0.66666667  0.33333333  0.97735233  1
  Ho  Ho10  1  0.00000000  0.00000000  0.85598100  1
  Ho  Ho11  1  0.33333333  0.66666667  0.81068567  1
  Se  Se12  1  0.28832000  0.00000000  0.25000000  1
  Se  Se13  1  0.66666667  0.04501333  0.08333333  1
  Se  Se14  1  0.95498667  0.62165333  0.08333333  1
  Se  Se15  1  0.71168000  0.71168000  0.25000000  1
  Se  Se16  1  0.00000000  0.28832000  0.25000000  1
  Se  Se17  1  0.37834667  0.33333333  0.08333333  1
  Se  Se18  1  0.95498667  0.33333333  0.58333333  1
  Se  Se19  1  0.33333333  0.37834667  0.41666667  1
  Se  Se20  1  0.62165333  0.95498667  0.41666667  1
  Se  Se21  1  0.37834667  0.04501333  0.58333333  1
  Se  Se22  1  0.66666667  0.62165333  0.58333333  1
  Se  Se23  1  0.04501333  0.66666667  0.41666667  1
  Se  Se24  1  0.62165333  0.66666667  0.91666667  1
  Se  Se25  1  0.00000000  0.71168000  0.75000000  1
  Se  Se26  1  0.28832000  0.28832000  0.75000000  1
  Se  Se27  1  0.04501333  0.37834667  0.91666667  1
  Se  Se28  1  0.33333333  0.95498667  0.91666667  1
  Se  Se29  1  0.71168000  0.00000000  0.75000000  1
  O  O30  1  0.46808533  0.16126567  0.24269067  1
  O  O31  1  0.17495267  0.96904033  0.19527133  1
  O  O32  1  0.63570700  0.12742100  0.13806200  1
  O  O33  1  0.97348633  0.80141867  0.09064267  1
  O  O34  1  0.30681967  0.83873433  0.25730933  1
  O  O35  1  0.96904033  0.17495267  0.30472867  1
  O  O36  1  0.84161933  0.53924567  0.02860467  1
  O  O37  1  0.50540100  0.86524800  0.07602400  1
  O  O38  1  0.82793233  0.02651367  0.09064267  1
  O  O39  1  0.13475200  0.64015300  0.07602400  1
  O  O40  1  0.87257900  0.50828600  0.13806200  1
  O  O41  1  0.46075433  0.30237367  0.02860467  1
  O  O42  1  0.20591233  0.03095967  0.30472867  1
  O  O43  1  0.79408767  0.82504733  0.19527133  1
  O  O44  1  0.53191467  0.69318033  0.25730933  1
  O  O45  1  0.83873433  0.30681967  0.24269067  1
  O  O46  1  0.16126567  0.46808533  0.25730933  1
  O  O47  1  0.82504733  0.79408767  0.30472867  1
  O  O48  1  0.69762633  0.15838067  0.02860467  1
  O  O49  1  0.35984700  0.49459900  0.07602400  1
  O  O50  1  0.69318033  0.53191467  0.24269067  1
  O  O51  1  0.03095967  0.20591233  0.19527133  1
  O  O52  1  0.49171400  0.36429300  0.13806200  1
  O  O53  1  0.19858133  0.17206767  0.09064267  1
  O  O54  1  0.13475200  0.49459900  0.57602400  1
  O  O55  1  0.84161933  0.30237367  0.52860467  1
  O  O56  1  0.30237367  0.46075433  0.47139533  1
  O  O57  1  0.64015300  0.13475200  0.42397600  1
  O  O58  1  0.97348633  0.17206767  0.59064267  1
  O  O59  1  0.63570700  0.50828600  0.63806200  1
  O  O60  1  0.50828600  0.87257900  0.36193800  1
  O  O61  1  0.17206767  0.19858133  0.40935733  1
  O  O62  1  0.49459900  0.35984700  0.42397600  1
  O  O63  1  0.80141867  0.97348633  0.40935733  1
  O  O64  1  0.53924567  0.84161933  0.47139533  1
  O  O65  1  0.12742100  0.63570700  0.36193800  1
  O  O66  1  0.87257900  0.36429300  0.63806200  1
  O  O67  1  0.46075433  0.15838067  0.52860467  1
  O  O68  1  0.19858133  0.02651367  0.59064267  1
  O  O69  1  0.50540100  0.64015300  0.57602400  1
  O  O70  1  0.82793233  0.80141867  0.59064267  1
  O  O71  1  0.49171400  0.12742100  0.63806200  1
  O  O72  1  0.36429300  0.49171400  0.36193800  1
  O  O73  1  0.02651367  0.82793233  0.40935733  1
  O  O74  1  0.35984700  0.86524800  0.57602400  1
  O  O75  1  0.69762633  0.53924567  0.52860467  1
  O  O76  1  0.15838067  0.69762633  0.47139533  1
  O  O77  1  0.86524800  0.50540100  0.42397600  1
  O  O78  1  0.80141867  0.82793233  0.90935733  1
  O  O79  1  0.50828600  0.63570700  0.86193800  1
  O  O80  1  0.96904033  0.79408767  0.80472867  1
  O  O81  1  0.30681967  0.46808533  0.75730933  1
  O  O82  1  0.64015300  0.50540100  0.92397600  1
  O  O83  1  0.30237367  0.84161933  0.97139533  1
  O  O84  1  0.17495267  0.20591233  0.69527133  1
  O  O85  1  0.83873433  0.53191467  0.74269067  1
  O  O86  1  0.16126567  0.69318033  0.75730933  1
  O  O87  1  0.46808533  0.30681967  0.74269067  1
  O  O88  1  0.20591233  0.17495267  0.80472867  1
  O  O89  1  0.79408767  0.96904033  0.69527133  1
  O  O90  1  0.53924567  0.69762633  0.97139533  1
  O  O91  1  0.12742100  0.49171400  0.86193800  1
  O  O92  1  0.86524800  0.35984700  0.92397600  1
  O  O93  1  0.17206767  0.97348633  0.90935733  1
  O  O94  1  0.49459900  0.13475200  0.92397600  1
  O  O95  1  0.15838067  0.46075433  0.97139533  1
  O  O96  1  0.03095967  0.82504733  0.69527133  1
  O  O97  1  0.69318033  0.16126567  0.74269067  1
  O  O98  1  0.02651367  0.19858133  0.90935733  1
  O  O99  1  0.36429300  0.87257900  0.86193800  1
  O  O100  1  0.82504733  0.03095967  0.80472867  1
  O  O101  1  0.53191467  0.83873433  0.75730933  1
