# generated using pymatgen
data_VOF2
_symmetry_space_group_name_H-M   'P 1'
_cell_length_a   5.23850353
_cell_length_b   5.23850353
_cell_length_c   13.39654100
_cell_angle_alpha   90.00000000
_cell_angle_beta   90.00000000
_cell_angle_gamma   120.00000000
_symmetry_Int_Tables_number   1
_chemical_formula_structural   VOF2
_chemical_formula_sum   'V6 O6 F12'
_cell_volume   318.37414466
_cell_formula_units_Z   6
loop_
 _symmetry_equiv_pos_site_id
 _symmetry_equiv_pos_as_xyz
  1  'x, y, z'
loop_
 _atom_site_type_symbol
 _atom_site_label
 _atom_site_symmetry_multiplicity
 _atom_site_fract_x
 _atom_site_fract_y
 _atom_site_fract_z
 _atom_site_occupancy
  V  V0  1  0.99797600  0.62505800  0.50728600  1
  V  V1  1  0.01834500  0.68012900  0.00695500  1
  V  V2  1  0.37494200  0.37291800  0.84061933  1
  V  V3  1  0.66178400  0.98165500  0.67362167  1
  V  V4  1  0.31987100  0.33821600  0.34028833  1
  V  V5  1  0.62708200  0.00202400  0.17395267  1
  O  O6  1  0.65803800  0.57814500  0.91716200  1
  O  O7  1  0.42185500  0.07989300  0.25049533  1
  O  O8  1  0.92010700  0.34196200  0.58382867  1
  O  O9  1  0.44452700  0.68630900  0.74658800  1
  O  O10  1  0.24178200  0.55547300  0.41325467  1
  O  O11  1  0.31369100  0.75821800  0.07992133  1
  F  F12  1  0.02521500  0.10155900  0.74792300  1
  F  F13  1  0.60248400  0.26780000  0.74921800  1
  F  F14  1  0.66531600  0.39751600  0.41588467  1
  F  F15  1  0.89844100  0.92365600  0.08125633  1
  F  F16  1  0.74751100  0.75359900  0.57601500  1
  F  F17  1  0.00608800  0.25248900  0.24268167  1
  F  F18  1  0.24640100  0.99391200  0.90934833  1
  F  F19  1  0.59038600  0.66126500  0.24885200  1
  F  F20  1  0.07634400  0.97478500  0.41458967  1
  F  F21  1  0.73220000  0.33468400  0.08255133  1
  F  F22  1  0.07087900  0.40961400  0.91551867  1
  F  F23  1  0.33873500  0.92912100  0.58218533  1
