# generated using pymatgen
data_K4N2O5
_symmetry_space_group_name_H-M   'P 1'
_cell_length_a   7.40550200
_cell_length_b   16.04791000
_cell_length_c   7.39843200
_cell_angle_alpha   90.00000000
_cell_angle_beta   90.00000000
_cell_angle_gamma   90.00000000
_symmetry_Int_Tables_number   1
_chemical_formula_structural   K4N2O5
_chemical_formula_sum   'K16 N8 O20'
_cell_volume   879.25059349
_cell_formula_units_Z   4
loop_
 _symmetry_equiv_pos_site_id
 _symmetry_equiv_pos_as_xyz
  1  'x, y, z'
loop_
 _atom_site_type_symbol
 _atom_site_label
 _atom_site_symmetry_multiplicity
 _atom_site_fract_x
 _atom_site_fract_y
 _atom_site_fract_z
 _atom_site_occupancy
  K  K0  1  0.50000000  0.16238300  0.00000000  1
  K  K1  1  0.75000000  0.00000000  0.25000000  1
  K  K2  1  0.25000000  0.00000000  0.25000000  1
  K  K3  1  0.50000000  0.33761700  0.50000000  1
  K  K4  1  0.00000000  0.33761700  0.00000000  1
  K  K5  1  0.75000000  0.00000000  0.75000000  1
  K  K6  1  0.25000000  0.00000000  0.75000000  1
  K  K7  1  0.00000000  0.16238300  0.50000000  1
  K  K8  1  0.00000000  0.66238300  0.00000000  1
  K  K9  1  0.25000000  0.50000000  0.25000000  1
  K  K10  1  0.75000000  0.50000000  0.25000000  1
  K  K11  1  0.00000000  0.83761700  0.50000000  1
  K  K12  1  0.50000000  0.83761700  0.00000000  1
  K  K13  1  0.25000000  0.50000000  0.75000000  1
  K  K14  1  0.75000000  0.50000000  0.75000000  1
  K  K15  1  0.50000000  0.66238300  0.50000000  1
  N  N16  1  0.50000000  0.37951000  0.00000000  1
  N  N17  1  0.00000000  0.12049000  0.00000000  1
  N  N18  1  0.50000000  0.12049000  0.50000000  1
  N  N19  1  0.00000000  0.37951000  0.50000000  1
  N  N20  1  0.00000000  0.87951000  0.00000000  1
  N  N21  1  0.50000000  0.62049000  0.00000000  1
  N  N22  1  0.00000000  0.62049000  0.50000000  1
  N  N23  1  0.50000000  0.87951000  0.50000000  1
  O  O24  1  0.60534600  0.33714400  0.10102600  1
  O  O25  1  0.50000000  0.00000000  0.00000000  1
  O  O26  1  0.60534600  0.16285600  0.60102600  1
  O  O27  1  0.39465400  0.16285600  0.39897400  1
  O  O28  1  0.89465400  0.16285600  0.10102600  1
  O  O29  1  0.10534600  0.33714400  0.39897400  1
  O  O30  1  0.00000000  0.00000000  0.50000000  1
  O  O31  1  0.39465400  0.33714400  0.89897400  1
  O  O32  1  0.89465400  0.33714400  0.60102600  1
  O  O33  1  0.10534600  0.16285600  0.89897400  1
  O  O34  1  0.10534600  0.83714400  0.10102600  1
  O  O35  1  0.00000000  0.50000000  0.00000000  1
  O  O36  1  0.10534600  0.66285600  0.60102600  1
  O  O37  1  0.89465400  0.66285600  0.39897400  1
  O  O38  1  0.39465400  0.66285600  0.10102600  1
  O  O39  1  0.60534600  0.83714400  0.39897400  1
  O  O40  1  0.50000000  0.50000000  0.50000000  1
  O  O41  1  0.89465400  0.83714400  0.89897400  1
  O  O42  1  0.39465400  0.83714400  0.60102600  1
  O  O43  1  0.60534600  0.66285600  0.89897400  1
