# generated using pymatgen
data_LiV(PO4)2
_symmetry_space_group_name_H-M   'P 1'
_cell_length_a   7.90360000
_cell_length_b   5.24175400
_cell_length_c   6.68144088
_cell_angle_alpha   90.00000000
_cell_angle_beta   93.52835023
_cell_angle_gamma   90.00000000
_symmetry_Int_Tables_number   1
_chemical_formula_structural   LiV(PO4)2
_chemical_formula_sum   'Li2 V2 P4 O16'
_cell_volume   276.27889976
_cell_formula_units_Z   2
loop_
 _symmetry_equiv_pos_site_id
 _symmetry_equiv_pos_as_xyz
  1  'x, y, z'
loop_
 _atom_site_type_symbol
 _atom_site_label
 _atom_site_symmetry_multiplicity
 _atom_site_fract_x
 _atom_site_fract_y
 _atom_site_fract_z
 _atom_site_occupancy
  Li  Li0  1  0.50000000  0.00000000  0.00000000  1
  Li  Li1  1  0.00000000  0.50000000  0.00000000  1
  V  V2  1  0.50000000  0.00000000  0.50000000  1
  V  V3  1  0.00000000  0.50000000  0.50000000  1
  P  P4  1  0.84434700  0.00000000  0.26448100  1
  P  P5  1  0.15565300  0.00000000  0.73551900  1
  P  P6  1  0.34434700  0.50000000  0.26448100  1
  P  P7  1  0.65565300  0.50000000  0.73551900  1
  O  O8  1  0.25125500  0.00000000  0.93632800  1
  O  O9  1  0.27416400  0.00000000  0.55647500  1
  O  O10  1  0.46091550  0.25905450  0.29769700  1
  O  O11  1  0.46091550  0.74094550  0.29769700  1
  O  O12  1  0.53908450  0.25905450  0.70230300  1
  O  O13  1  0.53908450  0.74094550  0.70230300  1
  O  O14  1  0.72583600  0.00000000  0.44352500  1
  O  O15  1  0.74874500  0.00000000  0.06367200  1
  O  O16  1  0.75125500  0.50000000  0.93632800  1
  O  O17  1  0.77416400  0.50000000  0.55647500  1
  O  O18  1  0.96091550  0.75905450  0.29769700  1
  O  O19  1  0.96091550  0.24094550  0.29769700  1
  O  O20  1  0.03908450  0.75905450  0.70230300  1
  O  O21  1  0.03908450  0.24094550  0.70230300  1
  O  O22  1  0.22583600  0.50000000  0.44352500  1
  O  O23  1  0.24874500  0.50000000  0.06367200  1
