# generated using pymatgen
data_Li2Mg3Ti6O16
_symmetry_space_group_name_H-M   'P 1'
_cell_length_a   8.47021200
_cell_length_b   8.47538700
_cell_length_c   8.47210573
_cell_angle_alpha   90.00000000
_cell_angle_beta   90.36692221
_cell_angle_gamma   90.00000000
_symmetry_Int_Tables_number   1
_chemical_formula_structural   Li2Mg3Ti6O16
_chemical_formula_sum   'Li4 Mg6 Ti12 O32'
_cell_volume   608.18580502
_cell_formula_units_Z   2
loop_
 _symmetry_equiv_pos_site_id
 _symmetry_equiv_pos_as_xyz
  1  'x, y, z'
loop_
 _atom_site_type_symbol
 _atom_site_label
 _atom_site_symmetry_multiplicity
 _atom_site_fract_x
 _atom_site_fract_y
 _atom_site_fract_z
 _atom_site_occupancy
  Li  Li0  1  0.25315900  0.49550900  0.99774500  1
  Li  Li1  1  0.37413100  0.62437700  0.37434200  1
  Li  Li2  1  0.62586900  0.12437700  0.62565800  1
  Li  Li3  1  0.74684100  0.99550900  0.00225500  1
  Mg  Mg4  1  0.75295500  0.50163900  0.50435300  1
  Mg  Mg5  1  0.99757200  0.75555300  0.25299500  1
  Mg  Mg6  1  0.00242800  0.25555300  0.74700500  1
  Mg  Mg7  1  0.24704500  0.00163900  0.49564700  1
  Mg  Mg8  1  0.49458300  0.24814300  0.24609300  1
  Mg  Mg9  1  0.50541700  0.74814300  0.75390700  1
  Ti  Ti10  1  0.86910200  0.13317300  0.36605800  1
  Ti  Ti11  1  0.87655800  0.88419600  0.64002100  1
  Ti  Ti12  1  0.88753500  0.62659700  0.88715300  1
  Ti  Ti13  1  0.11246500  0.12659700  0.11284700  1
  Ti  Ti14  1  0.12344200  0.38419600  0.35997900  1
  Ti  Ti15  1  0.13089800  0.63317300  0.63394200  1
  Ti  Ti16  1  0.36543900  0.86320200  0.11783000  1
  Ti  Ti17  1  0.37456100  0.11958800  0.87140600  1
  Ti  Ti18  1  0.38064400  0.37516000  0.62347300  1
  Ti  Ti19  1  0.61935600  0.87516000  0.37652700  1
  Ti  Ti20  1  0.62543900  0.61958800  0.12859400  1
  Ti  Ti21  1  0.63456100  0.36320200  0.88217000  1
  O  O22  1  0.85271300  0.39379900  0.85828800  1
  O  O23  1  0.85952000  0.88944700  0.38714100  1
  O  O24  1  0.85799100  0.63851500  0.10655300  1
  O  O25  1  0.86167700  0.85474400  0.85381900  1
  O  O26  1  0.87974600  0.10561800  0.61189700  1
  O  O27  1  0.89152200  0.35399600  0.38914100  1
  O  O28  1  0.88932000  0.63869000  0.63618900  1
  O  O29  1  0.89483000  0.11196300  0.14287300  1
  O  O30  1  0.10517000  0.61196300  0.85712700  1
  O  O31  1  0.11068000  0.13869000  0.36381100  1
  O  O32  1  0.10847800  0.85399600  0.61085900  1
  O  O33  1  0.12025400  0.60561800  0.38810300  1
  O  O34  1  0.13832300  0.35474400  0.14618100  1
  O  O35  1  0.14200900  0.13851500  0.89344700  1
  O  O36  1  0.14048000  0.38944700  0.61285900  1
  O  O37  1  0.14728700  0.89379900  0.14171200  1
  O  O38  1  0.35779900  0.61231300  0.62763500  1
  O  O39  1  0.36284600  0.11135400  0.10953800  1
  O  O40  1  0.36032000  0.37003700  0.39530000  1
  O  O41  1  0.37048400  0.13773300  0.64300000  1
  O  O42  1  0.38846600  0.89539600  0.89088200  1
  O  O43  1  0.39057100  0.64486800  0.12220700  1
  O  O44  1  0.38982600  0.36020800  0.85775900  1
  O  O45  1  0.39507100  0.87918600  0.36215300  1
  O  O46  1  0.60492900  0.37918600  0.63784700  1
  O  O47  1  0.61017400  0.86020800  0.14224100  1
  O  O48  1  0.60942900  0.14486800  0.87779300  1
  O  O49  1  0.61153400  0.39539600  0.10911800  1
  O  O50  1  0.62951600  0.63773300  0.35700000  1
  O  O51  1  0.63968000  0.87003700  0.60470000  1
  O  O52  1  0.63715400  0.61135400  0.89046200  1
  O  O53  1  0.64220100  0.11231300  0.37236500  1
