# generated using pymatgen
data_Li4Sn(PO3)6
_symmetry_space_group_name_H-M   'P 1'
_cell_length_a   12.42247800
_cell_length_b   8.10287000
_cell_length_c   14.49811633
_cell_angle_alpha   90.00000000
_cell_angle_beta   93.96081095
_cell_angle_gamma   90.00000000
_symmetry_Int_Tables_number   1
_chemical_formula_structural   Li4Sn(PO3)6
_chemical_formula_sum   'Li16 Sn4 P24 O72'
_cell_volume   1455.86178769
_cell_formula_units_Z   4
loop_
 _symmetry_equiv_pos_site_id
 _symmetry_equiv_pos_as_xyz
  1  'x, y, z'
loop_
 _atom_site_type_symbol
 _atom_site_label
 _atom_site_symmetry_multiplicity
 _atom_site_fract_x
 _atom_site_fract_y
 _atom_site_fract_z
 _atom_site_occupancy
  Li  Li0  1  0.17673700  0.85592100  0.93064300  1
  Li  Li1  1  0.17673700  0.14407900  0.43064300  1
  Li  Li2  1  0.33093500  0.90210700  0.55123700  1
  Li  Li3  1  0.33093500  0.09789300  0.05123700  1
  Li  Li4  1  0.66906500  0.90210700  0.94876300  1
  Li  Li5  1  0.66906500  0.09789300  0.44876300  1
  Li  Li6  1  0.82326300  0.85592100  0.56935700  1
  Li  Li7  1  0.82326300  0.14407900  0.06935700  1
  Li  Li8  1  0.67673700  0.35592100  0.93064300  1
  Li  Li9  1  0.67673700  0.64407900  0.43064300  1
  Li  Li10  1  0.83093500  0.40210700  0.55123700  1
  Li  Li11  1  0.83093500  0.59789300  0.05123700  1
  Li  Li12  1  0.16906500  0.40210700  0.94876300  1
  Li  Li13  1  0.16906500  0.59789300  0.44876300  1
  Li  Li14  1  0.32326300  0.35592100  0.56935700  1
  Li  Li15  1  0.32326300  0.64407900  0.06935700  1
  Sn  Sn16  1  0.50000000  0.12879600  0.75000000  1
  Sn  Sn17  1  0.50000000  0.87120400  0.25000000  1
  Sn  Sn18  1  0.00000000  0.62879600  0.75000000  1
  Sn  Sn19  1  0.00000000  0.37120400  0.25000000  1
  P  P20  1  0.09259650  0.94891550  0.60832800  1
  P  P21  1  0.09259650  0.05108450  0.10832800  1
  P  P22  1  0.21753600  0.14833000  0.74300900  1
  P  P23  1  0.21753600  0.85167000  0.24300900  1
  P  P24  1  0.42333200  0.80668700  0.89785700  1
  P  P25  1  0.42333200  0.19331300  0.39785700  1
  P  P26  1  0.57666800  0.80668700  0.60214300  1
  P  P27  1  0.57666800  0.19331300  0.10214300  1
  P  P28  1  0.78246400  0.14833000  0.75699100  1
  P  P29  1  0.78246400  0.85167000  0.25699100  1
  P  P30  1  0.90740350  0.94891550  0.89167200  1
  P  P31  1  0.90740350  0.05108450  0.39167200  1
  P  P32  1  0.59259650  0.44891550  0.60832800  1
  P  P33  1  0.59259650  0.55108450  0.10832800  1
  P  P34  1  0.71753600  0.64833000  0.74300900  1
  P  P35  1  0.71753600  0.35167000  0.24300900  1
  P  P36  1  0.92333200  0.30668700  0.89785700  1
  P  P37  1  0.92333200  0.69331300  0.39785700  1
  P  P38  1  0.07666800  0.30668700  0.60214300  1
  P  P39  1  0.07666800  0.69331300  0.10214300  1
  P  P40  1  0.28246400  0.64833000  0.75699100  1
  P  P41  1  0.28246400  0.35167000  0.25699100  1
  P  P42  1  0.40740350  0.44891550  0.89167200  1
  P  P43  1  0.40740350  0.55108450  0.39167200  1
  O  O44  1  0.14974700  0.98299000  0.71044100  1
  O  O45  1  0.17448500  0.92617600  0.53822400  1
  O  O46  1  0.14974700  0.01701000  0.21044100  1
  O  O47  1  0.17448500  0.07382400  0.03822400  1
  O  O48  1  0.23133700  0.14587700  0.84524400  1
  O  O49  1  0.23133700  0.85412300  0.34524400  1
  O  O50  1  0.33777850  0.84101050  0.96415400  1
  O  O51  1  0.31361100  0.16287000  0.68408300  1
  O  O52  1  0.36816700  0.79335700  0.79241100  1
  O  O53  1  0.33777850  0.15898950  0.46415400  1
  O  O54  1  0.31361100  0.83713000  0.18408300  1
  O  O55  1  0.36816700  0.20664300  0.29241100  1
  O  O56  1  0.47025900  0.62150500  0.91309900  1
  O  O57  1  0.49469850  0.32271950  0.87935700  1
  O  O58  1  0.51900100  0.91823000  0.89552800  1
  O  O59  1  0.47025900  0.37849500  0.41309900  1
  O  O60  1  0.48099900  0.91823000  0.60447200  1
  O  O61  1  0.49469850  0.67728050  0.37935700  1
  O  O62  1  0.50530150  0.32271950  0.62064300  1
  O  O63  1  0.51900100  0.08177000  0.39552800  1
  O  O64  1  0.52974100  0.62150500  0.58690100  1
  O  O65  1  0.48099900  0.08177000  0.10447200  1
  O  O66  1  0.50530150  0.67728050  0.12064300  1
  O  O67  1  0.52974100  0.37849500  0.08690100  1
  O  O68  1  0.63183300  0.79335700  0.70758900  1
  O  O69  1  0.68638900  0.16287000  0.81591700  1
  O  O70  1  0.66222150  0.84101050  0.53584600  1
  O  O71  1  0.63183300  0.20664300  0.20758900  1
  O  O72  1  0.68638900  0.83713000  0.31591700  1
  O  O73  1  0.66222150  0.15898950  0.03584600  1
  O  O74  1  0.76866300  0.14587700  0.65475600  1
  O  O75  1  0.76866300  0.85412300  0.15475600  1
  O  O76  1  0.82551500  0.92617600  0.96177600  1
  O  O77  1  0.85025300  0.98299000  0.78955900  1
  O  O78  1  0.82551500  0.07382400  0.46177600  1
  O  O79  1  0.85025300  0.01701000  0.28955900  1
  O  O80  1  0.64974700  0.48299000  0.71044100  1
  O  O81  1  0.67448500  0.42617600  0.53822400  1
  O  O82  1  0.64974700  0.51701000  0.21044100  1
  O  O83  1  0.67448500  0.57382400  0.03822400  1
  O  O84  1  0.73133700  0.64587700  0.84524400  1
  O  O85  1  0.73133700  0.35412300  0.34524400  1
  O  O86  1  0.83777850  0.34101050  0.96415400  1
  O  O87  1  0.81361100  0.66287000  0.68408300  1
  O  O88  1  0.86816700  0.29335700  0.79241100  1
  O  O89  1  0.83777850  0.65898950  0.46415400  1
  O  O90  1  0.81361100  0.33713000  0.18408300  1
  O  O91  1  0.86816700  0.70664300  0.29241100  1
  O  O92  1  0.97025900  0.12150500  0.91309900  1
  O  O93  1  0.99469850  0.82271950  0.87935700  1
  O  O94  1  0.01900100  0.41823000  0.89552800  1
  O  O95  1  0.97025900  0.87849500  0.41309900  1
  O  O96  1  0.98099900  0.41823000  0.60447200  1
  O  O97  1  0.99469850  0.17728050  0.37935700  1
  O  O98  1  0.00530150  0.82271950  0.62064300  1
  O  O99  1  0.01900100  0.58177000  0.39552800  1
  O  O100  1  0.02974100  0.12150500  0.58690100  1
  O  O101  1  0.98099900  0.58177000  0.10447200  1
  O  O102  1  0.00530150  0.17728050  0.12064300  1
  O  O103  1  0.02974100  0.87849500  0.08690100  1
  O  O104  1  0.13183300  0.29335700  0.70758900  1
  O  O105  1  0.18638900  0.66287000  0.81591700  1
  O  O106  1  0.16222150  0.34101050  0.53584600  1
  O  O107  1  0.13183300  0.70664300  0.20758900  1
  O  O108  1  0.18638900  0.33713000  0.31591700  1
  O  O109  1  0.16222150  0.65898950  0.03584600  1
  O  O110  1  0.26866300  0.64587700  0.65475600  1
  O  O111  1  0.26866300  0.35412300  0.15475600  1
  O  O112  1  0.32551500  0.42617600  0.96177600  1
  O  O113  1  0.35025300  0.48299000  0.78955900  1
  O  O114  1  0.32551500  0.57382400  0.46177600  1
  O  O115  1  0.35025300  0.51701000  0.28955900  1
