# generated using pymatgen
data_Li3Sb2(PO4)3
_symmetry_space_group_name_H-M   'P 1'
_cell_length_a   15.04602600
_cell_length_b   9.27496800
_cell_length_c   9.07987956
_cell_angle_alpha   90.00000000
_cell_angle_beta   121.61547125
_cell_angle_gamma   90.00000000
_symmetry_Int_Tables_number   1
_chemical_formula_structural   Li3Sb2(PO4)3
_chemical_formula_sum   'Li12 Sb8 P12 O48'
_cell_volume   1079.05238819
_cell_formula_units_Z   4
loop_
 _symmetry_equiv_pos_site_id
 _symmetry_equiv_pos_as_xyz
  1  'x, y, z'
loop_
 _atom_site_type_symbol
 _atom_site_label
 _atom_site_symmetry_multiplicity
 _atom_site_fract_x
 _atom_site_fract_y
 _atom_site_fract_z
 _atom_site_occupancy
  Li  Li0  1  0.82073500  0.64103800  0.71432300  1
  Li  Li1  1  0.00000000  0.11743300  0.25000000  1
  Li  Li2  1  0.17926500  0.64103800  0.78567700  1
  Li  Li3  1  0.82073500  0.35896200  0.21432300  1
  Li  Li4  1  0.00000000  0.88256700  0.75000000  1
  Li  Li5  1  0.17926500  0.35896200  0.28567700  1
  Li  Li6  1  0.32073500  0.14103800  0.71432300  1
  Li  Li7  1  0.50000000  0.61743300  0.25000000  1
  Li  Li8  1  0.67926500  0.14103800  0.78567700  1
  Li  Li9  1  0.32073500  0.85896200  0.21432300  1
  Li  Li10  1  0.50000000  0.38256700  0.75000000  1
  Li  Li11  1  0.67926500  0.85896200  0.28567700  1
  Sb  Sb12  1  0.90165350  0.24396850  0.85563900  1
  Sb  Sb13  1  0.09834650  0.24396850  0.64436100  1
  Sb  Sb14  1  0.90165350  0.75603150  0.35563900  1
  Sb  Sb15  1  0.09834650  0.75603150  0.14436100  1
  Sb  Sb16  1  0.40165350  0.74396850  0.85563900  1
  Sb  Sb17  1  0.59834650  0.74396850  0.64436100  1
  Sb  Sb18  1  0.40165350  0.25603150  0.35563900  1
  Sb  Sb19  1  0.59834650  0.25603150  0.14436100  1
  P  P20  1  0.35308300  0.40081000  0.92672900  1
  P  P21  1  0.00000000  0.41668500  0.25000000  1
  P  P22  1  0.35308300  0.59919000  0.42672900  1
  P  P23  1  0.64691700  0.40081000  0.57327100  1
  P  P24  1  0.00000000  0.58331500  0.75000000  1
  P  P25  1  0.64691700  0.59919000  0.07327100  1
  P  P26  1  0.85308300  0.90081000  0.92672900  1
  P  P27  1  0.50000000  0.91668500  0.25000000  1
  P  P28  1  0.85308300  0.09919000  0.42672900  1
  P  P29  1  0.14691700  0.90081000  0.57327100  1
  P  P30  1  0.50000000  0.08331500  0.75000000  1
  P  P31  1  0.14691700  0.09919000  0.07327100  1
  O  O32  1  0.31844150  0.56307250  0.88319200  1
  O  O33  1  0.11636450  0.87163550  0.38631200  1
  O  O34  1  0.06252900  0.50162900  0.18902300  1
  O  O35  1  0.26246100  0.30081000  0.79315200  1
  O  O36  1  0.94570700  0.87046500  0.90226000  1
  O  O37  1  0.08629000  0.31427300  0.39641200  1
  O  O38  1  0.91371000  0.31427300  0.10358800  1
  O  O39  1  0.05429300  0.87046500  0.59774000  1
  O  O40  1  0.31844150  0.43692750  0.38319200  1
  O  O41  1  0.73753900  0.30081000  0.70684800  1
  O  O42  1  0.93747100  0.50162900  0.31097700  1
  O  O43  1  0.88363550  0.87163550  0.11368800  1
  O  O44  1  0.11636450  0.12836450  0.88631200  1
  O  O45  1  0.06252900  0.49837100  0.68902300  1
  O  O46  1  0.26246100  0.69919000  0.29315200  1
  O  O47  1  0.68155850  0.56307250  0.61680800  1
  O  O48  1  0.94570700  0.12953500  0.40226000  1
  O  O49  1  0.08629000  0.68572700  0.89641200  1
  O  O50  1  0.91371000  0.68572700  0.60358800  1
  O  O51  1  0.05429300  0.12953500  0.09774000  1
  O  O52  1  0.73753900  0.69919000  0.20684800  1
  O  O53  1  0.93747100  0.49837100  0.81097700  1
  O  O54  1  0.88363550  0.12836450  0.61368800  1
  O  O55  1  0.68155850  0.43692750  0.11680800  1
  O  O56  1  0.81844150  0.06307250  0.88319200  1
  O  O57  1  0.61636450  0.37163550  0.38631200  1
  O  O58  1  0.56252900  0.00162900  0.18902300  1
  O  O59  1  0.76246100  0.80081000  0.79315200  1
  O  O60  1  0.44570700  0.37046500  0.90226000  1
  O  O61  1  0.58629000  0.81427300  0.39641200  1
  O  O62  1  0.41371000  0.81427300  0.10358800  1
  O  O63  1  0.55429300  0.37046500  0.59774000  1
  O  O64  1  0.81844150  0.93692750  0.38319200  1
  O  O65  1  0.23753900  0.80081000  0.70684800  1
  O  O66  1  0.43747100  0.00162900  0.31097700  1
  O  O67  1  0.38363550  0.37163550  0.11368800  1
  O  O68  1  0.61636450  0.62836450  0.88631200  1
  O  O69  1  0.56252900  0.99837100  0.68902300  1
  O  O70  1  0.76246100  0.19919000  0.29315200  1
  O  O71  1  0.18155850  0.06307250  0.61680800  1
  O  O72  1  0.44570700  0.62953500  0.40226000  1
  O  O73  1  0.58629000  0.18572700  0.89641200  1
  O  O74  1  0.41371000  0.18572700  0.60358800  1
  O  O75  1  0.55429300  0.62953500  0.09774000  1
  O  O76  1  0.23753900  0.19919000  0.20684800  1
  O  O77  1  0.43747100  0.99837100  0.81097700  1
  O  O78  1  0.38363550  0.62836450  0.61368800  1
  O  O79  1  0.18155850  0.93692750  0.11680800  1
