# generated using pymatgen
data_Gd3NbO7
_symmetry_space_group_name_H-M   'P 1'
_cell_length_a   7.44955800
_cell_length_b   10.78145600
_cell_length_c   7.60520200
_cell_angle_alpha   90.00000000
_cell_angle_beta   90.00000000
_cell_angle_gamma   90.00000000
_symmetry_Int_Tables_number   1
_chemical_formula_structural   Gd3NbO7
_chemical_formula_sum   'Gd12 Nb4 O28'
_cell_volume   610.82763111
_cell_formula_units_Z   4
loop_
 _symmetry_equiv_pos_site_id
 _symmetry_equiv_pos_as_xyz
  1  'x, y, z'
loop_
 _atom_site_type_symbol
 _atom_site_label
 _atom_site_symmetry_multiplicity
 _atom_site_fract_x
 _atom_site_fract_y
 _atom_site_fract_z
 _atom_site_occupancy
  Gd  Gd0  1  0.28972200  0.22911800  0.25000000  1
  Gd  Gd1  1  0.71027800  0.22911800  0.75000000  1
  Gd  Gd2  1  0.00000000  0.00000000  0.00000000  1
  Gd  Gd3  1  0.00000000  0.00000000  0.50000000  1
  Gd  Gd4  1  0.28972200  0.77088200  0.25000000  1
  Gd  Gd5  1  0.71027800  0.77088200  0.75000000  1
  Gd  Gd6  1  0.78972200  0.72911800  0.25000000  1
  Gd  Gd7  1  0.21027800  0.72911800  0.75000000  1
  Gd  Gd8  1  0.50000000  0.50000000  0.00000000  1
  Gd  Gd9  1  0.50000000  0.50000000  0.50000000  1
  Gd  Gd10  1  0.78972200  0.27088200  0.25000000  1
  Gd  Gd11  1  0.21027800  0.27088200  0.75000000  1
  Nb  Nb12  1  0.50000000  0.00000000  0.00000000  1
  Nb  Nb13  1  0.50000000  0.00000000  0.50000000  1
  Nb  Nb14  1  0.00000000  0.50000000  0.00000000  1
  Nb  Nb15  1  0.00000000  0.50000000  0.50000000  1
  O  O16  1  0.47739600  0.36819400  0.75000000  1
  O  O17  1  0.52260400  0.36819400  0.25000000  1
  O  O18  1  0.30857950  0.12885750  0.53737600  1
  O  O19  1  0.69142050  0.12885750  0.03737600  1
  O  O20  1  0.69142050  0.12885750  0.46262400  1
  O  O21  1  0.30857950  0.12885750  0.96262400  1
  O  O22  1  0.58068700  0.00000000  0.75000000  1
  O  O23  1  0.41931300  0.00000000  0.25000000  1
  O  O24  1  0.30857950  0.87114250  0.96262400  1
  O  O25  1  0.69142050  0.87114250  0.03737600  1
  O  O26  1  0.30857950  0.87114250  0.53737600  1
  O  O27  1  0.69142050  0.87114250  0.46262400  1
  O  O28  1  0.47739600  0.63180600  0.75000000  1
  O  O29  1  0.52260400  0.63180600  0.25000000  1
  O  O30  1  0.97739600  0.86819400  0.75000000  1
  O  O31  1  0.02260400  0.86819400  0.25000000  1
  O  O32  1  0.80857950  0.62885750  0.53737600  1
  O  O33  1  0.19142050  0.62885750  0.03737600  1
  O  O34  1  0.19142050  0.62885750  0.46262400  1
  O  O35  1  0.80857950  0.62885750  0.96262400  1
  O  O36  1  0.08068700  0.50000000  0.75000000  1
  O  O37  1  0.91931300  0.50000000  0.25000000  1
  O  O38  1  0.80857950  0.37114250  0.96262400  1
  O  O39  1  0.19142050  0.37114250  0.03737600  1
  O  O40  1  0.80857950  0.37114250  0.53737600  1
  O  O41  1  0.19142050  0.37114250  0.46262400  1
  O  O42  1  0.97739600  0.13180600  0.75000000  1
  O  O43  1  0.02260400  0.13180600  0.25000000  1
