# generated using pymatgen
data_V(Bi5O8)5
_symmetry_space_group_name_H-M   'P 1'
_cell_length_a   14.73327200
_cell_length_b   10.40724200
_cell_length_c   14.73432942
_cell_angle_alpha   90.00000000
_cell_angle_beta   90.03287026
_cell_angle_gamma   90.00000000
_symmetry_Int_Tables_number   1
_chemical_formula_structural   V(Bi5O8)5
_chemical_formula_sum   'V2 Bi50 O80'
_cell_volume   2259.25454172
_cell_formula_units_Z   2
loop_
 _symmetry_equiv_pos_site_id
 _symmetry_equiv_pos_as_xyz
  1  'x, y, z'
loop_
 _atom_site_type_symbol
 _atom_site_label
 _atom_site_symmetry_multiplicity
 _atom_site_fract_x
 _atom_site_fract_y
 _atom_site_fract_z
 _atom_site_occupancy
  V  V0  1  0.50000000  0.49902000  0.00000000  1
  V  V1  1  0.00000000  0.99902000  0.00000000  1
  Bi  Bi2  1  0.07286300  0.01787500  0.25131300  1
  Bi  Bi3  1  0.25175950  0.97523250  0.07293600  1
  Bi  Bi4  1  0.32630750  0.31725150  0.15218800  1
  Bi  Bi5  1  0.34898400  0.67476200  0.17173800  1
  Bi  Bi6  1  0.43062450  0.01372750  0.25226500  1
  Bi  Bi7  1  0.25318400  0.99173400  0.43132300  1
  Bi  Bi8  1  0.57669250  0.81907750  0.09865900  1
  Bi  Bi9  1  0.60306250  0.17815850  0.07765700  1
  Bi  Bi10  1  0.41487900  0.32089800  0.40410300  1
  Bi  Bi11  1  0.40813400  0.68164500  0.41607200  1
  Bi  Bi12  1  0.65274650  0.18126150  0.33505900  1
  Bi  Bi13  1  0.33695450  0.82586950  0.65221300  1
  Bi  Bi14  1  0.50000000  0.00301500  0.50000000  1
  Bi  Bi15  1  0.66304550  0.82586950  0.34778700  1
  Bi  Bi16  1  0.34725350  0.18126150  0.66494100  1
  Bi  Bi17  1  0.58512100  0.32089800  0.59589700  1
  Bi  Bi18  1  0.59186600  0.68164500  0.58392800  1
  Bi  Bi19  1  0.39693750  0.17815850  0.92234300  1
  Bi  Bi20  1  0.42330750  0.81907750  0.90134100  1
  Bi  Bi21  1  0.74681600  0.99173400  0.56867700  1
  Bi  Bi22  1  0.56937550  0.01372750  0.74773500  1
  Bi  Bi23  1  0.65101600  0.67476200  0.82826200  1
  Bi  Bi24  1  0.67369250  0.31725150  0.84781200  1
  Bi  Bi25  1  0.92713700  0.01787500  0.74868700  1
  Bi  Bi26  1  0.74824050  0.97523250  0.92706400  1
  Bi  Bi27  1  0.57286300  0.51787500  0.25131300  1
  Bi  Bi28  1  0.75175950  0.47523250  0.07293600  1
  Bi  Bi29  1  0.82630750  0.81725150  0.15218800  1
  Bi  Bi30  1  0.84898400  0.17476200  0.17173800  1
  Bi  Bi31  1  0.93062450  0.51372750  0.25226500  1
  Bi  Bi32  1  0.75318400  0.49173400  0.43132300  1
  Bi  Bi33  1  0.07669250  0.31907750  0.09865900  1
  Bi  Bi34  1  0.10306250  0.67815850  0.07765700  1
  Bi  Bi35  1  0.91487900  0.82089800  0.40410300  1
  Bi  Bi36  1  0.90813400  0.18164500  0.41607200  1
  Bi  Bi37  1  0.15274650  0.68126150  0.33505900  1
  Bi  Bi38  1  0.83695450  0.32586950  0.65221300  1
  Bi  Bi39  1  0.00000000  0.50301500  0.50000000  1
  Bi  Bi40  1  0.16304550  0.32586950  0.34778700  1
  Bi  Bi41  1  0.84725350  0.68126150  0.66494100  1
  Bi  Bi42  1  0.08512100  0.82089800  0.59589700  1
  Bi  Bi43  1  0.09186600  0.18164500  0.58392800  1
  Bi  Bi44  1  0.89693750  0.67815850  0.92234300  1
  Bi  Bi45  1  0.92330750  0.31907750  0.90134100  1
  Bi  Bi46  1  0.24681600  0.49173400  0.56867700  1
  Bi  Bi47  1  0.06937550  0.51372750  0.74773500  1
  Bi  Bi48  1  0.15101600  0.17476200  0.82826200  1
  Bi  Bi49  1  0.17369250  0.81725150  0.84781200  1
  Bi  Bi50  1  0.42713700  0.51787500  0.74868700  1
  Bi  Bi51  1  0.24824050  0.47523250  0.92706400  1
  O  O52  1  0.09721900  0.09622300  0.00016000  1
  O  O53  1  0.79790800  0.79943500  0.00079400  1
  O  O54  1  0.36962650  0.86504850  0.12344900  1
  O  O55  1  0.37400400  0.12863800  0.13063500  1
  O  O56  1  0.13260650  0.87410350  0.37188800  1
  O  O57  1  0.50017200  0.40130400  0.09707800  1
  O  O58  1  0.31022050  0.25966650  0.31649300  1
  O  O59  1  0.31945200  0.74072000  0.31131200  1
  O  O60  1  0.20209200  0.79943500  0.99920600  1
  O  O61  1  0.49980800  0.69598800  0.19525800  1
  O  O62  1  0.05636550  0.99531050  0.68940100  1
  O  O63  1  0.68858450  0.00639450  0.05613500  1
  O  O64  1  0.55549000  0.99280300  0.18279900  1
  O  O65  1  0.18431550  0.00597550  0.55602700  1
  O  O66  1  0.31959450  0.81817950  0.49975800  1
  O  O67  1  0.49993600  0.18533800  0.31333400  1
  O  O68  1  0.68324300  0.24475600  0.18672700  1
  O  O69  1  0.68581250  0.75486750  0.18049000  1
  O  O70  1  0.90278100  0.09622300  0.99984000  1
  O  O71  1  0.50031900  0.87615400  0.37472400  1
  O  O72  1  0.37276600  0.12894900  0.50077200  1
  O  O73  1  0.62554800  0.63163400  0.36690800  1
  O  O74  1  0.37445200  0.63163400  0.63309200  1
  O  O75  1  0.49968100  0.87615400  0.62527600  1
  O  O76  1  0.62723400  0.12894900  0.49922800  1
  O  O77  1  0.31418750  0.75486750  0.81951000  1
  O  O78  1  0.31675700  0.24475600  0.81327300  1
  O  O79  1  0.68040550  0.81817950  0.50024200  1
  O  O80  1  0.50006400  0.18533800  0.68666600  1
  O  O81  1  0.81568450  0.00597550  0.44397300  1
  O  O82  1  0.31141550  0.00639450  0.94386500  1
  O  O83  1  0.94363450  0.99531050  0.31059900  1
  O  O84  1  0.44451000  0.99280300  0.81720100  1
  O  O85  1  0.50019200  0.69598800  0.80474200  1
  O  O86  1  0.68054800  0.74072000  0.68868800  1
  O  O87  1  0.68977950  0.25966650  0.68350700  1
  O  O88  1  0.49982800  0.40130400  0.90292200  1
  O  O89  1  0.86739350  0.87410350  0.62811200  1
  O  O90  1  0.62599600  0.12863800  0.86936500  1
  O  O91  1  0.63037350  0.86504850  0.87655100  1
  O  O92  1  0.59721900  0.59622300  0.00016000  1
  O  O93  1  0.29790800  0.29943500  0.00079400  1
  O  O94  1  0.86962650  0.36504850  0.12344900  1
  O  O95  1  0.87400400  0.62863800  0.13063500  1
  O  O96  1  0.63260650  0.37410350  0.37188800  1
  O  O97  1  0.00017200  0.90130400  0.09707800  1
  O  O98  1  0.81022050  0.75966650  0.31649300  1
  O  O99  1  0.81945200  0.24072000  0.31131200  1
  O  O100  1  0.70209200  0.29943500  0.99920600  1
  O  O101  1  0.99980800  0.19598800  0.19525800  1
  O  O102  1  0.55636550  0.49531050  0.68940100  1
  O  O103  1  0.18858450  0.50639450  0.05613500  1
  O  O104  1  0.05549000  0.49280300  0.18279900  1
  O  O105  1  0.68431550  0.50597550  0.55602700  1
  O  O106  1  0.81959450  0.31817950  0.49975800  1
  O  O107  1  0.99993600  0.68533800  0.31333400  1
  O  O108  1  0.18324300  0.74475600  0.18672700  1
  O  O109  1  0.18581250  0.25486750  0.18049000  1
  O  O110  1  0.40278100  0.59622300  0.99984000  1
  O  O111  1  0.00031900  0.37615400  0.37472400  1
  O  O112  1  0.87276600  0.62894900  0.50077200  1
  O  O113  1  0.12554800  0.13163400  0.36690800  1
  O  O114  1  0.87445200  0.13163400  0.63309200  1
  O  O115  1  0.99968100  0.37615400  0.62527600  1
  O  O116  1  0.12723400  0.62894900  0.49922800  1
  O  O117  1  0.81418750  0.25486750  0.81951000  1
  O  O118  1  0.81675700  0.74475600  0.81327300  1
  O  O119  1  0.18040550  0.31817950  0.50024200  1
  O  O120  1  0.00006400  0.68533800  0.68666600  1
  O  O121  1  0.31568450  0.50597550  0.44397300  1
  O  O122  1  0.81141550  0.50639450  0.94386500  1
  O  O123  1  0.44363450  0.49531050  0.31059900  1
  O  O124  1  0.94451000  0.49280300  0.81720100  1
  O  O125  1  0.00019200  0.19598800  0.80474200  1
  O  O126  1  0.18054800  0.24072000  0.68868800  1
  O  O127  1  0.18977950  0.75966650  0.68350700  1
  O  O128  1  0.99982800  0.90130400  0.90292200  1
  O  O129  1  0.36739350  0.37410350  0.62811200  1
  O  O130  1  0.12599600  0.62863800  0.86936500  1
  O  O131  1  0.13037350  0.36504850  0.87655100  1
