# generated using pymatgen
data_CoPH21N5O7
_symmetry_space_group_name_H-M   'P 1'
_cell_length_a   8.65929900
_cell_length_b   14.64506200
_cell_length_c   10.04227012
_cell_angle_alpha   90.00000000
_cell_angle_beta   121.88682554
_cell_angle_gamma   90.00000000
_symmetry_Int_Tables_number   1
_chemical_formula_structural   CoPH21N5O7
_chemical_formula_sum   'Co4 P4 H84 N20 O28'
_cell_volume   1081.33733600
_cell_formula_units_Z   4
loop_
 _symmetry_equiv_pos_site_id
 _symmetry_equiv_pos_as_xyz
  1  'x, y, z'
loop_
 _atom_site_type_symbol
 _atom_site_label
 _atom_site_symmetry_multiplicity
 _atom_site_fract_x
 _atom_site_fract_y
 _atom_site_fract_z
 _atom_site_occupancy
  Co  Co0  1  0.30636200  0.84203500  0.22517300  1
  Co  Co1  1  0.69363800  0.34203500  0.27482700  1
  Co  Co2  1  0.30636200  0.65796500  0.72517300  1
  Co  Co3  1  0.69363800  0.15796500  0.77482700  1
  P  P4  1  0.36166200  0.62633600  0.22767000  1
  P  P5  1  0.63833800  0.12633600  0.27233000  1
  P  P6  1  0.36166200  0.87366400  0.72767000  1
  P  P7  1  0.63833800  0.37366400  0.77233000  1
  H  H8  1  0.01668900  0.91805800  0.03095800  1
  H  H9  1  0.17685100  0.29903000  0.10385900  1
  H  H10  1  0.18179400  0.46321700  0.02788800  1
  H  H11  1  0.29637800  0.20723000  0.16062200  1
  H  H12  1  0.39520500  0.00765600  0.30800000  1
  H  H13  1  0.52255700  0.17237900  0.48093100  1
  H  H14  1  0.42141900  0.33725100  0.30143700  1
  H  H15  1  0.54851400  0.74855400  0.44268900  1
  H  H16  1  0.46801600  0.44573100  0.28761700  1
  H  H17  1  0.68042800  0.04172100  0.58632200  1
  H  H18  1  0.58582600  0.39018200  0.45801000  1
  H  H19  1  0.62859500  0.85490500  0.47207200  1
  H  H20  1  0.37140500  0.35490500  0.02792800  1
  H  H21  1  0.82785300  0.00650400  0.76637100  1
  H  H22  1  0.41417400  0.89018200  0.04199000  1
  H  H23  1  0.53198400  0.94573100  0.21238300  1
  H  H24  1  0.45148600  0.24855400  0.05731100  1
  H  H25  1  0.73256800  0.58241900  0.52494300  1
  H  H26  1  0.01149300  0.81673400  0.95973900  1
  H  H27  1  0.81767000  0.50798500  0.66192000  1
  H  H28  1  0.88892500  0.26835400  0.74686400  1
  H  H29  1  0.81321700  0.19824000  0.59600100  1
  H  H30  1  0.57858100  0.83725100  0.19856300  1
  H  H31  1  0.00067400  0.40854700  0.89833700  1
  H  H32  1  0.60479500  0.50765600  0.19200000  1
  H  H33  1  0.70362200  0.70723000  0.33937800  1
  H  H34  1  0.98219900  0.16311100  0.77117600  1
  H  H35  1  0.52255700  0.32762100  0.98093100  1
  H  H36  1  0.81820600  0.96321700  0.47211200  1
  H  H37  1  0.86454100  0.39773800  0.55450500  1
  H  H38  1  0.13545900  0.89773800  0.94549500  1
  H  H39  1  0.82314900  0.79903000  0.39614100  1
  H  H40  1  0.01780100  0.66311100  0.72882400  1
  H  H41  1  0.68042800  0.45827900  0.08632200  1
  H  H42  1  0.99932600  0.90854700  0.60166300  1
  H  H43  1  0.18678300  0.69824000  0.90399900  1
  H  H44  1  0.11107500  0.76835400  0.75313600  1
  H  H45  1  0.82785300  0.49349600  0.26637100  1
  H  H46  1  0.18233000  0.00798500  0.83808000  1
  H  H47  1  0.98850700  0.31673400  0.54026100  1
  H  H48  1  0.98331100  0.41805800  0.46904200  1
  H  H49  1  0.26743200  0.08241900  0.97505700  1
  H  H50  1  0.73256800  0.91758100  0.02494300  1
  H  H51  1  0.01668900  0.58194200  0.53095800  1
  H  H52  1  0.01149300  0.68326600  0.45973900  1
  H  H53  1  0.81767000  0.99201500  0.16192000  1
  H  H54  1  0.17214700  0.50650400  0.73362900  1
  H  H55  1  0.88892500  0.23164600  0.24686400  1
  H  H56  1  0.81321700  0.30176000  0.09600100  1
  H  H57  1  0.00067400  0.09145300  0.39833700  1
  H  H58  1  0.31957200  0.54172100  0.91367800  1
  H  H59  1  0.98219900  0.33688900  0.27117600  1
  H  H60  1  0.17685100  0.20097000  0.60385900  1
  H  H61  1  0.86454100  0.10226200  0.05450500  1
  H  H62  1  0.13545900  0.60226200  0.44549500  1
  H  H63  1  0.18179400  0.03678300  0.52788800  1
  H  H64  1  0.47744300  0.67237900  0.01906900  1
  H  H65  1  0.01780100  0.83688900  0.22882400  1
  H  H66  1  0.29637800  0.29277000  0.66062200  1
  H  H67  1  0.39520500  0.49234400  0.80800000  1
  H  H68  1  0.99932600  0.59145300  0.10166300  1
  H  H69  1  0.42141900  0.16274900  0.80143700  1
  H  H70  1  0.18678300  0.80176000  0.40399900  1
  H  H71  1  0.11107500  0.73164600  0.25313600  1
  H  H72  1  0.18233000  0.49201500  0.33808000  1
  H  H73  1  0.98850700  0.18326600  0.04026100  1
  H  H74  1  0.26743200  0.41758100  0.47505700  1
  H  H75  1  0.54851400  0.75144600  0.94268900  1
  H  H76  1  0.46801600  0.05426900  0.78761700  1
  H  H77  1  0.58582600  0.10981800  0.95801000  1
  H  H78  1  0.17214700  0.99349600  0.23362900  1
  H  H79  1  0.62859500  0.64509500  0.97207200  1
  H  H80  1  0.37140500  0.14509500  0.52792800  1
  H  H81  1  0.41417400  0.60981800  0.54199000  1
  H  H82  1  0.31957200  0.95827900  0.41367800  1
  H  H83  1  0.53198400  0.55426900  0.71238300  1
  H  H84  1  0.45148600  0.25144600  0.55731100  1
  H  H85  1  0.57858100  0.66274900  0.69856300  1
  H  H86  1  0.47744300  0.82762100  0.51906900  1
  H  H87  1  0.60479500  0.99234400  0.69200000  1
  H  H88  1  0.70362200  0.79277000  0.83937800  1
  H  H89  1  0.81820600  0.53678300  0.97211200  1
  H  H90  1  0.82314900  0.70097000  0.89614100  1
  H  H91  1  0.98331100  0.08194200  0.96904200  1
  N  N92  1  0.09613700  0.87146600  0.01771000  1
  N  N93  1  0.51370100  0.81680700  0.43832000  1
  N  N94  1  0.70271300  0.03568700  0.69819400  1
  N  N95  1  0.52527600  0.38401000  0.33851700  1
  N  N96  1  0.47472400  0.88401000  0.16148300  1
  N  N97  1  0.86380000  0.20078400  0.71492900  1
  N  N98  1  0.48629900  0.31680700  0.06168000  1
  N  N99  1  0.70271300  0.46431300  0.19819400  1
  N  N100  1  0.90386300  0.37146600  0.48229000  1
  N  N101  1  0.13620000  0.70078400  0.78507100  1
  N  N102  1  0.86380000  0.29921600  0.21492900  1
  N  N103  1  0.09613700  0.62853400  0.51771000  1
  N  N104  1  0.29728700  0.53568700  0.80180600  1
  N  N105  1  0.51370100  0.68319300  0.93832000  1
  N  N106  1  0.13620000  0.79921600  0.28507100  1
  N  N107  1  0.52527600  0.11599000  0.83851700  1
  N  N108  1  0.47472400  0.61599000  0.66148300  1
  N  N109  1  0.29728700  0.96431300  0.30180600  1
  N  N110  1  0.48629900  0.18319300  0.56168000  1
  N  N111  1  0.90386300  0.12853400  0.98229000  1
  O  O112  1  0.21482600  0.24699100  0.17779700  1
  O  O113  1  0.30735300  0.72079300  0.13843300  1
  O  O114  1  0.35435500  0.55337200  0.11212700  1
  O  O115  1  0.55916200  0.63522300  0.37228600  1
  O  O116  1  0.77443600  0.39865500  0.72094600  1
  O  O117  1  0.44083800  0.13522300  0.12771400  1
  O  O118  1  0.64564500  0.05337200  0.38787300  1
  O  O119  1  0.69264700  0.22079300  0.36156700  1
  O  O120  1  0.85037000  0.55731100  0.61334600  1
  O  O121  1  0.12918000  0.40190200  0.98657500  1
  O  O122  1  0.87082000  0.90190200  0.51342500  1
  O  O123  1  0.78517400  0.74699100  0.32220300  1
  O  O124  1  0.14963000  0.05731100  0.88665400  1
  O  O125  1  0.77443600  0.10134500  0.22094600  1
  O  O126  1  0.22556400  0.89865500  0.77905400  1
  O  O127  1  0.85037000  0.94268900  0.11334600  1
  O  O128  1  0.21482600  0.25300900  0.67779700  1
  O  O129  1  0.12918000  0.09809800  0.48657500  1
  O  O130  1  0.87082000  0.59809800  0.01342500  1
  O  O131  1  0.14963000  0.44268900  0.38665400  1
  O  O132  1  0.30735300  0.77920700  0.63843300  1
  O  O133  1  0.35435500  0.94662800  0.61212700  1
  O  O134  1  0.55916200  0.86477700  0.87228600  1
  O  O135  1  0.22556400  0.60134500  0.27905400  1
  O  O136  1  0.44083800  0.36477700  0.62771400  1
  O  O137  1  0.64564500  0.44662800  0.88787300  1
  O  O138  1  0.69264700  0.27920700  0.86156700  1
  O  O139  1  0.78517400  0.75300900  0.82220300  1
