# generated using pymatgen
data_Li2MnWO6
_symmetry_space_group_name_H-M   'P 1'
_cell_length_a   5.09025999
_cell_length_b   5.09025999
_cell_length_c   13.36371078
_cell_angle_alpha   90.00000000
_cell_angle_beta   90.00000000
_cell_angle_gamma   120.00000000
_symmetry_Int_Tables_number   1
_chemical_formula_structural   Li2MnWO6
_chemical_formula_sum   'Li6 Mn3 W3 O18'
_cell_volume   299.87318259
_cell_formula_units_Z   3
loop_
 _symmetry_equiv_pos_site_id
 _symmetry_equiv_pos_as_xyz
  1  'x, y, z'
loop_
 _atom_site_type_symbol
 _atom_site_label
 _atom_site_symmetry_multiplicity
 _atom_site_fract_x
 _atom_site_fract_y
 _atom_site_fract_z
 _atom_site_occupancy
  Li  Li0  1  0.33333333  0.66666667  0.95066667  1
  Li  Li1  1  0.00000000  0.00000000  0.78386300  1
  Li  Li2  1  0.00000000  0.00000000  0.28400000  1
  Li  Li3  1  0.66666667  0.33333333  0.11719633  1
  Li  Li4  1  0.66666667  0.33333333  0.61733333  1
  Li  Li5  1  0.33333333  0.66666667  0.45052967  1
  Mn  Mn6  1  0.33333333  0.66666667  0.66722067  1
  Mn  Mn7  1  0.00000000  0.00000000  0.00055400  1
  Mn  Mn8  1  0.66666667  0.33333333  0.33388733  1
  W  W9  1  0.66666667  0.33333333  0.83360400  1
  W  W10  1  0.33333333  0.66666667  0.16693733  1
  W  W11  1  0.00000000  0.00000000  0.50027067  1
  O  O12  1  0.38443800  0.00365900  0.74439700  1
  O  O13  1  0.99634100  0.38077900  0.74439700  1
  O  O14  1  0.61922100  0.61556200  0.74439700  1
  O  O15  1  0.71938017  0.04428433  0.91110833  1
  O  O16  1  0.32490417  0.28061983  0.91110833  1
  O  O17  1  0.95571567  0.67509583  0.91110833  1
  O  O18  1  0.05110467  0.33699233  0.07773033  1
  O  O19  1  0.66300767  0.71411233  0.07773033  1
  O  O20  1  0.28588767  0.94889533  0.07773033  1
  O  O21  1  0.38604683  0.37761767  0.24444167  1
  O  O22  1  0.99157083  0.61395317  0.24444167  1
  O  O23  1  0.62238233  0.00842917  0.24444167  1
  O  O24  1  0.71777133  0.67032567  0.41106367  1
  O  O25  1  0.32967433  0.04744567  0.41106367  1
  O  O26  1  0.95255433  0.28222867  0.41106367  1
  O  O27  1  0.05271350  0.71095100  0.57777500  1
  O  O28  1  0.65823750  0.94728650  0.57777500  1
  O  O29  1  0.28904900  0.34176250  0.57777500  1
