# generated using pymatgen
data_LiMn2(BO3)2
_symmetry_space_group_name_H-M   'P 1'
_cell_length_a   5.43753932
_cell_length_b   9.22632007
_cell_length_c   9.98021769
_cell_angle_alpha   90.00000000
_cell_angle_beta   91.98602073
_cell_angle_gamma   90.00000000
_symmetry_Int_Tables_number   1
_chemical_formula_structural   LiMn2(BO3)2
_chemical_formula_sum   'Li4 Mn8 B8 O24'
_cell_volume   500.39157386
_cell_formula_units_Z   4
loop_
 _symmetry_equiv_pos_site_id
 _symmetry_equiv_pos_as_xyz
  1  'x, y, z'
loop_
 _atom_site_type_symbol
 _atom_site_label
 _atom_site_symmetry_multiplicity
 _atom_site_fract_x
 _atom_site_fract_y
 _atom_site_fract_z
 _atom_site_occupancy
  Li  Li0  1  0.14580650  0.01744750  0.66767600  1
  Li  Li1  1  0.14580650  0.98255250  0.16767600  1
  Li  Li2  1  0.64580650  0.51744750  0.66767600  1
  Li  Li3  1  0.64580650  0.48255250  0.16767600  1
  Mn  Mn4  1  0.66399000  0.14855800  0.12712900  1
  Mn  Mn5  1  0.66399000  0.85144200  0.62712900  1
  Mn  Mn6  1  0.34532250  0.17768650  0.37782100  1
  Mn  Mn7  1  0.34532250  0.82231350  0.87782100  1
  Mn  Mn8  1  0.16399000  0.64855800  0.12712900  1
  Mn  Mn9  1  0.16399000  0.35144200  0.62712900  1
  Mn  Mn10  1  0.84532250  0.67768650  0.37782100  1
  Mn  Mn11  1  0.84532250  0.32231350  0.87782100  1
  B  B12  1  0.33409000  0.17212500  0.87283000  1
  B  B13  1  0.33409000  0.82787500  0.37283000  1
  B  B14  1  0.66855100  0.17628100  0.62823500  1
  B  B15  1  0.66855100  0.82371900  0.12823500  1
  B  B16  1  0.83409000  0.67212500  0.87283000  1
  B  B17  1  0.83409000  0.32787500  0.37283000  1
  B  B18  1  0.16855100  0.67628100  0.62823500  1
  B  B19  1  0.16855100  0.32371900  0.12823500  1
  O  O20  1  0.25627050  0.18962050  0.18225200  1
  O  O21  1  0.25627050  0.81037950  0.68225200  1
  O  O22  1  0.42328400  0.17692600  0.57349800  1
  O  O23  1  0.42328400  0.82307400  0.07349800  1
  O  O24  1  0.24732650  0.03541950  0.85755700  1
  O  O25  1  0.24732650  0.96458050  0.35755700  1
  O  O26  1  0.56907100  0.19875400  0.92644100  1
  O  O27  1  0.56907100  0.80124600  0.42644100  1
  O  O28  1  0.69072850  0.20751750  0.33281700  1
  O  O29  1  0.69072850  0.79248250  0.83281700  1
  O  O30  1  0.80788050  0.05639450  0.63226500  1
  O  O31  1  0.80788050  0.94360550  0.13226500  1
  O  O32  1  0.75627050  0.68962050  0.18225200  1
  O  O33  1  0.75627050  0.31037950  0.68225200  1
  O  O34  1  0.92328400  0.67692600  0.57349800  1
  O  O35  1  0.92328400  0.32307400  0.07349800  1
  O  O36  1  0.74732650  0.53541950  0.85755700  1
  O  O37  1  0.74732650  0.46458050  0.35755700  1
  O  O38  1  0.06907100  0.69875400  0.92644100  1
  O  O39  1  0.06907100  0.30124600  0.42644100  1
  O  O40  1  0.19072850  0.70751750  0.33281700  1
  O  O41  1  0.19072850  0.29248250  0.83281700  1
  O  O42  1  0.30788050  0.55639450  0.63226500  1
  O  O43  1  0.30788050  0.44360550  0.13226500  1
