# generated using pymatgen
data_Li3BiO3
_symmetry_space_group_name_H-M   'P 1'
_cell_length_a   13.96554000
_cell_length_b   13.96554000
_cell_length_c   7.55853000
_cell_angle_alpha   90.00000000
_cell_angle_beta   90.00000000
_cell_angle_gamma   90.00000000
_symmetry_Int_Tables_number   1
_chemical_formula_structural   Li3BiO3
_chemical_formula_sum   'Li48 Bi16 O48'
_cell_volume   1474.18778126
_cell_formula_units_Z   16
loop_
 _symmetry_equiv_pos_site_id
 _symmetry_equiv_pos_as_xyz
  1  'x, y, z'
loop_
 _atom_site_type_symbol
 _atom_site_label
 _atom_site_symmetry_multiplicity
 _atom_site_fract_x
 _atom_site_fract_y
 _atom_site_fract_z
 _atom_site_occupancy
  Li  Li0  1  0.92240900  0.95696100  0.30779600  1
  Li  Li1  1  0.76416000  0.13672900  0.94517300  1
  Li  Li2  1  0.78016050  0.00318450  0.15959950  1
  Li  Li3  1  0.72810600  0.86033100  0.29760900  1
  Li  Li4  1  0.63966900  0.72810600  0.54760900  1
  Li  Li5  1  0.63672900  0.23584000  0.19517300  1
  Li  Li6  1  0.57578800  0.04046100  0.21389800  1
  Li  Li7  1  0.59098550  0.03261050  0.92031150  1
  Li  Li8  1  0.54303900  0.92240900  0.55779600  1
  Li  Li9  1  0.53261050  0.40901450  0.17031150  1
  Li  Li10  1  0.45953900  0.57578800  0.46389800  1
  Li  Li11  1  0.50318450  0.21983950  0.40959950  1
  Li  Li12  1  0.49681550  0.78016050  0.40959950  1
  Li  Li13  1  0.54046100  0.42421200  0.46389800  1
  Li  Li14  1  0.46738950  0.59098550  0.17031150  1
  Li  Li15  1  0.45696100  0.07759100  0.55779600  1
  Li  Li16  1  0.40901450  0.96738950  0.92031150  1
  Li  Li17  1  0.42421200  0.95953900  0.21389800  1
  Li  Li18  1  0.36327100  0.76416000  0.19517300  1
  Li  Li19  1  0.36033100  0.27189400  0.54760900  1
  Li  Li20  1  0.27189400  0.13966900  0.29760900  1
  Li  Li21  1  0.21983950  0.99681550  0.15959950  1
  Li  Li22  1  0.23584000  0.86327100  0.94517300  1
  Li  Li23  1  0.07759100  0.04303900  0.30779600  1
  Li  Li24  1  0.42240900  0.45696100  0.80779600  1
  Li  Li25  1  0.26416000  0.63672900  0.44517300  1
  Li  Li26  1  0.28016050  0.50318450  0.65959950  1
  Li  Li27  1  0.22810600  0.36033100  0.79760900  1
  Li  Li28  1  0.13966900  0.22810600  0.04760900  1
  Li  Li29  1  0.13672900  0.73584000  0.69517300  1
  Li  Li30  1  0.07578800  0.54046100  0.71389800  1
  Li  Li31  1  0.09098550  0.53261050  0.42031150  1
  Li  Li32  1  0.04303900  0.42240900  0.05779600  1
  Li  Li33  1  0.03261050  0.90901450  0.67031150  1
  Li  Li34  1  0.95953900  0.07578800  0.96389800  1
  Li  Li35  1  0.00318450  0.71983950  0.90959950  1
  Li  Li36  1  0.99681550  0.28016050  0.90959950  1
  Li  Li37  1  0.04046100  0.92421200  0.96389800  1
  Li  Li38  1  0.96738950  0.09098550  0.67031150  1
  Li  Li39  1  0.95696100  0.57759100  0.05779600  1
  Li  Li40  1  0.90901450  0.46738950  0.42031150  1
  Li  Li41  1  0.92421200  0.45953900  0.71389800  1
  Li  Li42  1  0.86327100  0.26416000  0.69517300  1
  Li  Li43  1  0.86033100  0.77189400  0.04760900  1
  Li  Li44  1  0.77189400  0.63966900  0.79760900  1
  Li  Li45  1  0.71983950  0.49681550  0.65959950  1
  Li  Li46  1  0.73584000  0.36327100  0.44517300  1
  Li  Li47  1  0.57759100  0.54303900  0.80779600  1
  Bi  Bi48  1  0.78476900  0.90537000  0.77516800  1
  Bi  Bi49  1  0.72218450  0.09424750  0.48134350  1
  Bi  Bi50  1  0.59424750  0.27781550  0.73134350  1
  Bi  Bi51  1  0.59463000  0.78476900  0.02516800  1
  Bi  Bi52  1  0.40537000  0.21523100  0.02516800  1
  Bi  Bi53  1  0.40575250  0.72218450  0.73134350  1
  Bi  Bi54  1  0.27781550  0.90575250  0.48134350  1
  Bi  Bi55  1  0.21523100  0.09463000  0.77516800  1
  Bi  Bi56  1  0.28476900  0.40537000  0.27516800  1
  Bi  Bi57  1  0.22218450  0.59424750  0.98134350  1
  Bi  Bi58  1  0.09424750  0.77781550  0.23134350  1
  Bi  Bi59  1  0.09463000  0.28476900  0.52516800  1
  Bi  Bi60  1  0.90537000  0.71523100  0.52516800  1
  Bi  Bi61  1  0.90575250  0.22218450  0.23134350  1
  Bi  Bi62  1  0.77781550  0.40575250  0.98134350  1
  Bi  Bi63  1  0.71523100  0.59463000  0.27516800  1
  O  O64  1  0.92021900  0.96589000  0.79469100  1
  O  O65  1  0.79205400  0.96195000  0.41577600  1
  O  O66  1  0.77639800  0.87831800  0.05978100  1
  O  O67  1  0.70084850  0.11370650  0.17487550  1
  O  O68  1  0.70956500  0.04232400  0.78716700  1
  O  O69  1  0.62168200  0.77639800  0.30978100  1
  O  O70  1  0.61370650  0.29915150  0.42487550  1
  O  O71  1  0.58096050  0.04803950  0.46639150  1
  O  O72  1  0.53805000  0.79205400  0.66577600  1
  O  O73  1  0.54232400  0.29043500  0.03716700  1
  O  O74  1  0.54803950  0.41903950  0.71639150  1
  O  O75  1  0.53411000  0.92021900  0.04469100  1
  O  O76  1  0.46589000  0.07978100  0.04469100  1
  O  O77  1  0.45196050  0.58096050  0.71639150  1
  O  O78  1  0.45767600  0.70956500  0.03716700  1
  O  O79  1  0.46195000  0.20794600  0.66577600  1
  O  O80  1  0.41903950  0.95196050  0.46639150  1
  O  O81  1  0.38629350  0.70084850  0.42487550  1
  O  O82  1  0.37831800  0.22360200  0.30978100  1
  O  O83  1  0.29043500  0.95767600  0.78716700  1
  O  O84  1  0.29915150  0.88629350  0.17487550  1
  O  O85  1  0.22360200  0.12168200  0.05978100  1
  O  O86  1  0.20794600  0.03805000  0.41577600  1
  O  O87  1  0.07978100  0.03411000  0.79469100  1
  O  O88  1  0.42021900  0.46589000  0.29469100  1
  O  O89  1  0.29205400  0.46195000  0.91577600  1
  O  O90  1  0.27639800  0.37831800  0.55978100  1
  O  O91  1  0.20084850  0.61370650  0.67487550  1
  O  O92  1  0.20956500  0.54232400  0.28716700  1
  O  O93  1  0.12168200  0.27639800  0.80978100  1
  O  O94  1  0.11370650  0.79915150  0.92487550  1
  O  O95  1  0.08096050  0.54803950  0.96639150  1
  O  O96  1  0.03805000  0.29205400  0.16577600  1
  O  O97  1  0.04232400  0.79043500  0.53716700  1
  O  O98  1  0.04803950  0.91903950  0.21639150  1
  O  O99  1  0.03411000  0.42021900  0.54469100  1
  O  O100  1  0.96589000  0.57978100  0.54469100  1
  O  O101  1  0.95196050  0.08096050  0.21639150  1
  O  O102  1  0.95767600  0.20956500  0.53716700  1
  O  O103  1  0.96195000  0.70794600  0.16577600  1
  O  O104  1  0.91903950  0.45196050  0.96639150  1
  O  O105  1  0.88629350  0.20084850  0.92487550  1
  O  O106  1  0.87831800  0.72360200  0.80978100  1
  O  O107  1  0.79043500  0.45767600  0.28716700  1
  O  O108  1  0.79915150  0.38629350  0.67487550  1
  O  O109  1  0.72360200  0.62168200  0.55978100  1
  O  O110  1  0.70794600  0.53805000  0.91577600  1
  O  O111  1  0.57978100  0.53411000  0.29469100  1
