# generated using pymatgen
data_Ba2Tl(HO)7
_symmetry_space_group_name_H-M   'P 1'
_cell_length_a   12.04819000
_cell_length_b   6.61863600
_cell_length_c   10.65964890
_cell_angle_alpha   90.00000000
_cell_angle_beta   98.69181524
_cell_angle_gamma   90.00000000
_symmetry_Int_Tables_number   1
_chemical_formula_structural   Ba2Tl(HO)7
_chemical_formula_sum   'Ba8 Tl4 H28 O28'
_cell_volume   840.26578964
_cell_formula_units_Z   4
loop_
 _symmetry_equiv_pos_site_id
 _symmetry_equiv_pos_as_xyz
  1  'x, y, z'
loop_
 _atom_site_type_symbol
 _atom_site_label
 _atom_site_symmetry_multiplicity
 _atom_site_fract_x
 _atom_site_fract_y
 _atom_site_fract_z
 _atom_site_occupancy
  Ba  Ba0  1  0.88049450  0.31192250  0.87109300  1
  Ba  Ba1  1  0.88049450  0.68807750  0.37109300  1
  Ba  Ba2  1  0.61950550  0.81192250  0.62890700  1
  Ba  Ba3  1  0.61950550  0.18807750  0.12890700  1
  Ba  Ba4  1  0.38049450  0.81192250  0.87109300  1
  Ba  Ba5  1  0.38049450  0.18807750  0.37109300  1
  Ba  Ba6  1  0.11950550  0.31192250  0.62890700  1
  Ba  Ba7  1  0.11950550  0.68807750  0.12890700  1
  Tl  Tl8  1  0.75000000  0.75000000  0.00000000  1
  Tl  Tl9  1  0.75000000  0.25000000  0.50000000  1
  Tl  Tl10  1  0.25000000  0.25000000  0.00000000  1
  Tl  Tl11  1  0.25000000  0.75000000  0.50000000  1
  H  H12  1  0.89328100  0.98568300  0.61814000  1
  H  H13  1  0.87180350  0.55743150  0.64825200  1
  H  H14  1  0.85695600  0.82503300  0.79519800  1
  H  H15  1  0.89328100  0.01431700  0.11814000  1
  H  H16  1  0.87180350  0.44256850  0.14825200  1
  H  H17  1  0.85695600  0.17496700  0.29519800  1
  H  H18  1  0.64304400  0.32503300  0.70480200  1
  H  H19  1  0.62819650  0.05743150  0.85174800  1
  H  H20  1  0.60671900  0.48568300  0.88186000  1
  H  H21  1  0.64304400  0.67496700  0.20480200  1
  H  H22  1  0.62819650  0.94256850  0.35174800  1
  H  H23  1  0.60671900  0.51431700  0.38186000  1
  H  H24  1  0.00000000  0.87010900  0.75000000  1
  H  H25  1  0.00000000  0.12989100  0.25000000  1
  H  H26  1  0.39328100  0.48568300  0.61814000  1
  H  H27  1  0.37180350  0.05743150  0.64825200  1
  H  H28  1  0.35695600  0.32503300  0.79519800  1
  H  H29  1  0.39328100  0.51431700  0.11814000  1
  H  H30  1  0.37180350  0.94256850  0.14825200  1
  H  H31  1  0.35695600  0.67496700  0.29519800  1
  H  H32  1  0.14304400  0.82503300  0.70480200  1
  H  H33  1  0.12819650  0.55743150  0.85174800  1
  H  H34  1  0.10671900  0.98568300  0.88186000  1
  H  H35  1  0.14304400  0.17496700  0.20480200  1
  H  H36  1  0.12819650  0.44256850  0.35174800  1
  H  H37  1  0.10671900  0.01431700  0.38186000  1
  H  H38  1  0.50000000  0.37010900  0.75000000  1
  H  H39  1  0.50000000  0.62989100  0.25000000  1
  O  O40  1  0.90399400  0.44865300  0.60223200  1
  O  O41  1  0.83242350  0.95538450  0.54543000  1
  O  O42  1  0.90399400  0.55134700  0.10223200  1
  O  O43  1  0.80931950  0.70724250  0.80263600  1
  O  O44  1  0.83242350  0.04461550  0.04543000  1
  O  O45  1  0.80931950  0.29275750  0.30263600  1
  O  O46  1  0.69068050  0.20724250  0.69736400  1
  O  O47  1  0.66757650  0.45538450  0.95457000  1
  O  O48  1  0.69068050  0.79275750  0.19736400  1
  O  O49  1  0.59600600  0.94865300  0.89776800  1
  O  O50  1  0.66757650  0.54461550  0.45457000  1
  O  O51  1  0.59600600  0.05134700  0.39776800  1
  O  O52  1  0.00000000  0.01684400  0.75000000  1
  O  O53  1  0.00000000  0.98315600  0.25000000  1
  O  O54  1  0.40399400  0.94865300  0.60223200  1
  O  O55  1  0.33242350  0.45538450  0.54543000  1
  O  O56  1  0.40399400  0.05134700  0.10223200  1
  O  O57  1  0.30931950  0.20724250  0.80263600  1
  O  O58  1  0.33242350  0.54461550  0.04543000  1
  O  O59  1  0.30931950  0.79275750  0.30263600  1
  O  O60  1  0.19068050  0.70724250  0.69736400  1
  O  O61  1  0.16757650  0.95538450  0.95457000  1
  O  O62  1  0.19068050  0.29275750  0.19736400  1
  O  O63  1  0.09600600  0.44865300  0.89776800  1
  O  O64  1  0.16757650  0.04461550  0.45457000  1
  O  O65  1  0.09600600  0.55134700  0.39776800  1
  O  O66  1  0.50000000  0.51684400  0.75000000  1
  O  O67  1  0.50000000  0.48315600  0.25000000  1
