# generated using pymatgen
data_LiNiBO3
_symmetry_space_group_name_H-M   'P 1'
_cell_length_a   4.96493057
_cell_length_b   5.15158872
_cell_length_c   5.82687788
_cell_angle_alpha   93.33184279
_cell_angle_beta   113.28397017
_cell_angle_gamma   117.27247349
_symmetry_Int_Tables_number   1
_chemical_formula_structural   LiNiBO3
_chemical_formula_sum   'Li2 Ni2 B2 O6'
_cell_volume   116.33828266
_cell_formula_units_Z   2
loop_
 _symmetry_equiv_pos_site_id
 _symmetry_equiv_pos_as_xyz
  1  'x, y, z'
loop_
 _atom_site_type_symbol
 _atom_site_label
 _atom_site_symmetry_multiplicity
 _atom_site_fract_x
 _atom_site_fract_y
 _atom_site_fract_z
 _atom_site_occupancy
  Li  Li0  1  0.45079850  0.38976100  0.68347350  1
  Li  Li1  1  0.54920150  0.61023900  0.31652650  1
  Ni  Ni2  1  0.17093550  0.76322850  0.75042650  1
  Ni  Ni3  1  0.82906450  0.23677150  0.24957350  1
  B  B4  1  0.81142200  0.09180300  0.74510100  1
  B  B5  1  0.18857800  0.90819700  0.25489900  1
  O  O6  1  0.01266350  0.31599100  0.66310750  1
  O  O7  1  0.98733650  0.68400900  0.33689250  1
  O  O8  1  0.62757000  0.15304200  0.84752700  1
  O  O9  1  0.37243000  0.84695800  0.15247300  1
  O  O10  1  0.76855750  0.80532900  0.70736550  1
  O  O11  1  0.23144250  0.19467100  0.29263450  1
