# generated using pymatgen
data_Li13Mn3Nb2O16
_symmetry_space_group_name_H-M   'P 1'
_cell_length_a   10.39764200
_cell_length_b   6.08897800
_cell_length_c   9.99811452
_cell_angle_alpha   90.00000000
_cell_angle_beta   91.21327107
_cell_angle_gamma   90.00000000
_symmetry_Int_Tables_number   1
_chemical_formula_structural   Li13Mn3Nb2O16
_chemical_formula_sum   'Li26 Mn6 Nb4 O32'
_cell_volume   632.84884935
_cell_formula_units_Z   2
loop_
 _symmetry_equiv_pos_site_id
 _symmetry_equiv_pos_as_xyz
  1  'x, y, z'
loop_
 _atom_site_type_symbol
 _atom_site_label
 _atom_site_symmetry_multiplicity
 _atom_site_fract_x
 _atom_site_fract_y
 _atom_site_fract_z
 _atom_site_occupancy
  Li  Li0  1  0.99688200  0.00000000  0.01747500  1
  Li  Li1  1  0.87657500  0.00000000  0.50208300  1
  Li  Li2  1  0.45696250  0.80296550  0.22570200  1
  Li  Li3  1  0.83678300  0.00000000  0.25613200  1
  Li  Li4  1  0.82720100  0.00000000  0.74328200  1
  Li  Li5  1  0.37952150  0.79581550  0.97525800  1
  Li  Li6  1  0.45696250  0.19703450  0.22570200  1
  Li  Li7  1  0.37952150  0.20418450  0.97525800  1
  Li  Li8  1  0.33080200  0.00000000  0.75063900  1
  Li  Li9  1  0.67518500  0.00000000  0.40221100  1
  Li  Li10  1  0.58286750  0.70279850  0.45710700  1
  Li  Li11  1  0.58286750  0.29720150  0.45710700  1
  Li  Li12  1  0.18152300  0.00000000  0.94323700  1
  Li  Li13  1  0.49688200  0.50000000  0.01747500  1
  Li  Li14  1  0.37657500  0.50000000  0.50208300  1
  Li  Li15  1  0.95696250  0.30296550  0.22570200  1
  Li  Li16  1  0.33678300  0.50000000  0.25613200  1
  Li  Li17  1  0.32720100  0.50000000  0.74328200  1
  Li  Li18  1  0.87952150  0.29581550  0.97525800  1
  Li  Li19  1  0.95696250  0.69703450  0.22570200  1
  Li  Li20  1  0.87952150  0.70418450  0.97525800  1
  Li  Li21  1  0.83080200  0.50000000  0.75063900  1
  Li  Li22  1  0.17518500  0.50000000  0.40221100  1
  Li  Li23  1  0.08286750  0.20279850  0.45710700  1
  Li  Li24  1  0.08286750  0.79720150  0.45710700  1
  Li  Li25  1  0.68152300  0.50000000  0.94323700  1
  Mn  Mn26  1  0.58525150  0.75283650  0.72036100  1
  Mn  Mn27  1  0.58525150  0.24716350  0.72036100  1
  Mn  Mn28  1  0.17974400  0.00000000  0.21956300  1
  Mn  Mn29  1  0.08525150  0.25283650  0.72036100  1
  Mn  Mn30  1  0.08525150  0.74716350  0.72036100  1
  Mn  Mn31  1  0.67974400  0.50000000  0.21956300  1
  Nb  Nb32  1  0.35015700  0.00000000  0.48067600  1
  Nb  Nb33  1  0.65544000  0.00000000  0.99055700  1
  Nb  Nb34  1  0.85015700  0.50000000  0.48067600  1
  Nb  Nb35  1  0.15544000  0.50000000  0.99055700  1
  O  O36  1  0.42901050  0.76372950  0.59911900  1
  O  O37  1  0.82809800  0.00000000  0.06582800  1
  O  O38  1  0.50308300  0.00000000  0.36846500  1
  O  O39  1  0.73218150  0.76391350  0.84908700  1
  O  O40  1  0.42901050  0.23627050  0.59911900  1
  O  O41  1  0.58910800  0.74692900  0.08819700  1
  O  O42  1  0.26857150  0.75839850  0.36092700  1
  O  O43  1  0.32723300  0.00000000  0.11292500  1
  O  O44  1  0.65933600  0.00000000  0.62106700  1
  O  O45  1  0.73218150  0.23608650  0.84908700  1
  O  O46  1  0.26857150  0.24160150  0.36092700  1
  O  O47  1  0.58910800  0.25307100  0.08819700  1
  O  O48  1  0.49513200  0.00000000  0.86615800  1
  O  O49  1  0.18488000  0.00000000  0.58750500  1
  O  O50  1  0.01834600  0.00000000  0.31911200  1
  O  O51  1  0.01600400  0.00000000  0.82004400  1
  O  O52  1  0.92901050  0.26372950  0.59911900  1
  O  O53  1  0.32809800  0.50000000  0.06582800  1
  O  O54  1  0.00308300  0.50000000  0.36846500  1
  O  O55  1  0.23218150  0.26391350  0.84908700  1
  O  O56  1  0.92901050  0.73627050  0.59911900  1
  O  O57  1  0.08910800  0.24692900  0.08819700  1
  O  O58  1  0.76857150  0.25839850  0.36092700  1
  O  O59  1  0.82723300  0.50000000  0.11292500  1
  O  O60  1  0.15933600  0.50000000  0.62106700  1
  O  O61  1  0.23218150  0.73608650  0.84908700  1
  O  O62  1  0.76857150  0.74160150  0.36092700  1
  O  O63  1  0.08910800  0.75307100  0.08819700  1
  O  O64  1  0.99513200  0.50000000  0.86615800  1
  O  O65  1  0.68488000  0.50000000  0.58750500  1
  O  O66  1  0.51834600  0.50000000  0.31911200  1
  O  O67  1  0.51600400  0.50000000  0.82004400  1
