# generated using pymatgen
data_LiSnPO4
_symmetry_space_group_name_H-M   'P 1'
_cell_length_a   9.51006400
_cell_length_b   7.38777100
_cell_length_c   19.24558971
_cell_angle_alpha   90.00000000
_cell_angle_beta   119.24616844
_cell_angle_gamma   90.00000000
_symmetry_Int_Tables_number   1
_chemical_formula_structural   LiSnPO4
_chemical_formula_sum   'Li12 Sn12 P12 O48'
_cell_volume   1179.79839000
_cell_formula_units_Z   12
loop_
 _symmetry_equiv_pos_site_id
 _symmetry_equiv_pos_as_xyz
  1  'x, y, z'
loop_
 _atom_site_type_symbol
 _atom_site_label
 _atom_site_symmetry_multiplicity
 _atom_site_fract_x
 _atom_site_fract_y
 _atom_site_fract_z
 _atom_site_occupancy
  Li  Li0  1  0.70564500  0.93476100  0.42497400  1
  Li  Li1  1  0.33937800  0.06193800  0.08623200  1
  Li  Li2  1  0.00012100  0.77538100  0.75150400  1
  Li  Li3  1  0.99987900  0.27538100  0.74849600  1
  Li  Li4  1  0.66062200  0.56193800  0.41376800  1
  Li  Li5  1  0.29435500  0.43476100  0.07502600  1
  Li  Li6  1  0.70564500  0.56523900  0.92497400  1
  Li  Li7  1  0.33937800  0.43806200  0.58623200  1
  Li  Li8  1  0.00012100  0.72461900  0.25150400  1
  Li  Li9  1  0.99987900  0.22461900  0.24849600  1
  Li  Li10  1  0.66062200  0.93806200  0.91376800  1
  Li  Li11  1  0.29435500  0.06523900  0.57502600  1
  Sn  Sn12  1  0.93127700  0.21922600  0.89429200  1
  Sn  Sn13  1  0.37681100  0.28160000  0.28762100  1
  Sn  Sn14  1  0.69723500  0.23707600  0.56163500  1
  Sn  Sn15  1  0.30276500  0.73707600  0.93836500  1
  Sn  Sn16  1  0.62318900  0.78160000  0.21237900  1
  Sn  Sn17  1  0.06872300  0.71922600  0.60570800  1
  Sn  Sn18  1  0.93127700  0.28077400  0.39429200  1
  Sn  Sn19  1  0.37681100  0.21840000  0.78762100  1
  Sn  Sn20  1  0.69723500  0.26292400  0.06163500  1
  Sn  Sn21  1  0.30276500  0.76292400  0.43836500  1
  Sn  Sn22  1  0.62318900  0.71840000  0.71237900  1
  Sn  Sn23  1  0.06872300  0.78077400  0.10570800  1
  P  P24  1  0.96403000  0.69689700  0.91110300  1
  P  P25  1  0.36897300  0.81441600  0.26993600  1
  P  P26  1  0.68568100  0.71288800  0.56614000  1
  P  P27  1  0.31431900  0.21288800  0.93386000  1
  P  P28  1  0.63102700  0.31441600  0.23006400  1
  P  P29  1  0.03597000  0.19689700  0.58889700  1
  P  P30  1  0.96403000  0.80310300  0.41110300  1
  P  P31  1  0.36897300  0.68558400  0.76993600  1
  P  P32  1  0.68568100  0.78711200  0.06614000  1
  P  P33  1  0.31431900  0.28711200  0.43386000  1
  P  P34  1  0.63102700  0.18558400  0.73006400  1
  P  P35  1  0.03597000  0.30310300  0.08889700  1
  O  O36  1  0.12409200  0.49022900  0.11480200  1
  O  O37  1  0.46378800  0.30590600  0.41829900  1
  O  O38  1  0.14600300  0.18357200  0.07052100  1
  O  O39  1  0.81052200  0.21494800  0.75276500  1
  O  O40  1  0.64669000  0.85418600  0.50123400  1
  O  O41  1  0.43978100  0.99476000  0.31555100  1
  O  O42  1  0.36158100  0.82165900  0.18479000  1
  O  O43  1  0.00102700  0.77434200  0.84723600  1
  O  O44  1  0.71341900  0.52753400  0.53505100  1
  O  O45  1  0.13633400  0.67521300  0.98795800  1
  O  O46  1  0.83427800  0.76495800  0.64641400  1
  O  O47  1  0.47963300  0.66073000  0.32020300  1
  O  O48  1  0.16572200  0.26495800  0.85358600  1
  O  O49  1  0.52036700  0.16073000  0.17979700  1
  O  O50  1  0.86366600  0.17521300  0.51204200  1
  O  O51  1  0.28658100  0.02753400  0.96494900  1
  O  O52  1  0.99897300  0.27434200  0.65276400  1
  O  O53  1  0.63841900  0.32165900  0.31521000  1
  O  O54  1  0.56021900  0.49476000  0.18444900  1
  O  O55  1  0.18947800  0.71494800  0.74723500  1
  O  O56  1  0.35331000  0.35418600  0.99876600  1
  O  O57  1  0.85399700  0.68357200  0.42947900  1
  O  O58  1  0.53621200  0.80590600  0.08170100  1
  O  O59  1  0.87590800  0.99022900  0.38519800  1
  O  O60  1  0.12409200  0.00977100  0.61480200  1
  O  O61  1  0.46378800  0.19409400  0.91829900  1
  O  O62  1  0.14600300  0.31642800  0.57052100  1
  O  O63  1  0.64669000  0.64581400  0.00123400  1
  O  O64  1  0.81052200  0.28505200  0.25276500  1
  O  O65  1  0.43978100  0.50524000  0.81555100  1
  O  O66  1  0.36158100  0.67834100  0.68479000  1
  O  O67  1  0.00102700  0.72565800  0.34723600  1
  O  O68  1  0.71341900  0.97246600  0.03505100  1
  O  O69  1  0.13633400  0.82478700  0.48795800  1
  O  O70  1  0.47963300  0.83927000  0.82020300  1
  O  O71  1  0.83427800  0.73504200  0.14641400  1
  O  O72  1  0.52036700  0.33927000  0.67979700  1
  O  O73  1  0.16572200  0.23504200  0.35358600  1
  O  O74  1  0.86366600  0.32478700  0.01204200  1
  O  O75  1  0.28658100  0.47246600  0.46494900  1
  O  O76  1  0.99897300  0.22565800  0.15276400  1
  O  O77  1  0.63841900  0.17834100  0.81521000  1
  O  O78  1  0.56021900  0.00524000  0.68444900  1
  O  O79  1  0.35331000  0.14581400  0.49876600  1
  O  O80  1  0.18947800  0.78505200  0.24723500  1
  O  O81  1  0.85399700  0.81642800  0.92947900  1
  O  O82  1  0.53621200  0.69409400  0.58170100  1
  O  O83  1  0.87590800  0.50977100  0.88519800  1
