# generated using pymatgen
data_Li2TiCo2O5
_symmetry_space_group_name_H-M   'P 1'
_cell_length_a   5.22210200
_cell_length_b   14.66260400
_cell_length_c   5.25637924
_cell_angle_alpha   90.00000000
_cell_angle_beta   112.10237168
_cell_angle_gamma   90.00000000
_symmetry_Int_Tables_number   1
_chemical_formula_structural   Li2TiCo2O5
_chemical_formula_sum   'Li8 Ti4 Co8 O20'
_cell_volume   372.90198183
_cell_formula_units_Z   4
loop_
 _symmetry_equiv_pos_site_id
 _symmetry_equiv_pos_as_xyz
  1  'x, y, z'
loop_
 _atom_site_type_symbol
 _atom_site_label
 _atom_site_symmetry_multiplicity
 _atom_site_fract_x
 _atom_site_fract_y
 _atom_site_fract_z
 _atom_site_occupancy
  Li  Li0  1  0.50000000  0.39761600  0.00000000  1
  Li  Li1  1  0.50000000  0.29860200  0.50000000  1
  Li  Li2  1  0.00000000  0.49976200  0.00000000  1
  Li  Li3  1  0.00000000  0.20213400  0.50000000  1
  Li  Li4  1  0.00000000  0.89761600  0.00000000  1
  Li  Li5  1  0.00000000  0.79860200  0.50000000  1
  Li  Li6  1  0.50000000  0.99976200  0.00000000  1
  Li  Li7  1  0.50000000  0.70213400  0.50000000  1
  Ti  Ti8  1  0.00000000  0.30494500  0.00000000  1
  Ti  Ti9  1  0.00000000  0.00187900  0.50000000  1
  Ti  Ti10  1  0.50000000  0.80494500  0.00000000  1
  Ti  Ti11  1  0.50000000  0.50187900  0.50000000  1
  Co  Co12  1  0.50000000  0.19990400  0.00000000  1
  Co  Co13  1  0.50000000  0.10495400  0.50000000  1
  Co  Co14  1  0.00000000  0.09882400  0.00000000  1
  Co  Co15  1  0.00000000  0.39644600  0.50000000  1
  Co  Co16  1  0.00000000  0.69990400  0.00000000  1
  Co  Co17  1  0.00000000  0.60495400  0.50000000  1
  Co  Co18  1  0.50000000  0.59882400  0.00000000  1
  Co  Co19  1  0.50000000  0.89644600  0.50000000  1
  O  O20  1  0.75673350  0.09231650  0.26333300  1
  O  O21  1  0.75548350  0.20336350  0.76685300  1
  O  O22  1  0.24825000  0.39915200  0.25063600  1
  O  O23  1  0.24451650  0.20336350  0.23314700  1
  O  O24  1  0.24326650  0.09231650  0.73666700  1
  O  O25  1  0.77083650  0.00018750  0.72922500  1
  O  O26  1  0.22375350  0.30004850  0.77476300  1
  O  O27  1  0.22916350  0.00018750  0.27077500  1
  O  O28  1  0.77624650  0.30004850  0.22523700  1
  O  O29  1  0.75175000  0.39915200  0.74936400  1
  O  O30  1  0.25673350  0.59231650  0.26333300  1
  O  O31  1  0.25548350  0.70336350  0.76685300  1
  O  O32  1  0.74825000  0.89915200  0.25063600  1
  O  O33  1  0.74451650  0.70336350  0.23314700  1
  O  O34  1  0.74326650  0.59231650  0.73666700  1
  O  O35  1  0.27083650  0.50018750  0.72922500  1
  O  O36  1  0.72375350  0.80004850  0.77476300  1
  O  O37  1  0.72916350  0.50018750  0.27077500  1
  O  O38  1  0.27624650  0.80004850  0.22523700  1
  O  O39  1  0.25175000  0.89915200  0.74936400  1
