# generated using pymatgen
data_Li2HfO3
_symmetry_space_group_name_H-M   'P 1'
_cell_length_a   9.61867400
_cell_length_b   4.18036000
_cell_length_c   3.16229686
_cell_angle_alpha   90.00000000
_cell_angle_beta   102.04567301
_cell_angle_gamma   90.00000000
_symmetry_Int_Tables_number   1
_chemical_formula_structural   Li2HfO3
_chemical_formula_sum   'Li4 Hf2 O6'
_cell_volume   124.35469593
_cell_formula_units_Z   2
loop_
 _symmetry_equiv_pos_site_id
 _symmetry_equiv_pos_as_xyz
  1  'x, y, z'
loop_
 _atom_site_type_symbol
 _atom_site_label
 _atom_site_symmetry_multiplicity
 _atom_site_fract_x
 _atom_site_fract_y
 _atom_site_fract_z
 _atom_site_occupancy
  Li  Li0  1  0.16426600  0.50000000  0.59913700  1
  Li  Li1  1  0.33573400  0.00000000  0.40086300  1
  Li  Li2  1  0.66426600  0.00000000  0.59913700  1
  Li  Li3  1  0.83573400  0.50000000  0.40086300  1
  Hf  Hf4  1  0.00000000  0.00000000  0.00000000  1
  Hf  Hf5  1  0.50000000  0.50000000  0.00000000  1
  O  O6  1  0.35357100  0.50000000  0.40514300  1
  O  O7  1  0.00000000  0.50000000  0.00000000  1
  O  O8  1  0.14642900  0.00000000  0.59485700  1
  O  O9  1  0.85357100  0.00000000  0.40514300  1
  O  O10  1  0.50000000  0.00000000  0.00000000  1
  O  O11  1  0.64642900  0.50000000  0.59485700  1
