# generated using pymatgen
data_LiFe2(BO3)2
_symmetry_space_group_name_H-M   'P 1'
_cell_length_a   5.28321300
_cell_length_b   8.93649800
_cell_length_c   10.34232958
_cell_angle_alpha   90.00000000
_cell_angle_beta   91.16383092
_cell_angle_gamma   90.00000000
_symmetry_Int_Tables_number   1
_chemical_formula_structural   LiFe2(BO3)2
_chemical_formula_sum   'Li4 Fe8 B8 O24'
_cell_volume   488.19604153
_cell_formula_units_Z   4
loop_
 _symmetry_equiv_pos_site_id
 _symmetry_equiv_pos_as_xyz
  1  'x, y, z'
loop_
 _atom_site_type_symbol
 _atom_site_label
 _atom_site_symmetry_multiplicity
 _atom_site_fract_x
 _atom_site_fract_y
 _atom_site_fract_z
 _atom_site_occupancy
  Li  Li0  1  0.65832400  0.00921300  0.16342000  1
  Li  Li1  1  0.34301300  0.00467900  0.91385300  1
  Li  Li2  1  0.65832400  0.99078700  0.66342000  1
  Li  Li3  1  0.34301300  0.99532100  0.41385300  1
  Fe  Fe4  1  0.85128400  0.17821100  0.88111700  1
  Fe  Fe5  1  0.14837100  0.17502500  0.63029300  1
  Fe  Fe6  1  0.66682000  0.34123900  0.13376500  1
  Fe  Fe7  1  0.33876500  0.33623500  0.37474500  1
  Fe  Fe8  1  0.66682000  0.65876100  0.63376500  1
  Fe  Fe9  1  0.85128400  0.82178900  0.38111700  1
  Fe  Fe10  1  0.33876500  0.66376500  0.87474500  1
  Fe  Fe11  1  0.14837100  0.82497500  0.13029300  1
  B  B12  1  0.82828500  0.16748500  0.36890100  1
  B  B13  1  0.65850700  0.32522500  0.62290000  1
  B  B14  1  0.17685500  0.16511900  0.13082000  1
  B  B15  1  0.34353000  0.32924500  0.88419500  1
  B  B16  1  0.65850700  0.67477500  0.12290000  1
  B  B17  1  0.34353000  0.67075500  0.38419500  1
  B  B18  1  0.82828500  0.83251500  0.86890100  1
  B  B19  1  0.17685500  0.83488100  0.63082000  1
  O  O20  1  0.69813500  0.03402500  0.36676500  1
  O  O21  1  0.91607400  0.17387600  0.10329700  1
  O  O22  1  0.30406500  0.03384000  0.10948300  1
  O  O23  1  0.77858400  0.19649000  0.67100900  1
  O  O24  1  0.70287100  0.29831500  0.33026500  1
  O  O25  1  0.22146500  0.19819900  0.84102500  1
  O  O26  1  0.08244600  0.17388400  0.40690700  1
  O  O27  1  0.57789000  0.31087300  0.94669700  1
  O  O28  1  0.77053800  0.46060500  0.63692500  1
  O  O29  1  0.42423300  0.30698800  0.56153300  1
  O  O30  1  0.30730100  0.29055000  0.17641000  1
  O  O31  1  0.77053800  0.53939500  0.13692500  1
  O  O32  1  0.23622000  0.46567300  0.86492100  1
  O  O33  1  0.70287100  0.70168500  0.83026500  1
  O  O34  1  0.57789000  0.68912700  0.44669700  1
  O  O35  1  0.23622000  0.53432700  0.36492100  1
  O  O36  1  0.42423300  0.69301200  0.06153300  1
  O  O37  1  0.91607400  0.82612400  0.60329700  1
  O  O38  1  0.77858400  0.80351000  0.17100900  1
  O  O39  1  0.30730100  0.70945000  0.67641000  1
  O  O40  1  0.22146500  0.80180100  0.34102500  1
  O  O41  1  0.69813500  0.96597500  0.86676500  1
  O  O42  1  0.08244600  0.82611600  0.90690700  1
  O  O43  1  0.30406500  0.96616000  0.60948300  1
