# generated using pymatgen
data_LiNb(PO3)4
_symmetry_space_group_name_H-M   'P 1'
_cell_length_a   9.97960900
_cell_length_b   11.95424000
_cell_length_c   17.11503300
_cell_angle_alpha   90.00000000
_cell_angle_beta   90.00000000
_cell_angle_gamma   90.00000000
_symmetry_Int_Tables_number   1
_chemical_formula_structural   LiNb(PO3)4
_chemical_formula_sum   'Li8 Nb8 P32 O96'
_cell_volume   2041.80017915
_cell_formula_units_Z   8
loop_
 _symmetry_equiv_pos_site_id
 _symmetry_equiv_pos_as_xyz
  1  'x, y, z'
loop_
 _atom_site_type_symbol
 _atom_site_label
 _atom_site_symmetry_multiplicity
 _atom_site_fract_x
 _atom_site_fract_y
 _atom_site_fract_z
 _atom_site_occupancy
  Li  Li0  1  0.14636450  0.94062350  0.63976000  1
  Li  Li1  1  0.85363550  0.94062350  0.86024000  1
  Li  Li2  1  0.85363550  0.05937650  0.13976000  1
  Li  Li3  1  0.14636450  0.05937650  0.36024000  1
  Li  Li4  1  0.64636450  0.44062350  0.63976000  1
  Li  Li5  1  0.35363550  0.44062350  0.86024000  1
  Li  Li6  1  0.35363550  0.55937650  0.13976000  1
  Li  Li7  1  0.64636450  0.55937650  0.36024000  1
  Nb  Nb8  1  0.78355100  0.19755100  0.86657500  1
  Nb  Nb9  1  0.21644900  0.19755100  0.63342500  1
  Nb  Nb10  1  0.21644900  0.80244900  0.36657500  1
  Nb  Nb11  1  0.78355100  0.80244900  0.13342500  1
  Nb  Nb12  1  0.28355100  0.69755100  0.86657500  1
  Nb  Nb13  1  0.71644900  0.69755100  0.63342500  1
  Nb  Nb14  1  0.71644900  0.30244900  0.36657500  1
  Nb  Nb15  1  0.28355100  0.30244900  0.13342500  1
  P  P16  1  0.39304050  0.35571650  0.34035400  1
  P  P17  1  0.60695950  0.35571650  0.15964600  1
  P  P18  1  0.54886600  0.23258700  0.01448700  1
  P  P19  1  0.45113400  0.23258700  0.48551300  1
  P  P20  1  0.50000000  0.13224000  0.75000000  1
  P  P21  1  0.70076200  0.03001200  0.30934700  1
  P  P22  1  0.29923800  0.03001200  0.19065300  1
  P  P23  1  0.34833700  0.00000000  0.50000000  1
  P  P24  1  0.65166300  0.00000000  0.00000000  1
  P  P25  1  0.29923800  0.96998800  0.80934700  1
  P  P26  1  0.70076200  0.96998800  0.69065300  1
  P  P27  1  0.50000000  0.86776000  0.25000000  1
  P  P28  1  0.54886600  0.76741300  0.98551300  1
  P  P29  1  0.45113400  0.76741300  0.51448700  1
  P  P30  1  0.39304050  0.64428350  0.65964600  1
  P  P31  1  0.60695950  0.64428350  0.84035400  1
  P  P32  1  0.89304050  0.85571650  0.34035400  1
  P  P33  1  0.10695950  0.85571650  0.15964600  1
  P  P34  1  0.04886600  0.73258700  0.01448700  1
  P  P35  1  0.95113400  0.73258700  0.48551300  1
  P  P36  1  0.00000000  0.63224000  0.75000000  1
  P  P37  1  0.20076200  0.53001200  0.30934700  1
  P  P38  1  0.79923800  0.53001200  0.19065300  1
  P  P39  1  0.84833700  0.50000000  0.50000000  1
  P  P40  1  0.15166300  0.50000000  0.00000000  1
  P  P41  1  0.79923800  0.46998800  0.80934700  1
  P  P42  1  0.20076200  0.46998800  0.69065300  1
  P  P43  1  0.00000000  0.36776000  0.25000000  1
  P  P44  1  0.04886600  0.26741300  0.98551300  1
  P  P45  1  0.95113400  0.26741300  0.51448700  1
  P  P46  1  0.89304050  0.14428350  0.65964600  1
  P  P47  1  0.10695950  0.14428350  0.84035400  1
  O  O48  1  0.53320750  0.40425350  0.35207500  1
  O  O49  1  0.46679250  0.40425350  0.14792500  1
  O  O50  1  0.65071700  0.30130200  0.23374800  1
  O  O51  1  0.34928300  0.30130200  0.26625200  1
  O  O52  1  0.59197800  0.27529900  0.47821100  1
  O  O53  1  0.40802200  0.27529900  0.02178900  1
  O  O54  1  0.63438500  0.26465600  0.09143600  1
  O  O55  1  0.36561500  0.26465600  0.40856400  1
  O  O56  1  0.37096950  0.26586750  0.55604000  1
  O  O57  1  0.62903050  0.26586750  0.94396000  1
  O  O58  1  0.60078500  0.19848100  0.79532900  1
  O  O59  1  0.39921500  0.19848100  0.70467100  1
  O  O60  1  0.66071150  0.13151650  0.35483000  1
  O  O61  1  0.33928850  0.13151650  0.14517000  1
  O  O62  1  0.45216050  0.09737850  0.47969000  1
  O  O63  1  0.54783950  0.09737850  0.02031000  1
  O  O64  1  0.79693200  0.04305000  0.63360400  1
  O  O65  1  0.20306800  0.04305000  0.86639600  1
  O  O66  1  0.56932050  0.04840250  0.68923500  1
  O  O67  1  0.43067950  0.04840250  0.81076500  1
  O  O68  1  0.26804350  0.02869750  0.57220500  1
  O  O69  1  0.73195650  0.02869750  0.92779500  1
  O  O70  1  0.23853000  0.04259500  0.26906300  1
  O  O71  1  0.76147000  0.04259500  0.23093700  1
  O  O72  1  0.23853000  0.95740500  0.73093700  1
  O  O73  1  0.76147000  0.95740500  0.76906300  1
  O  O74  1  0.26804350  0.97130250  0.42779500  1
  O  O75  1  0.73195650  0.97130250  0.07220500  1
  O  O76  1  0.56932050  0.95159750  0.31076500  1
  O  O77  1  0.43067950  0.95159750  0.18923500  1
  O  O78  1  0.20306800  0.95695000  0.13360400  1
  O  O79  1  0.79693200  0.95695000  0.36639600  1
  O  O80  1  0.54783950  0.90262150  0.97969000  1
  O  O81  1  0.45216050  0.90262150  0.52031000  1
  O  O82  1  0.66071150  0.86848350  0.64517000  1
  O  O83  1  0.33928850  0.86848350  0.85483000  1
  O  O84  1  0.60078500  0.80151900  0.20467100  1
  O  O85  1  0.39921500  0.80151900  0.29532900  1
  O  O86  1  0.37096950  0.73413250  0.44396000  1
  O  O87  1  0.62903050  0.73413250  0.05604000  1
  O  O88  1  0.36561500  0.73534400  0.59143600  1
  O  O89  1  0.63438500  0.73534400  0.90856400  1
  O  O90  1  0.59197800  0.72470100  0.52178900  1
  O  O91  1  0.40802200  0.72470100  0.97821100  1
  O  O92  1  0.34928300  0.69869800  0.73374800  1
  O  O93  1  0.65071700  0.69869800  0.76625200  1
  O  O94  1  0.53320750  0.59574650  0.64792500  1
  O  O95  1  0.46679250  0.59574650  0.85207500  1
  O  O96  1  0.03320750  0.90425350  0.35207500  1
  O  O97  1  0.96679250  0.90425350  0.14792500  1
  O  O98  1  0.15071700  0.80130200  0.23374800  1
  O  O99  1  0.84928300  0.80130200  0.26625200  1
  O  O100  1  0.09197800  0.77529900  0.47821100  1
  O  O101  1  0.90802200  0.77529900  0.02178900  1
  O  O102  1  0.13438500  0.76465600  0.09143600  1
  O  O103  1  0.86561500  0.76465600  0.40856400  1
  O  O104  1  0.87096950  0.76586750  0.55604000  1
  O  O105  1  0.12903050  0.76586750  0.94396000  1
  O  O106  1  0.10078500  0.69848100  0.79532900  1
  O  O107  1  0.89921500  0.69848100  0.70467100  1
  O  O108  1  0.16071150  0.63151650  0.35483000  1
  O  O109  1  0.83928850  0.63151650  0.14517000  1
  O  O110  1  0.95216050  0.59737850  0.47969000  1
  O  O111  1  0.04783950  0.59737850  0.02031000  1
  O  O112  1  0.29693200  0.54305000  0.63360400  1
  O  O113  1  0.70306800  0.54305000  0.86639600  1
  O  O114  1  0.06932050  0.54840250  0.68923500  1
  O  O115  1  0.93067950  0.54840250  0.81076500  1
  O  O116  1  0.76804350  0.52869750  0.57220500  1
  O  O117  1  0.23195650  0.52869750  0.92779500  1
  O  O118  1  0.73853000  0.54259500  0.26906300  1
  O  O119  1  0.26147000  0.54259500  0.23093700  1
  O  O120  1  0.73853000  0.45740500  0.73093700  1
  O  O121  1  0.26147000  0.45740500  0.76906300  1
  O  O122  1  0.76804350  0.47130250  0.42779500  1
  O  O123  1  0.23195650  0.47130250  0.07220500  1
  O  O124  1  0.06932050  0.45159750  0.31076500  1
  O  O125  1  0.93067950  0.45159750  0.18923500  1
  O  O126  1  0.70306800  0.45695000  0.13360400  1
  O  O127  1  0.29693200  0.45695000  0.36639600  1
  O  O128  1  0.04783950  0.40262150  0.97969000  1
  O  O129  1  0.95216050  0.40262150  0.52031000  1
  O  O130  1  0.16071150  0.36848350  0.64517000  1
  O  O131  1  0.83928850  0.36848350  0.85483000  1
  O  O132  1  0.10078500  0.30151900  0.20467100  1
  O  O133  1  0.89921500  0.30151900  0.29532900  1
  O  O134  1  0.87096950  0.23413250  0.44396000  1
  O  O135  1  0.12903050  0.23413250  0.05604000  1
  O  O136  1  0.86561500  0.23534400  0.59143600  1
  O  O137  1  0.13438500  0.23534400  0.90856400  1
  O  O138  1  0.09197800  0.22470100  0.52178900  1
  O  O139  1  0.90802200  0.22470100  0.97821100  1
  O  O140  1  0.84928300  0.19869800  0.73374800  1
  O  O141  1  0.15071700  0.19869800  0.76625200  1
  O  O142  1  0.03320750  0.09574650  0.64792500  1
  O  O143  1  0.96679250  0.09574650  0.85207500  1
