# generated using pymatgen
data_Ba2YBr7
_symmetry_space_group_name_H-M   'P 1'
_cell_length_a   7.59506200
_cell_length_b   14.43205500
_cell_length_c   13.27807921
_cell_angle_alpha   90.00000000
_cell_angle_beta   96.83220106
_cell_angle_gamma   90.00000000
_symmetry_Int_Tables_number   1
_chemical_formula_structural   Ba2YBr7
_chemical_formula_sum   'Ba8 Y4 Br28'
_cell_volume   1445.10612732
_cell_formula_units_Z   4
loop_
 _symmetry_equiv_pos_site_id
 _symmetry_equiv_pos_as_xyz
  1  'x, y, z'
loop_
 _atom_site_type_symbol
 _atom_site_label
 _atom_site_symmetry_multiplicity
 _atom_site_fract_x
 _atom_site_fract_y
 _atom_site_fract_z
 _atom_site_occupancy
  Ba  Ba0  1  0.23080500  0.45565200  0.74400200  1
  Ba  Ba1  1  0.26486500  0.86369900  0.62474100  1
  Ba  Ba2  1  0.25260000  0.21449500  0.12505500  1
  Ba  Ba3  1  0.29827400  0.63101300  0.23318400  1
  Ba  Ba4  1  0.70172600  0.13101300  0.76681600  1
  Ba  Ba5  1  0.74740000  0.71449500  0.87494500  1
  Ba  Ba6  1  0.73513500  0.36369900  0.37525900  1
  Ba  Ba7  1  0.76919500  0.95565200  0.25599800  1
  Y  Y8  1  0.18678900  0.15505000  0.54713500  1
  Y  Y9  1  0.20467900  0.92385100  0.04439400  1
  Y  Y10  1  0.79532100  0.42385100  0.95560600  1
  Y  Y11  1  0.81321100  0.65505000  0.45286500  1
  Br  Br12  1  0.03768000  0.29400900  0.89015500  1
  Br  Br13  1  0.05886100  0.56279000  0.98370300  1
  Br  Br14  1  0.04193400  0.50280900  0.50234500  1
  Br  Br15  1  0.11593300  0.84860700  0.85558000  1
  Br  Br16  1  0.08978100  0.76682200  0.39426600  1
  Br  Br17  1  0.10729200  0.22868800  0.35596900  1
  Br  Br18  1  0.20877800  0.08517600  0.74429900  1
  Br  Br19  1  0.22776500  0.98951800  0.24455400  1
  Br  Br20  1  0.38378600  0.66389000  0.72730600  1
  Br  Br21  1  0.37723000  0.41294500  0.22445600  1
  Br  Br22  1  0.42968500  0.29848500  0.60730400  1
  Br  Br23  1  0.52053300  0.29478000  0.90270300  1
  Br  Br24  1  0.48153000  0.04538600  0.52959600  1
  Br  Br25  1  0.53479200  0.54928500  0.98899400  1
  Br  Br26  1  0.46520800  0.04928500  0.01100600  1
  Br  Br27  1  0.51847000  0.54538600  0.47040400  1
  Br  Br28  1  0.47946700  0.79478000  0.09729700  1
  Br  Br29  1  0.57031500  0.79848500  0.39269600  1
  Br  Br30  1  0.62277000  0.91294500  0.77554400  1
  Br  Br31  1  0.61621400  0.16389000  0.27269400  1
  Br  Br32  1  0.77223500  0.48951800  0.75544600  1
  Br  Br33  1  0.79122200  0.58517600  0.25570100  1
  Br  Br34  1  0.89270800  0.72868800  0.64403100  1
  Br  Br35  1  0.91021900  0.26682200  0.60573400  1
  Br  Br36  1  0.88406700  0.34860700  0.14442000  1
  Br  Br37  1  0.95806600  0.00280900  0.49765500  1
  Br  Br38  1  0.94113900  0.06279000  0.01629700  1
  Br  Br39  1  0.96232000  0.79400900  0.10984500  1
