# generated using pymatgen
data_Na6Ti2O7
_symmetry_space_group_name_H-M   'P 1'
_cell_length_a   8.11744000
_cell_length_b   8.76401200
_cell_length_c   12.48096246
_cell_angle_alpha   90.00000000
_cell_angle_beta   105.34743870
_cell_angle_gamma   90.00000000
_symmetry_Int_Tables_number   1
_chemical_formula_structural   Na6Ti2O7
_chemical_formula_sum   'Na24 Ti8 O28'
_cell_volume   856.24822332
_cell_formula_units_Z   4
loop_
 _symmetry_equiv_pos_site_id
 _symmetry_equiv_pos_as_xyz
  1  'x, y, z'
loop_
 _atom_site_type_symbol
 _atom_site_label
 _atom_site_symmetry_multiplicity
 _atom_site_fract_x
 _atom_site_fract_y
 _atom_site_fract_z
 _atom_site_occupancy
  Na  Na0  1  0.40435350  0.64513550  0.41874100  1
  Na  Na1  1  0.26893700  0.77981900  0.13434300  1
  Na  Na2  1  0.50000000  0.00000000  0.50000000  1
  Na  Na3  1  0.50000000  0.06446100  0.25000000  1
  Na  Na4  1  0.40435350  0.35486450  0.91874100  1
  Na  Na5  1  0.26893700  0.22018100  0.63434300  1
  Na  Na6  1  0.73106300  0.77981900  0.36565700  1
  Na  Na7  1  0.59564650  0.64513550  0.08125900  1
  Na  Na8  1  0.50000000  0.93553900  0.75000000  1
  Na  Na9  1  0.73106300  0.22018100  0.86565700  1
  Na  Na10  1  0.59564650  0.35486450  0.58125900  1
  Na  Na11  1  0.50000000  0.00000000  0.00000000  1
  Na  Na12  1  0.90435350  0.14513550  0.41874100  1
  Na  Na13  1  0.76893700  0.27981900  0.13434300  1
  Na  Na14  1  0.00000000  0.50000000  0.50000000  1
  Na  Na15  1  0.00000000  0.56446100  0.25000000  1
  Na  Na16  1  0.90435350  0.85486450  0.91874100  1
  Na  Na17  1  0.76893700  0.72018100  0.63434300  1
  Na  Na18  1  0.23106300  0.27981900  0.36565700  1
  Na  Na19  1  0.09564650  0.14513550  0.08125900  1
  Na  Na20  1  0.00000000  0.43553900  0.75000000  1
  Na  Na21  1  0.23106300  0.72018100  0.86565700  1
  Na  Na22  1  0.09564650  0.85486450  0.58125900  1
  Na  Na23  1  0.00000000  0.50000000  0.00000000  1
  Ti  Ti24  1  0.84580800  0.91876500  0.13955700  1
  Ti  Ti25  1  0.15419200  0.91876500  0.36044300  1
  Ti  Ti26  1  0.84580800  0.08123500  0.63955700  1
  Ti  Ti27  1  0.15419200  0.08123500  0.86044300  1
  Ti  Ti28  1  0.34580800  0.41876500  0.13955700  1
  Ti  Ti29  1  0.65419200  0.41876500  0.36044300  1
  Ti  Ti30  1  0.34580800  0.58123500  0.63955700  1
  Ti  Ti31  1  0.65419200  0.58123500  0.86044300  1
  O  O32  1  0.44880200  0.24730900  0.10746800  1
  O  O33  1  0.44880200  0.75269100  0.60746800  1
  O  O34  1  0.35204650  0.87789950  0.32291200  1
  O  O35  1  0.79795950  0.04931650  0.02145000  1
  O  O36  1  0.50000000  0.53750700  0.25000000  1
  O  O37  1  0.20204050  0.04931650  0.47855000  1
  O  O38  1  0.35204650  0.12210050  0.82291200  1
  O  O39  1  0.64795350  0.87789950  0.17708800  1
  O  O40  1  0.79795950  0.95068350  0.52145000  1
  O  O41  1  0.50000000  0.46249300  0.75000000  1
  O  O42  1  0.20204050  0.95068350  0.97855000  1
  O  O43  1  0.64795350  0.12210050  0.67708800  1
  O  O44  1  0.55119800  0.24730900  0.39253200  1
  O  O45  1  0.55119800  0.75269100  0.89253200  1
  O  O46  1  0.94880200  0.74730900  0.10746800  1
  O  O47  1  0.94880200  0.25269100  0.60746800  1
  O  O48  1  0.85204650  0.37789950  0.32291200  1
  O  O49  1  0.29795950  0.54931650  0.02145000  1
  O  O50  1  0.00000000  0.03750700  0.25000000  1
  O  O51  1  0.70204050  0.54931650  0.47855000  1
  O  O52  1  0.85204650  0.62210050  0.82291200  1
  O  O53  1  0.14795350  0.37789950  0.17708800  1
  O  O54  1  0.29795950  0.45068350  0.52145000  1
  O  O55  1  0.00000000  0.96249300  0.75000000  1
  O  O56  1  0.70204050  0.45068350  0.97855000  1
  O  O57  1  0.14795350  0.62210050  0.67708800  1
  O  O58  1  0.05119800  0.74730900  0.39253200  1
  O  O59  1  0.05119800  0.25269100  0.89253200  1
