# generated using pymatgen
data_Li4Co2C4SO16
_symmetry_space_group_name_H-M   'P 1'
_cell_length_a   12.95265200
_cell_length_b   13.14184200
_cell_length_c   14.07741800
_cell_angle_alpha   90.00000000
_cell_angle_beta   90.00000000
_cell_angle_gamma   90.00000000
_symmetry_Int_Tables_number   1
_chemical_formula_structural   Li4Co2C4SO16
_chemical_formula_sum   'Li32 Co16 C32 S8 O128'
_cell_volume   2396.28210895
_cell_formula_units_Z   8
loop_
 _symmetry_equiv_pos_site_id
 _symmetry_equiv_pos_as_xyz
  1  'x, y, z'
loop_
 _atom_site_type_symbol
 _atom_site_label
 _atom_site_symmetry_multiplicity
 _atom_site_fract_x
 _atom_site_fract_y
 _atom_site_fract_z
 _atom_site_occupancy
  Li  Li0  1  0.75000000  0.45502400  0.25000000  1
  Li  Li1  1  0.54431500  0.25000000  0.25000000  1
  Li  Li2  1  0.29431500  0.00000000  0.00000000  1
  Li  Li3  1  0.50000000  0.20502400  0.00000000  1
  Li  Li4  1  0.75000000  0.04497600  0.25000000  1
  Li  Li5  1  0.95568500  0.25000000  0.25000000  1
  Li  Li6  1  0.70568500  0.00000000  0.00000000  1
  Li  Li7  1  0.50000000  0.79497600  0.00000000  1
  Li  Li8  1  0.75000000  0.95502400  0.75000000  1
  Li  Li9  1  0.54431500  0.75000000  0.75000000  1
  Li  Li10  1  0.29431500  0.50000000  0.50000000  1
  Li  Li11  1  0.50000000  0.70502400  0.50000000  1
  Li  Li12  1  0.75000000  0.54497600  0.75000000  1
  Li  Li13  1  0.95568500  0.75000000  0.75000000  1
  Li  Li14  1  0.70568500  0.50000000  0.50000000  1
  Li  Li15  1  0.50000000  0.29497600  0.50000000  1
  Li  Li16  1  0.25000000  0.45502400  0.75000000  1
  Li  Li17  1  0.04431500  0.25000000  0.75000000  1
  Li  Li18  1  0.79431500  0.00000000  0.50000000  1
  Li  Li19  1  0.00000000  0.20502400  0.50000000  1
  Li  Li20  1  0.25000000  0.04497600  0.75000000  1
  Li  Li21  1  0.45568500  0.25000000  0.75000000  1
  Li  Li22  1  0.20568500  0.00000000  0.50000000  1
  Li  Li23  1  0.00000000  0.79497600  0.50000000  1
  Li  Li24  1  0.25000000  0.95502400  0.25000000  1
  Li  Li25  1  0.04431500  0.75000000  0.25000000  1
  Li  Li26  1  0.79431500  0.50000000  0.00000000  1
  Li  Li27  1  0.00000000  0.70502400  0.00000000  1
  Li  Li28  1  0.25000000  0.54497600  0.25000000  1
  Li  Li29  1  0.45568500  0.75000000  0.25000000  1
  Li  Li30  1  0.20568500  0.50000000  0.00000000  1
  Li  Li31  1  0.00000000  0.29497600  0.00000000  1
  Co  Co32  1  0.87500000  0.62500000  0.37500000  1
  Co  Co33  1  0.62500000  0.87500000  0.37500000  1
  Co  Co34  1  0.62500000  0.62500000  0.12500000  1
  Co  Co35  1  0.87500000  0.87500000  0.12500000  1
  Co  Co36  1  0.87500000  0.12500000  0.87500000  1
  Co  Co37  1  0.62500000  0.37500000  0.87500000  1
  Co  Co38  1  0.62500000  0.12500000  0.62500000  1
  Co  Co39  1  0.87500000  0.37500000  0.62500000  1
  Co  Co40  1  0.37500000  0.62500000  0.87500000  1
  Co  Co41  1  0.12500000  0.87500000  0.87500000  1
  Co  Co42  1  0.12500000  0.62500000  0.62500000  1
  Co  Co43  1  0.37500000  0.87500000  0.62500000  1
  Co  Co44  1  0.37500000  0.12500000  0.37500000  1
  Co  Co45  1  0.12500000  0.37500000  0.37500000  1
  Co  Co46  1  0.12500000  0.12500000  0.12500000  1
  Co  Co47  1  0.37500000  0.37500000  0.12500000  1
  C  C48  1  0.59775350  0.40567850  0.08685000  1
  C  C49  1  0.34775350  0.15567850  0.16315000  1
  C  C50  1  0.90224650  0.40567850  0.41315000  1
  C  C51  1  0.59775350  0.09432150  0.41315000  1
  C  C52  1  0.15224650  0.15567850  0.33685000  1
  C  C53  1  0.84775350  0.84432150  0.33685000  1
  C  C54  1  0.90224650  0.09432150  0.08685000  1
  C  C55  1  0.65224650  0.84432150  0.16315000  1
  C  C56  1  0.59775350  0.90567850  0.58685000  1
  C  C57  1  0.34775350  0.65567850  0.66315000  1
  C  C58  1  0.90224650  0.90567850  0.91315000  1
  C  C59  1  0.59775350  0.59432150  0.91315000  1
  C  C60  1  0.15224650  0.65567850  0.83685000  1
  C  C61  1  0.84775350  0.34432150  0.83685000  1
  C  C62  1  0.90224650  0.59432150  0.58685000  1
  C  C63  1  0.65224650  0.34432150  0.66315000  1
  C  C64  1  0.09775350  0.40567850  0.58685000  1
  C  C65  1  0.84775350  0.15567850  0.66315000  1
  C  C66  1  0.40224650  0.40567850  0.91315000  1
  C  C67  1  0.09775350  0.09432150  0.91315000  1
  C  C68  1  0.65224650  0.15567850  0.83685000  1
  C  C69  1  0.34775350  0.84432150  0.83685000  1
  C  C70  1  0.40224650  0.09432150  0.58685000  1
  C  C71  1  0.15224650  0.84432150  0.66315000  1
  C  C72  1  0.09775350  0.90567850  0.08685000  1
  C  C73  1  0.84775350  0.65567850  0.16315000  1
  C  C74  1  0.40224650  0.90567850  0.41315000  1
  C  C75  1  0.09775350  0.59432150  0.41315000  1
  C  C76  1  0.65224650  0.65567850  0.33685000  1
  C  C77  1  0.34775350  0.34432150  0.33685000  1
  C  C78  1  0.40224650  0.59432150  0.08685000  1
  C  C79  1  0.15224650  0.34432150  0.16315000  1
  S  S80  1  0.50000000  0.00000000  0.00000000  1
  S  S81  1  0.75000000  0.25000000  0.25000000  1
  S  S82  1  0.50000000  0.50000000  0.50000000  1
  S  S83  1  0.75000000  0.75000000  0.75000000  1
  S  S84  1  0.00000000  0.00000000  0.50000000  1
  S  S85  1  0.25000000  0.25000000  0.75000000  1
  S  S86  1  0.00000000  0.50000000  0.00000000  1
  S  S87  1  0.25000000  0.75000000  0.25000000  1
  O  O88  1  0.11031900  0.97541900  0.15072800  1
  O  O89  1  0.43157350  0.93213800  0.05739450  1
  O  O90  1  0.15706950  0.90228600  0.01349750  1
  O  O91  1  0.40706950  0.15228600  0.23650250  1
  O  O92  1  0.34293050  0.90228600  0.48650250  1
  O  O93  1  0.27604100  0.08787800  0.15138400  1
  O  O94  1  0.06842650  0.93213800  0.44260550  1
  O  O95  1  0.56842650  0.06786200  0.05739450  1
  O  O96  1  0.77604100  0.91212200  0.34861600  1
  O  O97  1  0.65706950  0.09771400  0.48650250  1
  O  O98  1  0.36031900  0.22541900  0.09927200  1
  O  O99  1  0.93157350  0.06786200  0.44260550  1
  O  O100  1  0.38968100  0.97541900  0.34927200  1
  O  O101  1  0.61031900  0.02458100  0.34927200  1
  O  O102  1  0.52604100  0.33787800  0.09861600  1
  O  O103  1  0.22395900  0.08787800  0.34861600  1
  O  O104  1  0.02604100  0.66212200  0.40138400  1
  O  O105  1  0.72395900  0.91212200  0.15138400  1
  O  O106  1  0.13968100  0.22541900  0.40072800  1
  O  O107  1  0.86031900  0.77458100  0.40072800  1
  O  O108  1  0.81842650  0.18213800  0.30739450  1
  O  O109  1  0.88968100  0.02458100  0.15072800  1
  O  O110  1  0.09293050  0.15228600  0.26349750  1
  O  O111  1  0.97395900  0.33787800  0.40138400  1
  O  O112  1  0.68157350  0.18213800  0.19260550  1
  O  O113  1  0.68157350  0.31786200  0.30739450  1
  O  O114  1  0.47395900  0.66212200  0.09861600  1
  O  O115  1  0.90706950  0.84771400  0.26349750  1
  O  O116  1  0.84293050  0.09771400  0.01349750  1
  O  O117  1  0.59293050  0.84771400  0.23650250  1
  O  O118  1  0.81842650  0.31786200  0.19260550  1
  O  O119  1  0.63968100  0.77458100  0.09927200  1
  O  O120  1  0.11031900  0.47541900  0.65072800  1
  O  O121  1  0.43157350  0.43213800  0.55739450  1
  O  O122  1  0.15706950  0.40228600  0.51349750  1
  O  O123  1  0.40706950  0.65228600  0.73650250  1
  O  O124  1  0.34293050  0.40228600  0.98650250  1
  O  O125  1  0.27604100  0.58787800  0.65138400  1
  O  O126  1  0.06842650  0.43213800  0.94260550  1
  O  O127  1  0.56842650  0.56786200  0.55739450  1
  O  O128  1  0.77604100  0.41212200  0.84861600  1
  O  O129  1  0.65706950  0.59771400  0.98650250  1
  O  O130  1  0.36031900  0.72541900  0.59927200  1
  O  O131  1  0.93157350  0.56786200  0.94260550  1
  O  O132  1  0.38968100  0.47541900  0.84927200  1
  O  O133  1  0.61031900  0.52458100  0.84927200  1
  O  O134  1  0.52604100  0.83787800  0.59861600  1
  O  O135  1  0.22395900  0.58787800  0.84861600  1
  O  O136  1  0.02604100  0.16212200  0.90138400  1
  O  O137  1  0.72395900  0.41212200  0.65138400  1
  O  O138  1  0.13968100  0.72541900  0.90072800  1
  O  O139  1  0.86031900  0.27458100  0.90072800  1
  O  O140  1  0.81842650  0.68213800  0.80739450  1
  O  O141  1  0.88968100  0.52458100  0.65072800  1
  O  O142  1  0.09293050  0.65228600  0.76349750  1
  O  O143  1  0.97395900  0.83787800  0.90138400  1
  O  O144  1  0.68157350  0.68213800  0.69260550  1
  O  O145  1  0.68157350  0.81786200  0.80739450  1
  O  O146  1  0.47395900  0.16212200  0.59861600  1
  O  O147  1  0.90706950  0.34771400  0.76349750  1
  O  O148  1  0.84293050  0.59771400  0.51349750  1
  O  O149  1  0.59293050  0.34771400  0.73650250  1
  O  O150  1  0.81842650  0.81786200  0.69260550  1
  O  O151  1  0.63968100  0.27458100  0.59927200  1
  O  O152  1  0.61031900  0.97541900  0.65072800  1
  O  O153  1  0.93157350  0.93213800  0.55739450  1
  O  O154  1  0.65706950  0.90228600  0.51349750  1
  O  O155  1  0.90706950  0.15228600  0.73650250  1
  O  O156  1  0.84293050  0.90228600  0.98650250  1
  O  O157  1  0.77604100  0.08787800  0.65138400  1
  O  O158  1  0.56842650  0.93213800  0.94260550  1
  O  O159  1  0.06842650  0.06786200  0.55739450  1
  O  O160  1  0.27604100  0.91212200  0.84861600  1
  O  O161  1  0.15706950  0.09771400  0.98650250  1
  O  O162  1  0.86031900  0.22541900  0.59927200  1
  O  O163  1  0.43157350  0.06786200  0.94260550  1
  O  O164  1  0.88968100  0.97541900  0.84927200  1
  O  O165  1  0.11031900  0.02458100  0.84927200  1
  O  O166  1  0.02604100  0.33787800  0.59861600  1
  O  O167  1  0.72395900  0.08787800  0.84861600  1
  O  O168  1  0.52604100  0.66212200  0.90138400  1
  O  O169  1  0.22395900  0.91212200  0.65138400  1
  O  O170  1  0.63968100  0.22541900  0.90072800  1
  O  O171  1  0.36031900  0.77458100  0.90072800  1
  O  O172  1  0.31842650  0.18213800  0.80739450  1
  O  O173  1  0.38968100  0.02458100  0.65072800  1
  O  O174  1  0.59293050  0.15228600  0.76349750  1
  O  O175  1  0.47395900  0.33787800  0.90138400  1
  O  O176  1  0.18157350  0.18213800  0.69260550  1
  O  O177  1  0.18157350  0.31786200  0.80739450  1
  O  O178  1  0.97395900  0.66212200  0.59861600  1
  O  O179  1  0.40706950  0.84771400  0.76349750  1
  O  O180  1  0.34293050  0.09771400  0.51349750  1
  O  O181  1  0.09293050  0.84771400  0.73650250  1
  O  O182  1  0.31842650  0.31786200  0.69260550  1
  O  O183  1  0.13968100  0.77458100  0.59927200  1
  O  O184  1  0.61031900  0.47541900  0.15072800  1
  O  O185  1  0.93157350  0.43213800  0.05739450  1
  O  O186  1  0.65706950  0.40228600  0.01349750  1
  O  O187  1  0.90706950  0.65228600  0.23650250  1
  O  O188  1  0.84293050  0.40228600  0.48650250  1
  O  O189  1  0.77604100  0.58787800  0.15138400  1
  O  O190  1  0.56842650  0.43213800  0.44260550  1
  O  O191  1  0.06842650  0.56786200  0.05739450  1
  O  O192  1  0.27604100  0.41212200  0.34861600  1
  O  O193  1  0.15706950  0.59771400  0.48650250  1
  O  O194  1  0.86031900  0.72541900  0.09927200  1
  O  O195  1  0.43157350  0.56786200  0.44260550  1
  O  O196  1  0.88968100  0.47541900  0.34927200  1
  O  O197  1  0.11031900  0.52458100  0.34927200  1
  O  O198  1  0.02604100  0.83787800  0.09861600  1
  O  O199  1  0.72395900  0.58787800  0.34861600  1
  O  O200  1  0.52604100  0.16212200  0.40138400  1
  O  O201  1  0.22395900  0.41212200  0.15138400  1
  O  O202  1  0.63968100  0.72541900  0.40072800  1
  O  O203  1  0.36031900  0.27458100  0.40072800  1
  O  O204  1  0.31842650  0.68213800  0.30739450  1
  O  O205  1  0.38968100  0.52458100  0.15072800  1
  O  O206  1  0.59293050  0.65228600  0.26349750  1
  O  O207  1  0.47395900  0.83787800  0.40138400  1
  O  O208  1  0.18157350  0.68213800  0.19260550  1
  O  O209  1  0.18157350  0.81786200  0.30739450  1
  O  O210  1  0.97395900  0.16212200  0.09861600  1
  O  O211  1  0.40706950  0.34771400  0.26349750  1
  O  O212  1  0.34293050  0.59771400  0.01349750  1
  O  O213  1  0.09293050  0.34771400  0.23650250  1
  O  O214  1  0.31842650  0.81786200  0.19260550  1
  O  O215  1  0.13968100  0.27458100  0.09927200  1
