# generated using pymatgen
data_LiH2BrO
_symmetry_space_group_name_H-M   'P 1'
_cell_length_a   8.12831800
_cell_length_b   8.20110800
_cell_length_c   8.04646200
_cell_angle_alpha   90.00000000
_cell_angle_beta   90.00000000
_cell_angle_gamma   90.00000000
_symmetry_Int_Tables_number   1
_chemical_formula_structural   LiH2BrO
_chemical_formula_sum   'Li8 H16 Br8 O8'
_cell_volume   536.38692353
_cell_formula_units_Z   8
loop_
 _symmetry_equiv_pos_site_id
 _symmetry_equiv_pos_as_xyz
  1  'x, y, z'
loop_
 _atom_site_type_symbol
 _atom_site_label
 _atom_site_symmetry_multiplicity
 _atom_site_fract_x
 _atom_site_fract_y
 _atom_site_fract_z
 _atom_site_occupancy
  Li  Li0  1  0.00000000  0.00000000  0.00000000  1
  Li  Li1  1  0.00000000  0.00000000  0.50000000  1
  Li  Li2  1  0.50000000  0.81717000  0.25000000  1
  Li  Li3  1  0.50000000  0.18283000  0.75000000  1
  Li  Li4  1  0.50000000  0.50000000  0.00000000  1
  Li  Li5  1  0.50000000  0.50000000  0.50000000  1
  Li  Li6  1  0.00000000  0.31717000  0.25000000  1
  Li  Li7  1  0.00000000  0.68283000  0.75000000  1
  H  H8  1  0.40521000  0.80462500  0.94126600  1
  H  H9  1  0.40521000  0.19537500  0.05873400  1
  H  H10  1  0.40521000  0.19537500  0.44126600  1
  H  H11  1  0.40521000  0.80462500  0.55873400  1
  H  H12  1  0.59479000  0.80462500  0.55873400  1
  H  H13  1  0.59479000  0.19537500  0.05873400  1
  H  H14  1  0.59479000  0.80462500  0.94126600  1
  H  H15  1  0.59479000  0.19537500  0.44126600  1
  H  H16  1  0.90521000  0.30462500  0.94126600  1
  H  H17  1  0.90521000  0.69537500  0.05873400  1
  H  H18  1  0.90521000  0.69537500  0.44126600  1
  H  H19  1  0.90521000  0.30462500  0.55873400  1
  H  H20  1  0.09479000  0.30462500  0.55873400  1
  H  H21  1  0.09479000  0.69537500  0.05873400  1
  H  H22  1  0.09479000  0.30462500  0.94126600  1
  H  H23  1  0.09479000  0.69537500  0.44126600  1
  Br  Br24  1  0.24847200  0.02877900  0.25000000  1
  Br  Br25  1  0.24847200  0.97122100  0.75000000  1
  Br  Br26  1  0.75152800  0.02877900  0.25000000  1
  Br  Br27  1  0.75152800  0.97122100  0.75000000  1
  Br  Br28  1  0.74847200  0.52877900  0.25000000  1
  Br  Br29  1  0.74847200  0.47122100  0.75000000  1
  Br  Br30  1  0.25152800  0.52877900  0.25000000  1
  Br  Br31  1  0.25152800  0.47122100  0.75000000  1
  O  O32  1  0.50000000  0.75535000  0.00033900  1
  O  O33  1  0.50000000  0.75535000  0.49966100  1
  O  O34  1  0.50000000  0.24465000  0.50033900  1
  O  O35  1  0.50000000  0.24465000  0.99966100  1
  O  O36  1  0.00000000  0.25535000  0.00033900  1
  O  O37  1  0.00000000  0.25535000  0.49966100  1
  O  O38  1  0.00000000  0.74465000  0.50033900  1
  O  O39  1  0.00000000  0.74465000  0.99966100  1
