# generated using pymatgen
data_Li3Fe(CoO3)2
_symmetry_space_group_name_H-M   'P 1'
_cell_length_a   12.59306000
_cell_length_b   2.84255400
_cell_length_c   5.75610018
_cell_angle_alpha   90.00000000
_cell_angle_beta   104.03285396
_cell_angle_gamma   90.00000000
_symmetry_Int_Tables_number   1
_chemical_formula_structural   Li3Fe(CoO3)2
_chemical_formula_sum   'Li6 Fe2 Co4 O12'
_cell_volume   199.89884884
_cell_formula_units_Z   2
loop_
 _symmetry_equiv_pos_site_id
 _symmetry_equiv_pos_as_xyz
  1  'x, y, z'
loop_
 _atom_site_type_symbol
 _atom_site_label
 _atom_site_symmetry_multiplicity
 _atom_site_fract_x
 _atom_site_fract_y
 _atom_site_fract_z
 _atom_site_occupancy
  Li  Li0  1  0.16963000  0.50000000  0.33692400  1
  Li  Li1  1  0.00000000  0.00000000  0.00000000  1
  Li  Li2  1  0.33037000  0.00000000  0.66307600  1
  Li  Li3  1  0.66963000  0.00000000  0.33692400  1
  Li  Li4  1  0.50000000  0.50000000  0.00000000  1
  Li  Li5  1  0.83037000  0.50000000  0.66307600  1
  Fe  Fe6  1  0.00000000  0.00000000  0.50000000  1
  Fe  Fe7  1  0.50000000  0.50000000  0.50000000  1
  Co  Co8  1  0.16751800  0.50000000  0.83530700  1
  Co  Co9  1  0.33248200  0.00000000  0.16469300  1
  Co  Co10  1  0.66751800  0.00000000  0.83530700  1
  Co  Co11  1  0.83248200  0.50000000  0.16469300  1
  O  O12  1  0.16126400  0.00000000  0.60328000  1
  O  O13  1  0.49163700  0.00000000  0.26299200  1
  O  O14  1  0.32533500  0.50000000  0.93340500  1
  O  O15  1  0.00836300  0.50000000  0.73700800  1
  O  O16  1  0.33873600  0.50000000  0.39672000  1
  O  O17  1  0.17466500  0.00000000  0.06659500  1
  O  O18  1  0.66126400  0.50000000  0.60328000  1
  O  O19  1  0.99163700  0.50000000  0.26299200  1
  O  O20  1  0.82533500  0.00000000  0.93340500  1
  O  O21  1  0.50836300  0.00000000  0.73700800  1
  O  O22  1  0.83873600  0.00000000  0.39672000  1
  O  O23  1  0.67466500  0.50000000  0.06659500  1
