# generated using pymatgen
data_BaSe2
_symmetry_space_group_name_H-M   'P 1'
_cell_length_a   9.75215400
_cell_length_b   5.02686200
_cell_length_c   9.48501284
_cell_angle_alpha   90.00000000
_cell_angle_beta   117.51735683
_cell_angle_gamma   90.00000000
_symmetry_Int_Tables_number   1
_chemical_formula_structural   BaSe2
_chemical_formula_sum   'Ba4 Se8'
_cell_volume   412.37834221
_cell_formula_units_Z   4
loop_
 _symmetry_equiv_pos_site_id
 _symmetry_equiv_pos_as_xyz
  1  'x, y, z'
loop_
 _atom_site_type_symbol
 _atom_site_label
 _atom_site_symmetry_multiplicity
 _atom_site_fract_x
 _atom_site_fract_y
 _atom_site_fract_z
 _atom_site_occupancy
  Ba  Ba0  1  0.50000000  0.37221000  0.75000000  1
  Ba  Ba1  1  0.50000000  0.62779000  0.25000000  1
  Ba  Ba2  1  0.00000000  0.87221000  0.75000000  1
  Ba  Ba3  1  0.00000000  0.12779000  0.25000000  1
  Se  Se4  1  0.15509500  0.37375100  0.02595900  1
  Se  Se5  1  0.34490500  0.87375100  0.47404100  1
  Se  Se6  1  0.65509500  0.12624900  0.52595900  1
  Se  Se7  1  0.84490500  0.62624900  0.97404100  1
  Se  Se8  1  0.65509500  0.87375100  0.02595900  1
  Se  Se9  1  0.84490500  0.37375100  0.47404100  1
  Se  Se10  1  0.15509500  0.62624900  0.52595900  1
  Se  Se11  1  0.34490500  0.12624900  0.97404100  1
