# generated using pymatgen
data_V2OF5
_symmetry_space_group_name_H-M   'P 1'
_cell_length_a   5.27781900
_cell_length_b   5.46873307
_cell_length_c   11.67020465
_cell_angle_alpha   100.59300080
_cell_angle_beta   102.97846122
_cell_angle_gamma   89.99071740
_symmetry_Int_Tables_number   1
_chemical_formula_structural   V2OF5
_chemical_formula_sum   'V6 O3 F15'
_cell_volume   322.34098524
_cell_formula_units_Z   3
loop_
 _symmetry_equiv_pos_site_id
 _symmetry_equiv_pos_as_xyz
  1  'x, y, z'
loop_
 _atom_site_type_symbol
 _atom_site_label
 _atom_site_symmetry_multiplicity
 _atom_site_fract_x
 _atom_site_fract_y
 _atom_site_fract_z
 _atom_site_occupancy
  V  V0  1  0.16793700  0.16859500  0.33739300  1
  V  V1  1  0.35311000  0.34252400  0.68532900  1
  V  V2  1  0.49637200  0.50650600  0.01255800  1
  V  V3  1  0.66537900  0.66644700  0.33238100  1
  V  V4  1  0.99741100  0.99778100  0.99565800  1
  V  V5  1  0.83599800  0.82570800  0.65120400  1
  O  O6  1  0.49480300  0.41478800  0.83140200  1
  O  O7  1  0.83399400  0.75466700  0.50511900  1
  O  O8  1  0.49795500  0.57912800  0.15952400  1
  F  F9  1  0.82086000  0.91217400  0.82469600  1
  F  F10  1  0.61602400  0.11923300  0.63529600  1
  F  F11  1  0.51707600  0.61724100  0.63575300  1
  F  F12  1  0.16343000  0.25500600  0.50879800  1
  F  F13  1  0.81509800  0.70964800  0.02735500  1
  F  F14  1  0.14932100  0.04848700  0.69913800  1
  F  F15  1  0.95524600  0.45011400  0.30273300  1
  F  F16  1  0.28305400  0.78191700  0.96331600  1
  F  F17  1  0.71383600  0.21389900  0.02873500  1
  F  F18  1  0.18083800  0.28645200  0.96450000  1
  F  F19  1  0.84610900  0.95056300  0.30141300  1
  F  F20  1  0.04852700  0.54886800  0.69868500  1
  F  F21  1  0.48745700  0.38545300  0.36753600  1
  F  F22  1  0.37670100  0.88159400  0.36557300  1
  F  F23  1  0.18346600  0.08320300  0.16590600  1
