# generated using pymatgen
data_Li6Ti2O7
_symmetry_space_group_name_H-M   'P 1'
_cell_length_a   9.94409600
_cell_length_b   5.85035800
_cell_length_c   5.13153491
_cell_angle_alpha   90.00000000
_cell_angle_beta   110.82650845
_cell_angle_gamma   90.00000000
_symmetry_Int_Tables_number   1
_chemical_formula_structural   Li6Ti2O7
_chemical_formula_sum   'Li12 Ti4 O14'
_cell_volume   279.02896713
_cell_formula_units_Z   2
loop_
 _symmetry_equiv_pos_site_id
 _symmetry_equiv_pos_as_xyz
  1  'x, y, z'
loop_
 _atom_site_type_symbol
 _atom_site_label
 _atom_site_symmetry_multiplicity
 _atom_site_fract_x
 _atom_site_fract_y
 _atom_site_fract_z
 _atom_site_occupancy
  Li  Li0  1  0.36312150  0.28640150  0.72469000  1
  Li  Li1  1  0.36499500  0.73281300  0.73003200  1
  Li  Li2  1  0.36929000  0.00620200  0.31380700  1
  Li  Li3  1  0.63071000  0.00620200  0.68619300  1
  Li  Li4  1  0.63500500  0.73281300  0.26996800  1
  Li  Li5  1  0.63687850  0.28640150  0.27531000  1
  Li  Li6  1  0.86312150  0.78640150  0.72469000  1
  Li  Li7  1  0.86499500  0.23281300  0.73003200  1
  Li  Li8  1  0.86929000  0.50620200  0.31380700  1
  Li  Li9  1  0.13071000  0.50620200  0.68619300  1
  Li  Li10  1  0.13500500  0.23281300  0.26996800  1
  Li  Li11  1  0.13687850  0.78640150  0.27531000  1
  Ti  Ti12  1  0.86361250  0.00841950  0.23854700  1
  Ti  Ti13  1  0.13638750  0.00841950  0.76145300  1
  Ti  Ti14  1  0.36361250  0.50841950  0.23854700  1
  Ti  Ti15  1  0.63638750  0.50841950  0.76145300  1
  O  O16  1  0.50000000  0.50529700  0.00000000  1
  O  O17  1  0.50000000  0.28119400  0.50000000  1
  O  O18  1  0.25258850  0.01117450  0.55091900  1
  O  O19  1  0.25241650  0.76631650  0.00180000  1
  O  O20  1  0.74758350  0.76631650  0.99820000  1
  O  O21  1  0.74741150  0.01117450  0.44908100  1
  O  O22  1  0.50000000  0.73638300  0.50000000  1
  O  O23  1  0.00000000  0.00529700  0.00000000  1
  O  O24  1  0.00000000  0.78119400  0.50000000  1
  O  O25  1  0.75258850  0.51117450  0.55091900  1
  O  O26  1  0.75241650  0.26631650  0.00180000  1
  O  O27  1  0.24758350  0.26631650  0.99820000  1
  O  O28  1  0.24741150  0.51117450  0.44908100  1
  O  O29  1  0.00000000  0.23638300  0.50000000  1
