# generated using pymatgen
data_Sr3TeO6
_symmetry_space_group_name_H-M   'P 1'
_cell_length_a   13.75635400
_cell_length_b   13.75635400
_cell_length_c   13.75635400
_cell_angle_alpha   90.00000000
_cell_angle_beta   90.00000000
_cell_angle_gamma   90.00000000
_symmetry_Int_Tables_number   1
_chemical_formula_structural   Sr3TeO6
_chemical_formula_sum   'Sr48 Te16 O96'
_cell_volume   2603.21495003
_cell_formula_units_Z   16
loop_
 _symmetry_equiv_pos_site_id
 _symmetry_equiv_pos_as_xyz
  1  'x, y, z'
loop_
 _atom_site_type_symbol
 _atom_site_label
 _atom_site_symmetry_multiplicity
 _atom_site_fract_x
 _atom_site_fract_y
 _atom_site_fract_z
 _atom_site_occupancy
  Sr  Sr0  1  0.77736400  0.47136200  0.37475700  1
  Sr  Sr1  1  0.87475700  0.22263600  0.47136200  1
  Sr  Sr2  1  0.97136200  0.12524300  0.22263600  1
  Sr  Sr3  1  0.02863800  0.37475700  0.22263600  1
  Sr  Sr4  1  0.02863800  0.12524300  0.72263600  1
  Sr  Sr5  1  0.02863800  0.62524300  0.27736400  1
  Sr  Sr6  1  0.12524300  0.27736400  0.47136200  1
  Sr  Sr7  1  0.12524300  0.22263600  0.97136200  1
  Sr  Sr8  1  0.12524300  0.72263600  0.02863800  1
  Sr  Sr9  1  0.22263600  0.02863800  0.37475700  1
  Sr  Sr10  1  0.22263600  0.97136200  0.12524300  1
  Sr  Sr11  1  0.22263600  0.47136200  0.87475700  1
  Sr  Sr12  1  0.27736400  0.52863800  0.37475700  1
  Sr  Sr13  1  0.27736400  0.02863800  0.62524300  1
  Sr  Sr14  1  0.27736400  0.47136200  0.12524300  1
  Sr  Sr15  1  0.37475700  0.27736400  0.52863800  1
  Sr  Sr16  1  0.37475700  0.77736400  0.47136200  1
  Sr  Sr17  1  0.37475700  0.22263600  0.02863800  1
  Sr  Sr18  1  0.47136200  0.87475700  0.22263600  1
  Sr  Sr19  1  0.47136200  0.12524300  0.27736400  1
  Sr  Sr20  1  0.47136200  0.37475700  0.77736400  1
  Sr  Sr21  1  0.52863800  0.37475700  0.27736400  1
  Sr  Sr22  1  0.62524300  0.27736400  0.02863800  1
  Sr  Sr23  1  0.72263600  0.02863800  0.12524300  1
  Sr  Sr24  1  0.27736400  0.97136200  0.87475700  1
  Sr  Sr25  1  0.37475700  0.72263600  0.97136200  1
  Sr  Sr26  1  0.47136200  0.62524300  0.72263600  1
  Sr  Sr27  1  0.52863800  0.87475700  0.72263600  1
  Sr  Sr28  1  0.52863800  0.62524300  0.22263600  1
  Sr  Sr29  1  0.52863800  0.12524300  0.77736400  1
  Sr  Sr30  1  0.62524300  0.77736400  0.97136200  1
  Sr  Sr31  1  0.62524300  0.72263600  0.47136200  1
  Sr  Sr32  1  0.62524300  0.22263600  0.52863800  1
  Sr  Sr33  1  0.72263600  0.52863800  0.87475700  1
  Sr  Sr34  1  0.72263600  0.47136200  0.62524300  1
  Sr  Sr35  1  0.72263600  0.97136200  0.37475700  1
  Sr  Sr36  1  0.77736400  0.02863800  0.87475700  1
  Sr  Sr37  1  0.77736400  0.52863800  0.12524300  1
  Sr  Sr38  1  0.77736400  0.97136200  0.62524300  1
  Sr  Sr39  1  0.87475700  0.77736400  0.02863800  1
  Sr  Sr40  1  0.87475700  0.27736400  0.97136200  1
  Sr  Sr41  1  0.87475700  0.72263600  0.52863800  1
  Sr  Sr42  1  0.97136200  0.37475700  0.72263600  1
  Sr  Sr43  1  0.97136200  0.62524300  0.77736400  1
  Sr  Sr44  1  0.97136200  0.87475700  0.27736400  1
  Sr  Sr45  1  0.02863800  0.87475700  0.77736400  1
  Sr  Sr46  1  0.12524300  0.77736400  0.52863800  1
  Sr  Sr47  1  0.22263600  0.52863800  0.62524300  1
  Te  Te48  1  0.75000000  0.25000000  0.25000000  1
  Te  Te49  1  0.00000000  0.00000000  0.00000000  1
  Te  Te50  1  0.00000000  0.50000000  0.00000000  1
  Te  Te51  1  0.00000000  0.00000000  0.50000000  1
  Te  Te52  1  0.25000000  0.25000000  0.25000000  1
  Te  Te53  1  0.25000000  0.25000000  0.75000000  1
  Te  Te54  1  0.25000000  0.75000000  0.25000000  1
  Te  Te55  1  0.50000000  0.00000000  0.00000000  1
  Te  Te56  1  0.25000000  0.75000000  0.75000000  1
  Te  Te57  1  0.50000000  0.50000000  0.50000000  1
  Te  Te58  1  0.50000000  0.00000000  0.50000000  1
  Te  Te59  1  0.50000000  0.50000000  0.00000000  1
  Te  Te60  1  0.75000000  0.75000000  0.75000000  1
  Te  Te61  1  0.75000000  0.75000000  0.25000000  1
  Te  Te62  1  0.75000000  0.25000000  0.75000000  1
  Te  Te63  1  0.00000000  0.50000000  0.50000000  1
  O  O64  1  0.13730350  0.03307850  0.97655650  1
  O  O65  1  0.72230800  0.27895300  0.38743300  1
  O  O66  1  0.77769200  0.27895300  0.61256700  1
  O  O67  1  0.88743300  0.27769200  0.27895300  1
  O  O68  1  0.88743300  0.72230800  0.22104700  1
  O  O69  1  0.97655650  0.36269650  0.53307850  1
  O  O70  1  0.46692150  0.52344350  0.36269650  1
  O  O71  1  0.96692150  0.47655650  0.36269650  1
  O  O72  1  0.96692150  0.52344350  0.13730350  1
  O  O73  1  0.03307850  0.02344350  0.36269650  1
  O  O74  1  0.02344350  0.36269650  0.03307850  1
  O  O75  1  0.02344350  0.13730350  0.53307850  1
  O  O76  1  0.52344350  0.36269650  0.46692150  1
  O  O77  1  0.11256700  0.22230800  0.27895300  1
  O  O78  1  0.11256700  0.77769200  0.22104700  1
  O  O79  1  0.13730350  0.53307850  0.02344350  1
  O  O80  1  0.13730350  0.96692150  0.52344350  1
  O  O81  1  0.13730350  0.46692150  0.47655650  1
  O  O82  1  0.22104700  0.88743300  0.72230800  1
  O  O83  1  0.22104700  0.11256700  0.77769200  1
  O  O84  1  0.22104700  0.38743300  0.27769200  1
  O  O85  1  0.22104700  0.61256700  0.22230800  1
  O  O86  1  0.22230800  0.22104700  0.61256700  1
  O  O87  1  0.22230800  0.27895300  0.11256700  1
  O  O88  1  0.27769200  0.22104700  0.38743300  1
  O  O89  1  0.27769200  0.27895300  0.88743300  1
  O  O90  1  0.27895300  0.11256700  0.22230800  1
  O  O91  1  0.27895300  0.38743300  0.72230800  1
  O  O92  1  0.27895300  0.88743300  0.27769200  1
  O  O93  1  0.27895300  0.61256700  0.77769200  1
  O  O94  1  0.36269650  0.96692150  0.47655650  1
  O  O95  1  0.36269650  0.03307850  0.02344350  1
  O  O96  1  0.36269650  0.53307850  0.97655650  1
  O  O97  1  0.38743300  0.72230800  0.27895300  1
  O  O98  1  0.38743300  0.27769200  0.22104700  1
  O  O99  1  0.47655650  0.13730350  0.46692150  1
  O  O100  1  0.97655650  0.13730350  0.03307850  1
  O  O101  1  0.47655650  0.36269650  0.96692150  1
  O  O102  1  0.46692150  0.47655650  0.13730350  1
  O  O103  1  0.53307850  0.97655650  0.36269650  1
  O  O104  1  0.53307850  0.02344350  0.13730350  1
  O  O105  1  0.03307850  0.97655650  0.13730350  1
  O  O106  1  0.52344350  0.13730350  0.96692150  1
  O  O107  1  0.61256700  0.77769200  0.27895300  1
  O  O108  1  0.61256700  0.22230800  0.22104700  1
  O  O109  1  0.72230800  0.22104700  0.88743300  1
  O  O110  1  0.77769200  0.22104700  0.11256700  1
  O  O111  1  0.36269650  0.46692150  0.52344350  1
  O  O112  1  0.63730350  0.53307850  0.47655650  1
  O  O113  1  0.22230800  0.77895300  0.88743300  1
  O  O114  1  0.27769200  0.77895300  0.11256700  1
  O  O115  1  0.38743300  0.77769200  0.77895300  1
  O  O116  1  0.38743300  0.22230800  0.72104700  1
  O  O117  1  0.47655650  0.86269650  0.03307850  1
  O  O118  1  0.96692150  0.02344350  0.86269650  1
  O  O119  1  0.46692150  0.97655650  0.86269650  1
  O  O120  1  0.46692150  0.02344350  0.63730350  1
  O  O121  1  0.53307850  0.52344350  0.86269650  1
  O  O122  1  0.52344350  0.86269650  0.53307850  1
  O  O123  1  0.52344350  0.63730350  0.03307850  1
  O  O124  1  0.02344350  0.86269650  0.96692150  1
  O  O125  1  0.61256700  0.72230800  0.77895300  1
  O  O126  1  0.61256700  0.27769200  0.72104700  1
  O  O127  1  0.63730350  0.03307850  0.52344350  1
  O  O128  1  0.63730350  0.46692150  0.02344350  1
  O  O129  1  0.63730350  0.96692150  0.97655650  1
  O  O130  1  0.72104700  0.38743300  0.22230800  1
  O  O131  1  0.72104700  0.61256700  0.27769200  1
  O  O132  1  0.72104700  0.88743300  0.77769200  1
  O  O133  1  0.72104700  0.11256700  0.72230800  1
  O  O134  1  0.72230800  0.72104700  0.11256700  1
  O  O135  1  0.72230800  0.77895300  0.61256700  1
  O  O136  1  0.77769200  0.72104700  0.88743300  1
  O  O137  1  0.77769200  0.77895300  0.38743300  1
  O  O138  1  0.77895300  0.61256700  0.72230800  1
  O  O139  1  0.77895300  0.88743300  0.22230800  1
  O  O140  1  0.77895300  0.38743300  0.77769200  1
  O  O141  1  0.77895300  0.11256700  0.27769200  1
  O  O142  1  0.86269650  0.46692150  0.97655650  1
  O  O143  1  0.86269650  0.53307850  0.52344350  1
  O  O144  1  0.86269650  0.03307850  0.47655650  1
  O  O145  1  0.88743300  0.22230800  0.77895300  1
  O  O146  1  0.88743300  0.77769200  0.72104700  1
  O  O147  1  0.97655650  0.63730350  0.96692150  1
  O  O148  1  0.47655650  0.63730350  0.53307850  1
  O  O149  1  0.97655650  0.86269650  0.46692150  1
  O  O150  1  0.96692150  0.97655650  0.63730350  1
  O  O151  1  0.03307850  0.47655650  0.86269650  1
  O  O152  1  0.03307850  0.52344350  0.63730350  1
  O  O153  1  0.53307850  0.47655650  0.63730350  1
  O  O154  1  0.02344350  0.63730350  0.46692150  1
  O  O155  1  0.11256700  0.27769200  0.77895300  1
  O  O156  1  0.11256700  0.72230800  0.72104700  1
  O  O157  1  0.22230800  0.72104700  0.38743300  1
  O  O158  1  0.27769200  0.72104700  0.61256700  1
  O  O159  1  0.86269650  0.96692150  0.02344350  1
