# generated using pymatgen
data_Li3CuPCO7
_symmetry_space_group_name_H-M   'P 1'
_cell_length_a   5.10766000
_cell_length_b   6.27053500
_cell_length_c   8.45702108
_cell_angle_alpha   90.00000000
_cell_angle_beta   91.37356699
_cell_angle_gamma   90.00000000
_symmetry_Int_Tables_number   1
_chemical_formula_structural   Li3CuPCO7
_chemical_formula_sum   'Li6 Cu2 P2 C2 O14'
_cell_volume   270.78161819
_cell_formula_units_Z   2
loop_
 _symmetry_equiv_pos_site_id
 _symmetry_equiv_pos_as_xyz
  1  'x, y, z'
loop_
 _atom_site_type_symbol
 _atom_site_label
 _atom_site_symmetry_multiplicity
 _atom_site_fract_x
 _atom_site_fract_y
 _atom_site_fract_z
 _atom_site_occupancy
  Li  Li0  1  0.01898700  0.49355400  0.99969900  1
  Li  Li1  1  0.44622300  0.81254100  0.81634700  1
  Li  Li2  1  0.44803200  0.56967000  0.49128900  1
  Li  Li3  1  0.55196800  0.06967000  0.50871100  1
  Li  Li4  1  0.55377700  0.31254100  0.18365300  1
  Li  Li5  1  0.98101300  0.99355400  0.00030100  1
  Cu  Cu6  1  0.02565400  0.24888000  0.72530900  1
  Cu  Cu7  1  0.97434600  0.74888000  0.27469100  1
  P  P8  1  0.96164100  0.75134000  0.66113900  1
  P  P9  1  0.03835900  0.25134000  0.33886100  1
  C  C10  1  0.50807000  0.26157200  0.87030200  1
  C  C11  1  0.49193000  0.76157200  0.12969800  1
  O  O12  1  0.34452600  0.27687500  0.98487500  1
  O  O13  1  0.75700000  0.23930400  0.90731000  1
  O  O14  1  0.08172100  0.93777200  0.76450100  1
  O  O15  1  0.01522900  0.55499800  0.76900800  1
  O  O16  1  0.43274700  0.26340900  0.72318300  1
  O  O17  1  0.66590400  0.78760500  0.62923800  1
  O  O18  1  0.11378600  0.72787800  0.50792700  1
  O  O19  1  0.88621400  0.22787800  0.49207300  1
  O  O20  1  0.33409600  0.28760500  0.37076200  1
  O  O21  1  0.56725300  0.76340900  0.27681700  1
  O  O22  1  0.98477100  0.05499800  0.23099200  1
  O  O23  1  0.91827900  0.43777200  0.23549900  1
  O  O24  1  0.24300000  0.73930400  0.09269000  1
  O  O25  1  0.65547400  0.77687500  0.01512500  1
