# generated using pymatgen
data_Cr3WO8
_symmetry_space_group_name_H-M   'P 1'
_cell_length_a   5.99008626
_cell_length_b   5.99008626
_cell_length_c   9.18750302
_cell_angle_alpha   90.00000000
_cell_angle_beta   90.00000000
_cell_angle_gamma   120.00000000
_symmetry_Int_Tables_number   1
_chemical_formula_structural   Cr3WO8
_chemical_formula_sum   'Cr6 W2 O16'
_cell_volume   285.49222129
_cell_formula_units_Z   2
loop_
 _symmetry_equiv_pos_site_id
 _symmetry_equiv_pos_as_xyz
  1  'x, y, z'
loop_
 _atom_site_type_symbol
 _atom_site_label
 _atom_site_symmetry_multiplicity
 _atom_site_fract_x
 _atom_site_fract_y
 _atom_site_fract_z
 _atom_site_occupancy
  Cr  Cr0  1  0.17041150  0.82958850  0.21406600  1
  Cr  Cr1  1  0.17041150  0.34082300  0.21406600  1
  Cr  Cr2  1  0.65917700  0.82958850  0.21406600  1
  Cr  Cr3  1  0.34082300  0.17041150  0.71406600  1
  Cr  Cr4  1  0.82958850  0.65917700  0.71406600  1
  Cr  Cr5  1  0.82958850  0.17041150  0.71406600  1
  W  W6  1  0.33333333  0.66666667  0.49370200  1
  W  W7  1  0.66666667  0.33333333  0.99370200  1
  O  O8  1  0.17457550  0.82542450  0.59638800  1
  O  O9  1  0.04823900  0.52411950  0.34286700  1
  O  O10  1  0.33333333  0.66666667  0.10864500  1
  O  O11  1  0.00000000  0.00000000  0.29555600  1
  O  O12  1  0.00000000  0.00000000  0.79555600  1
  O  O13  1  0.17457550  0.34915100  0.59638800  1
  O  O14  1  0.47588050  0.95176100  0.34286700  1
  O  O15  1  0.47588050  0.52411950  0.34286700  1
  O  O16  1  0.34915100  0.17457550  0.09638800  1
  O  O17  1  0.65084900  0.82542450  0.59638800  1
  O  O18  1  0.52411950  0.47588050  0.84286700  1
  O  O19  1  0.52411950  0.04823900  0.84286700  1
  O  O20  1  0.66666667  0.33333333  0.60864500  1
  O  O21  1  0.82542450  0.65084900  0.09638800  1
  O  O22  1  0.95176100  0.47588050  0.84286700  1
  O  O23  1  0.82542450  0.17457550  0.09638800  1
