# generated using pymatgen
data_Ti2P2H4O11
_symmetry_space_group_name_H-M   'P 1'
_cell_length_a   5.17790500
_cell_length_b   8.92610212
_cell_length_c   9.80169880
_cell_angle_alpha   73.58549567
_cell_angle_beta   85.76327116
_cell_angle_gamma   85.74057001
_symmetry_Int_Tables_number   1
_chemical_formula_structural   Ti2P2H4O11
_chemical_formula_sum   'Ti4 P4 H8 O22'
_cell_volume   432.69280759
_cell_formula_units_Z   2
loop_
 _symmetry_equiv_pos_site_id
 _symmetry_equiv_pos_as_xyz
  1  'x, y, z'
loop_
 _atom_site_type_symbol
 _atom_site_label
 _atom_site_symmetry_multiplicity
 _atom_site_fract_x
 _atom_site_fract_y
 _atom_site_fract_z
 _atom_site_occupancy
  Ti  Ti0  1  0.73893200  0.72917500  0.33586700  1
  Ti  Ti1  1  0.26106800  0.27082500  0.66413300  1
  Ti  Ti2  1  0.04561300  0.88252700  0.79593200  1
  Ti  Ti3  1  0.95438700  0.11747300  0.20406800  1
  P  P4  1  0.21950900  0.66967500  0.56872000  1
  P  P5  1  0.78049100  0.33032500  0.43128000  1
  P  P6  1  0.25605900  0.81949900  0.11725700  1
  P  P7  1  0.74394100  0.18050100  0.88274300  1
  H  H8  1  0.82293300  0.67536300  0.02476100  1
  H  H9  1  0.17706700  0.32463700  0.97523900  1
  H  H10  1  0.60731000  0.70791900  0.91903600  1
  H  H11  1  0.39269000  0.29208100  0.08096400  1
  H  H12  1  0.39657000  0.01354200  0.35658100  1
  H  H13  1  0.60343000  0.98645800  0.64341900  1
  H  H14  1  0.76540500  0.85867000  0.57461800  1
  H  H15  1  0.23459500  0.14133000  0.42538200  1
  O  O16  1  0.95077900  0.70131800  0.50389400  1
  O  O17  1  0.04922100  0.29868200  0.49610600  1
  O  O18  1  0.70877700  0.50621600  0.38144000  1
  O  O19  1  0.29122300  0.49378400  0.61856000  1
  O  O20  1  0.52587400  0.76016000  0.17167100  1
  O  O21  1  0.47412600  0.23984000  0.82832900  1
  O  O22  1  0.42910100  0.75438500  0.45938200  1
  O  O23  1  0.57089900  0.24561500  0.54061800  1
  O  O24  1  0.04530000  0.71795700  0.21120200  1
  O  O25  1  0.95470000  0.28204300  0.78879800  1
  O  O26  1  0.77104000  0.95384900  0.29401800  1
  O  O27  1  0.22896000  0.04615100  0.70598200  1
  O  O28  1  0.20525700  0.73631000  0.69931400  1
  O  O29  1  0.79474300  0.26369000  0.30068600  1
  O  O30  1  0.25329300  0.80454300  0.96315200  1
  O  O31  1  0.74670700  0.19545700  0.03684800  1
  O  O32  1  0.79721300  0.00785600  0.88250400  1
  O  O33  1  0.20278700  0.99214400  0.11749600  1
  O  O34  1  0.79570000  0.68653600  0.92452700  1
  O  O35  1  0.20430000  0.31346400  0.07547300  1
  O  O36  1  0.76215900  0.91793800  0.64563500  1
  O  O37  1  0.23784100  0.08206200  0.35436500  1
