# generated using pymatgen
data_Li2MnV(P2O7)2
_symmetry_space_group_name_H-M   'P 1'
_cell_length_a   4.86305700
_cell_length_b   8.29630700
_cell_length_c   13.36461734
_cell_angle_alpha   90.00000000
_cell_angle_beta   91.47316687
_cell_angle_gamma   90.00000000
_symmetry_Int_Tables_number   1
_chemical_formula_structural   Li2MnV(P2O7)2
_chemical_formula_sum   'Li4 Mn2 V2 P8 O28'
_cell_volume   539.02279786
_cell_formula_units_Z   2
loop_
 _symmetry_equiv_pos_site_id
 _symmetry_equiv_pos_as_xyz
  1  'x, y, z'
loop_
 _atom_site_type_symbol
 _atom_site_label
 _atom_site_symmetry_multiplicity
 _atom_site_fract_x
 _atom_site_fract_y
 _atom_site_fract_z
 _atom_site_occupancy
  Li  Li0  1  0.41438600  0.64052900  0.58706000  1
  Li  Li1  1  0.58561400  0.14052900  0.41294000  1
  Li  Li2  1  0.91088900  0.63765000  0.08772700  1
  Li  Li3  1  0.08911100  0.13765000  0.91227300  1
  Mn  Mn4  1  0.40167300  0.00232400  0.61557300  1
  Mn  Mn5  1  0.59832700  0.50232400  0.38442700  1
  V  V6  1  0.89886100  0.99891600  0.11333100  1
  V  V7  1  0.10113900  0.49891600  0.88666900  1
  P  P8  1  0.38987900  0.81863600  0.98832600  1
  P  P9  1  0.41793100  0.21280300  0.20633300  1
  P  P10  1  0.58206900  0.71280300  0.79366700  1
  P  P11  1  0.61012100  0.31863600  0.01167400  1
  P  P12  1  0.89171500  0.82353900  0.49170200  1
  P  P13  1  0.91923100  0.21587900  0.70564800  1
  P  P14  1  0.08076900  0.71587900  0.29435200  1
  P  P15  1  0.10828500  0.32353900  0.50829800  1
  O  O16  1  0.24742300  0.16064100  0.49754900  1
  O  O17  1  0.30096800  0.46734200  0.49080400  1
  O  O18  1  0.34447500  0.32081200  0.94775300  1
  O  O19  1  0.39505500  0.56315600  0.79361900  1
  O  O20  1  0.38085700  0.67493700  0.32233700  1
  O  O21  1  0.46897100  0.84559900  0.87318700  1
  O  O22  1  0.43341000  0.29735600  0.30714900  1
  O  O23  1  0.53102900  0.34559900  0.12681300  1
  O  O24  1  0.56659000  0.79735600  0.69285100  1
  O  O25  1  0.60494500  0.06315600  0.20638100  1
  O  O26  1  0.61914300  0.17493700  0.67766300  1
  O  O27  1  0.65552500  0.82081200  0.05224700  1
  O  O28  1  0.69903200  0.96734200  0.50919600  1
  O  O29  1  0.75485000  0.15492400  0.00294300  1
  O  O30  1  0.75257700  0.66064100  0.50245100  1
  O  O31  1  0.80429400  0.46011300  0.99169300  1
  O  O32  1  0.83796500  0.32917800  0.44504100  1
  O  O33  1  0.87449800  0.67367900  0.82733200  1
  O  O34  1  0.89416600  0.56638000  0.29211200  1
  O  O35  1  0.93754100  0.30412600  0.80585000  1
  O  O36  1  0.97259000  0.84590300  0.37526300  1
  O  O37  1  0.06245900  0.80412600  0.19415000  1
  O  O38  1  0.02741000  0.34590300  0.62473700  1
  O  O39  1  0.12550200  0.17367900  0.17266800  1
  O  O40  1  0.10583400  0.06638000  0.70788800  1
  O  O41  1  0.16203500  0.82917800  0.55495900  1
  O  O42  1  0.19570600  0.96011300  0.00830700  1
  O  O43  1  0.24515000  0.65492400  0.99705700  1
