# generated using pymatgen
data_Fe7O8
_symmetry_space_group_name_H-M   'P 1'
_cell_length_a   6.08702900
_cell_length_b   6.16343028
_cell_length_c   10.73150246
_cell_angle_alpha   73.78770652
_cell_angle_beta   73.63883771
_cell_angle_gamma   60.65669731
_symmetry_Int_Tables_number   1
_chemical_formula_structural   Fe7O8
_chemical_formula_sum   'Fe14 O16'
_cell_volume   331.91560120
_cell_formula_units_Z   2
loop_
 _symmetry_equiv_pos_site_id
 _symmetry_equiv_pos_as_xyz
  1  'x, y, z'
loop_
 _atom_site_type_symbol
 _atom_site_label
 _atom_site_symmetry_multiplicity
 _atom_site_fract_x
 _atom_site_fract_y
 _atom_site_fract_z
 _atom_site_occupancy
  Fe  Fe0  1  0.00000000  0.50000000  0.00000000  1
  Fe  Fe1  1  0.50000000  0.00000000  0.50000000  1
  Fe  Fe2  1  0.26024400  0.24393800  0.74842800  1
  Fe  Fe3  1  0.73975600  0.75606200  0.25157200  1
  Fe  Fe4  1  0.50000000  0.50000000  0.00000000  1
  Fe  Fe5  1  0.00000000  0.00000000  0.50000000  1
  Fe  Fe6  1  0.50000000  0.00000000  0.00000000  1
  Fe  Fe7  1  0.00000000  0.50000000  0.50000000  1
  Fe  Fe8  1  0.75103200  0.25766100  0.75000500  1
  Fe  Fe9  1  0.24896800  0.74233900  0.24999500  1
  Fe  Fe10  1  0.24170200  0.75134900  0.75179700  1
  Fe  Fe11  1  0.75829800  0.24865100  0.24820300  1
  Fe  Fe12  1  0.00000000  0.00000000  0.00000000  1
  Fe  Fe13  1  0.50000000  0.50000000  0.50000000  1
  O  O14  1  0.87871100  0.85466800  0.38237800  1
  O  O15  1  0.38301400  0.35424000  0.88121700  1
  O  O16  1  0.12128900  0.14533200  0.61762200  1
  O  O17  1  0.61698600  0.64576000  0.11878300  1
  O  O18  1  0.14567900  0.61423300  0.61619900  1
  O  O19  1  0.64563900  0.11965600  0.11602400  1
  O  O20  1  0.37622100  0.84105800  0.37975700  1
  O  O21  1  0.88545600  0.34422100  0.88092500  1
  O  O22  1  0.37107700  0.37312200  0.39217700  1
  O  O23  1  0.86507800  0.87949300  0.89146900  1
  O  O24  1  0.62892300  0.62687800  0.60782300  1
  O  O25  1  0.13492200  0.12050700  0.10853100  1
  O  O26  1  0.62377900  0.15894200  0.62024300  1
  O  O27  1  0.11454400  0.65577900  0.11907500  1
  O  O28  1  0.85432100  0.38576700  0.38380100  1
  O  O29  1  0.35436100  0.88034400  0.88397600  1
