# generated using pymatgen
data_Ca4Bi6O13
_symmetry_space_group_name_H-M   'P 1'
_cell_length_a   12.01827800
_cell_length_b   14.57691200
_cell_length_c   9.30454716
_cell_angle_alpha   90.00000000
_cell_angle_beta   108.83203068
_cell_angle_gamma   90.00000000
_symmetry_Int_Tables_number   1
_chemical_formula_structural   Ca4Bi6O13
_chemical_formula_sum   'Ca16 Bi24 O52'
_cell_volume   1542.79915037
_cell_formula_units_Z   4
loop_
 _symmetry_equiv_pos_site_id
 _symmetry_equiv_pos_as_xyz
  1  'x, y, z'
loop_
 _atom_site_type_symbol
 _atom_site_label
 _atom_site_symmetry_multiplicity
 _atom_site_fract_x
 _atom_site_fract_y
 _atom_site_fract_z
 _atom_site_occupancy
  Ca  Ca0  1  0.57495000  0.12388900  0.42972900  1
  Ca  Ca1  1  0.57455700  0.37682700  0.42955600  1
  Ca  Ca2  1  0.86015050  0.87641950  0.57019100  1
  Ca  Ca3  1  0.86015050  0.12358050  0.57019100  1
  Ca  Ca4  1  0.35967600  0.87658400  0.57045900  1
  Ca  Ca5  1  0.35967600  0.12341600  0.57045900  1
  Ca  Ca6  1  0.57495000  0.87611100  0.42972900  1
  Ca  Ca7  1  0.57455700  0.62317300  0.42955600  1
  Ca  Ca8  1  0.07495000  0.62388900  0.42972900  1
  Ca  Ca9  1  0.07455700  0.87682700  0.42955600  1
  Ca  Ca10  1  0.36015050  0.37641950  0.57019100  1
  Ca  Ca11  1  0.36015050  0.62358050  0.57019100  1
  Ca  Ca12  1  0.85967600  0.37658400  0.57045900  1
  Ca  Ca13  1  0.85967600  0.62341600  0.57045900  1
  Ca  Ca14  1  0.07495000  0.37611100  0.42972900  1
  Ca  Ca15  1  0.07455700  0.12317300  0.42955600  1
  Bi  Bi16  1  0.30353400  0.25011600  0.22668600  1
  Bi  Bi17  1  0.50328350  0.36418650  0.99902800  1
  Bi  Bi18  1  0.50385650  0.13582950  0.00085700  1
  Bi  Bi19  1  0.68871300  0.00000000  0.77796400  1
  Bi  Bi20  1  0.18662800  0.00000000  0.77711200  1
  Bi  Bi21  1  0.69020800  0.25015600  0.77334500  1
  Bi  Bi22  1  0.79821700  0.00000000  0.22286000  1
  Bi  Bi23  1  0.29995200  0.00000000  0.22186900  1
  Bi  Bi24  1  0.30353400  0.74988400  0.22668600  1
  Bi  Bi25  1  0.50385650  0.86417050  0.00085700  1
  Bi  Bi26  1  0.50328350  0.63581350  0.99902800  1
  Bi  Bi27  1  0.69020800  0.74984400  0.77334500  1
  Bi  Bi28  1  0.80353400  0.75011600  0.22668600  1
  Bi  Bi29  1  0.00328350  0.86418650  0.99902800  1
  Bi  Bi30  1  0.00385650  0.63582950  0.00085700  1
  Bi  Bi31  1  0.18871300  0.50000000  0.77796400  1
  Bi  Bi32  1  0.68662800  0.50000000  0.77711200  1
  Bi  Bi33  1  0.19020800  0.75015600  0.77334500  1
  Bi  Bi34  1  0.29821700  0.50000000  0.22286000  1
  Bi  Bi35  1  0.79995200  0.50000000  0.22186900  1
  Bi  Bi36  1  0.80353400  0.24988400  0.22668600  1
  Bi  Bi37  1  0.00385650  0.36417050  0.00085700  1
  Bi  Bi38  1  0.00328350  0.13581350  0.99902800  1
  Bi  Bi39  1  0.19020800  0.24984400  0.77334500  1
  O  O40  1  0.05612400  0.00000000  0.98377800  1
  O  O41  1  0.43176050  0.24969650  0.44241800  1
  O  O42  1  0.56841350  0.12223950  0.69835600  1
  O  O43  1  0.56817300  0.37673000  0.69551700  1
  O  O44  1  0.43171400  0.36900200  0.17876600  1
  O  O45  1  0.43144900  0.13356200  0.17985200  1
  O  O46  1  0.56412400  0.00000000  0.01625100  1
  O  O47  1  0.71042800  0.25018300  0.55750500  1
  O  O48  1  0.71592000  0.00000000  0.56404200  1
  O  O49  1  0.21511500  0.00000000  0.56250100  1
  O  O50  1  0.72052200  0.12314200  0.30484200  1
  O  O51  1  0.21959400  0.87777800  0.30156900  1
  O  O52  1  0.21959400  0.12222200  0.30156900  1
  O  O53  1  0.72052200  0.87685800  0.30484200  1
  O  O54  1  0.84131650  0.86657650  0.82013800  1
  O  O55  1  0.34232050  0.86903550  0.82129100  1
  O  O56  1  0.34232050  0.13096450  0.82129100  1
  O  O57  1  0.84131650  0.13342350  0.82013800  1
  O  O58  1  0.43176050  0.75030350  0.44241800  1
  O  O59  1  0.43435000  0.00000000  0.43592400  1
  O  O60  1  0.93362600  0.00000000  0.43749200  1
  O  O61  1  0.56817300  0.62327000  0.69551700  1
  O  O62  1  0.56841350  0.87776050  0.69835600  1
  O  O63  1  0.43144900  0.86643800  0.17985200  1
  O  O64  1  0.43171400  0.63099800  0.17876600  1
  O  O65  1  0.71042800  0.74981700  0.55750500  1
  O  O66  1  0.55612400  0.50000000  0.98377800  1
  O  O67  1  0.93176050  0.74969650  0.44241800  1
  O  O68  1  0.06841350  0.62223950  0.69835600  1
  O  O69  1  0.06817300  0.87673000  0.69551700  1
  O  O70  1  0.93171400  0.86900200  0.17876600  1
  O  O71  1  0.93144900  0.63356200  0.17985200  1
  O  O72  1  0.06412400  0.50000000  0.01625100  1
  O  O73  1  0.21042800  0.75018300  0.55750500  1
  O  O74  1  0.21592000  0.50000000  0.56404200  1
  O  O75  1  0.71511500  0.50000000  0.56250100  1
  O  O76  1  0.22052200  0.62314200  0.30484200  1
  O  O77  1  0.71959400  0.37777800  0.30156900  1
  O  O78  1  0.71959400  0.62222200  0.30156900  1
  O  O79  1  0.22052200  0.37685800  0.30484200  1
  O  O80  1  0.34131650  0.36657650  0.82013800  1
  O  O81  1  0.84232050  0.36903550  0.82129100  1
  O  O82  1  0.84232050  0.63096450  0.82129100  1
  O  O83  1  0.34131650  0.63342350  0.82013800  1
  O  O84  1  0.93176050  0.25030350  0.44241800  1
  O  O85  1  0.93435000  0.50000000  0.43592400  1
  O  O86  1  0.43362600  0.50000000  0.43749200  1
  O  O87  1  0.06817300  0.12327000  0.69551700  1
  O  O88  1  0.06841350  0.37776050  0.69835600  1
  O  O89  1  0.93144900  0.36643800  0.17985200  1
  O  O90  1  0.93171400  0.13099800  0.17876600  1
  O  O91  1  0.21042800  0.24981700  0.55750500  1
