# generated using pymatgen
data_Bi3O4F
_symmetry_space_group_name_H-M   'P 1'
_cell_length_a   17.46998600
_cell_length_b   3.54009800
_cell_length_c   10.03086913
_cell_angle_alpha   90.00000000
_cell_angle_beta   113.80745382
_cell_angle_gamma   90.00000000
_symmetry_Int_Tables_number   1
_chemical_formula_structural   Bi3O4F
_chemical_formula_sum   'Bi12 O16 F4'
_cell_volume   567.57522883
_cell_formula_units_Z   4
loop_
 _symmetry_equiv_pos_site_id
 _symmetry_equiv_pos_as_xyz
  1  'x, y, z'
loop_
 _atom_site_type_symbol
 _atom_site_label
 _atom_site_symmetry_multiplicity
 _atom_site_fract_x
 _atom_site_fract_y
 _atom_site_fract_z
 _atom_site_occupancy
  Bi  Bi0  1  0.08585500  0.00000000  0.94163400  1
  Bi  Bi1  1  0.19772200  0.50000000  0.75726200  1
  Bi  Bi2  1  0.14703200  0.00000000  0.41425700  1
  Bi  Bi3  1  0.35296800  0.50000000  0.58574300  1
  Bi  Bi4  1  0.30227800  0.00000000  0.24273800  1
  Bi  Bi5  1  0.41414500  0.50000000  0.05836600  1
  Bi  Bi6  1  0.58585500  0.50000000  0.94163400  1
  Bi  Bi7  1  0.69772200  0.00000000  0.75726200  1
  Bi  Bi8  1  0.64703200  0.50000000  0.41425700  1
  Bi  Bi9  1  0.85296800  0.00000000  0.58574300  1
  Bi  Bi10  1  0.80227800  0.50000000  0.24273800  1
  Bi  Bi11  1  0.91414500  0.00000000  0.05836600  1
  O  O12  1  0.11562200  0.00000000  0.75429300  1
  O  O13  1  0.11725700  0.50000000  0.52374600  1
  O  O14  1  0.32951600  0.00000000  0.99605000  1
  O  O15  1  0.25650200  0.00000000  0.62311100  1
  O  O16  1  0.24349800  0.50000000  0.37688900  1
  O  O17  1  0.17048400  0.50000000  0.00395000  1
  O  O18  1  0.38274300  0.00000000  0.47625400  1
  O  O19  1  0.38437800  0.50000000  0.24570700  1
  O  O20  1  0.61562200  0.50000000  0.75429300  1
  O  O21  1  0.61725700  0.00000000  0.52374600  1
  O  O22  1  0.82951600  0.50000000  0.99605000  1
  O  O23  1  0.75650200  0.50000000  0.62311100  1
  O  O24  1  0.74349800  0.00000000  0.37688900  1
  O  O25  1  0.67048400  0.00000000  0.00395000  1
  O  O26  1  0.88274300  0.50000000  0.47625400  1
  O  O27  1  0.88437800  0.00000000  0.24570700  1
  F  F28  1  0.02501300  0.50000000  0.17935500  1
  F  F29  1  0.47498700  0.00000000  0.82064500  1
  F  F30  1  0.52501300  0.00000000  0.17935500  1
  F  F31  1  0.97498700  0.50000000  0.82064500  1
