# generated using pymatgen
data_Ba2YBr7
_symmetry_space_group_name_H-M   'P 1'
_cell_length_a   19.88200800
_cell_length_b   13.64961000
_cell_length_c   12.26346747
_cell_angle_alpha   90.00000000
_cell_angle_beta   120.01997515
_cell_angle_gamma   90.00000000
_symmetry_Int_Tables_number   1
_chemical_formula_structural   Ba2YBr7
_chemical_formula_sum   'Ba16 Y8 Br56'
_cell_volume   2881.62159933
_cell_formula_units_Z   8
loop_
 _symmetry_equiv_pos_site_id
 _symmetry_equiv_pos_as_xyz
  1  'x, y, z'
loop_
 _atom_site_type_symbol
 _atom_site_label
 _atom_site_symmetry_multiplicity
 _atom_site_fract_x
 _atom_site_fract_y
 _atom_site_fract_z
 _atom_site_occupancy
  Ba  Ba0  1  0.08068950  0.82023450  0.03657000  1
  Ba  Ba1  1  0.87833950  0.55807850  0.03201900  1
  Ba  Ba2  1  0.87833950  0.44192150  0.53201900  1
  Ba  Ba3  1  0.91931050  0.82023450  0.46343000  1
  Ba  Ba4  1  0.08068950  0.17976550  0.53657000  1
  Ba  Ba5  1  0.12166050  0.55807850  0.46798100  1
  Ba  Ba6  1  0.12166050  0.44192150  0.96798100  1
  Ba  Ba7  1  0.91931050  0.17976550  0.96343000  1
  Ba  Ba8  1  0.58068950  0.32023450  0.03657000  1
  Ba  Ba9  1  0.37833950  0.05807850  0.03201900  1
  Ba  Ba10  1  0.37833950  0.94192150  0.53201900  1
  Ba  Ba11  1  0.41931050  0.32023450  0.46343000  1
  Ba  Ba12  1  0.58068950  0.67976550  0.53657000  1
  Ba  Ba13  1  0.62166050  0.05807850  0.46798100  1
  Ba  Ba14  1  0.62166050  0.94192150  0.96798100  1
  Ba  Ba15  1  0.41931050  0.67976550  0.96343000  1
  Y  Y16  1  0.67160700  0.65996600  0.17490300  1
  Y  Y17  1  0.32839300  0.65996600  0.32509700  1
  Y  Y18  1  0.67160700  0.34003400  0.67490300  1
  Y  Y19  1  0.32839300  0.34003400  0.82509700  1
  Y  Y20  1  0.17160700  0.15996600  0.17490300  1
  Y  Y21  1  0.82839300  0.15996600  0.32509700  1
  Y  Y22  1  0.17160700  0.84003400  0.67490300  1
  Y  Y23  1  0.82839300  0.84003400  0.82509700  1
  Br  Br24  1  0.92103450  0.70217050  0.78933400  1
  Br  Br25  1  0.56473300  0.47308500  0.67616400  1
  Br  Br26  1  0.73101600  0.69423300  0.83586400  1
  Br  Br27  1  0.78485700  0.34535900  0.93122300  1
  Br  Br28  1  0.72885000  0.50342200  0.10453700  1
  Br  Br29  1  0.73101600  0.30576700  0.33586400  1
  Br  Br30  1  0.78485700  0.65464100  0.43122300  1
  Br  Br31  1  0.27115000  0.50342200  0.39546300  1
  Br  Br32  1  0.92882000  0.79697000  0.07871600  1
  Br  Br33  1  0.92103450  0.29782950  0.28933400  1
  Br  Br34  1  0.92882000  0.20303000  0.57871600  1
  Br  Br35  1  0.93642550  0.58361050  0.34840000  1
  Br  Br36  1  0.43526700  0.47308500  0.82383600  1
  Br  Br37  1  0.93642550  0.41638950  0.84840000  1
  Br  Br38  1  0.06357450  0.58361050  0.15160000  1
  Br  Br39  1  0.56473300  0.52691500  0.17616400  1
  Br  Br40  1  0.06357450  0.41638950  0.65160000  1
  Br  Br41  1  0.07118000  0.79697000  0.42128400  1
  Br  Br42  1  0.07896550  0.70217050  0.71066600  1
  Br  Br43  1  0.07118000  0.20303000  0.92128400  1
  Br  Br44  1  0.72885000  0.49657800  0.60453700  1
  Br  Br45  1  0.21514300  0.34535900  0.56877700  1
  Br  Br46  1  0.26898400  0.69423300  0.66413600  1
  Br  Br47  1  0.27115000  0.49657800  0.89546300  1
  Br  Br48  1  0.21514300  0.65464100  0.06877700  1
  Br  Br49  1  0.26898400  0.30576700  0.16413600  1
  Br  Br50  1  0.43526700  0.52691500  0.32383600  1
  Br  Br51  1  0.07896550  0.29782950  0.21066600  1
  Br  Br52  1  0.42103450  0.20217050  0.78933400  1
  Br  Br53  1  0.06473300  0.97308500  0.67616400  1
  Br  Br54  1  0.23101600  0.19423300  0.83586400  1
  Br  Br55  1  0.28485700  0.84535900  0.93122300  1
  Br  Br56  1  0.22885000  0.00342200  0.10453700  1
  Br  Br57  1  0.23101600  0.80576700  0.33586400  1
  Br  Br58  1  0.28485700  0.15464100  0.43122300  1
  Br  Br59  1  0.77115000  0.00342200  0.39546300  1
  Br  Br60  1  0.42882000  0.29697000  0.07871600  1
  Br  Br61  1  0.42103450  0.79782950  0.28933400  1
  Br  Br62  1  0.42882000  0.70303000  0.57871600  1
  Br  Br63  1  0.43642550  0.08361050  0.34840000  1
  Br  Br64  1  0.93526700  0.97308500  0.82383600  1
  Br  Br65  1  0.43642550  0.91638950  0.84840000  1
  Br  Br66  1  0.56357450  0.08361050  0.15160000  1
  Br  Br67  1  0.06473300  0.02691500  0.17616400  1
  Br  Br68  1  0.56357450  0.91638950  0.65160000  1
  Br  Br69  1  0.57118000  0.29697000  0.42128400  1
  Br  Br70  1  0.57896550  0.20217050  0.71066600  1
  Br  Br71  1  0.57118000  0.70303000  0.92128400  1
  Br  Br72  1  0.22885000  0.99657800  0.60453700  1
  Br  Br73  1  0.71514300  0.84535900  0.56877700  1
  Br  Br74  1  0.76898400  0.19423300  0.66413600  1
  Br  Br75  1  0.77115000  0.99657800  0.89546300  1
  Br  Br76  1  0.71514300  0.15464100  0.06877700  1
  Br  Br77  1  0.76898400  0.80576700  0.16413600  1
  Br  Br78  1  0.93526700  0.02691500  0.32383600  1
  Br  Br79  1  0.57896550  0.79782950  0.21066600  1
