# generated using pymatgen
data_Na2Ni2(B4O7)3
_symmetry_space_group_name_H-M   'P 1'
_cell_length_a   23.04076200
_cell_length_b   4.51148400
_cell_length_c   17.14224362
_cell_angle_alpha   90.00000000
_cell_angle_beta   123.95391892
_cell_angle_gamma   90.00000000
_symmetry_Int_Tables_number   1
_chemical_formula_structural   Na2Ni2(B4O7)3
_chemical_formula_sum   'Na8 Ni8 B48 O84'
_cell_volume   1478.06498795
_cell_formula_units_Z   4
loop_
 _symmetry_equiv_pos_site_id
 _symmetry_equiv_pos_as_xyz
  1  'x, y, z'
loop_
 _atom_site_type_symbol
 _atom_site_label
 _atom_site_symmetry_multiplicity
 _atom_site_fract_x
 _atom_site_fract_y
 _atom_site_fract_z
 _atom_site_occupancy
  Na  Na0  1  0.14444150  0.44738950  0.99290000  1
  Na  Na1  1  0.14444150  0.55261050  0.49290000  1
  Na  Na2  1  0.85555850  0.55261050  0.00710000  1
  Na  Na3  1  0.85555850  0.44738950  0.50710000  1
  Na  Na4  1  0.64444150  0.94738950  0.99290000  1
  Na  Na5  1  0.64444150  0.05261050  0.49290000  1
  Na  Na6  1  0.35555850  0.05261050  0.00710000  1
  Na  Na7  1  0.35555850  0.94738950  0.50710000  1
  Ni  Ni8  1  0.95236900  0.50803500  0.39358500  1
  Ni  Ni9  1  0.04763100  0.49196500  0.60641500  1
  Ni  Ni10  1  0.95236900  0.49196500  0.89358500  1
  Ni  Ni11  1  0.04763100  0.50803500  0.10641500  1
  Ni  Ni12  1  0.45236900  0.00803500  0.39358500  1
  Ni  Ni13  1  0.54763100  0.99196500  0.60641500  1
  Ni  Ni14  1  0.45236900  0.99196500  0.89358500  1
  Ni  Ni15  1  0.54763100  0.00803500  0.10641500  1
  B  B16  1  0.94415150  0.00628450  0.00663400  1
  B  B17  1  0.01405600  0.95635200  0.82772300  1
  B  B18  1  0.74605600  0.63403900  0.31920000  1
  B  B19  1  0.01405600  0.04364800  0.32772300  1
  B  B20  1  0.66633450  0.24612450  0.29552100  1
  B  B21  1  0.83366550  0.74612450  0.20447900  1
  B  B22  1  0.16633450  0.25387550  0.79552100  1
  B  B23  1  0.25394400  0.36596100  0.68080000  1
  B  B24  1  0.16036500  0.02834500  0.65568100  1
  B  B25  1  0.24605600  0.86596100  0.81920000  1
  B  B26  1  0.94415150  0.99371550  0.50663400  1
  B  B27  1  0.08809800  0.64995000  0.79942700  1
  B  B28  1  0.05584850  0.00628450  0.49336600  1
  B  B29  1  0.98594400  0.95635200  0.67227700  1
  B  B30  1  0.91190200  0.35005000  0.20057300  1
  B  B31  1  0.66036500  0.47165500  0.15568100  1
  B  B32  1  0.83963500  0.97165500  0.34431900  1
  B  B33  1  0.33963500  0.52834500  0.84431900  1
  B  B34  1  0.91190200  0.64995000  0.70057300  1
  B  B35  1  0.08809800  0.35005000  0.29942700  1
  B  B36  1  0.75394400  0.13403900  0.18080000  1
  B  B37  1  0.33366550  0.75387550  0.70447900  1
  B  B38  1  0.98594400  0.04364800  0.17227700  1
  B  B39  1  0.05584850  0.99371550  0.99336600  1
  B  B40  1  0.44415150  0.50628450  0.00663400  1
  B  B41  1  0.51405600  0.45635200  0.82772300  1
  B  B42  1  0.24605600  0.13403900  0.31920000  1
  B  B43  1  0.51405600  0.54364800  0.32772300  1
  B  B44  1  0.16633450  0.74612450  0.29552100  1
  B  B45  1  0.33366550  0.24612450  0.20447900  1
  B  B46  1  0.66633450  0.75387550  0.79552100  1
  B  B47  1  0.75394400  0.86596100  0.68080000  1
  B  B48  1  0.66036500  0.52834500  0.65568100  1
  B  B49  1  0.74605600  0.36596100  0.81920000  1
  B  B50  1  0.44415150  0.49371550  0.50663400  1
  B  B51  1  0.58809800  0.14995000  0.79942700  1
  B  B52  1  0.55584850  0.50628450  0.49336600  1
  B  B53  1  0.48594400  0.45635200  0.67227700  1
  B  B54  1  0.41190200  0.85005000  0.20057300  1
  B  B55  1  0.16036500  0.97165500  0.15568100  1
  B  B56  1  0.33963500  0.47165500  0.34431900  1
  B  B57  1  0.83963500  0.02834500  0.84431900  1
  B  B58  1  0.41190200  0.14995000  0.70057300  1
  B  B59  1  0.58809800  0.85005000  0.29942700  1
  B  B60  1  0.25394400  0.63403900  0.18080000  1
  B  B61  1  0.83366550  0.25387550  0.70447900  1
  B  B62  1  0.48594400  0.54364800  0.17227700  1
  B  B63  1  0.55584850  0.49371550  0.99336600  1
  O  O64  1  0.10364250  0.85704750  0.57537100  1
  O  O65  1  0.04811450  0.26333350  0.20564700  1
  O  O66  1  0.02609750  0.13898050  0.90696300  1
  O  O67  1  0.85436450  0.54035550  0.16438200  1
  O  O68  1  0.04811450  0.73666650  0.70564700  1
  O  O69  1  0.07771750  0.23202650  0.36305700  1
  O  O70  1  0.69476300  0.28778200  0.12041000  1
  O  O71  1  0.14563550  0.45964450  0.83561800  1
  O  O72  1  0.14563550  0.54035550  0.33561800  1
  O  O73  1  0.39635750  0.35704750  0.92462900  1
  O  O74  1  0.07771750  0.76797350  0.86305700  1
  O  O75  1  0.22223150  0.07494150  0.85717200  1
  O  O76  1  0.95188550  0.26333350  0.29435300  1
  O  O77  1  0.79301500  0.18681100  0.27478900  1
  O  O78  1  0.00000000  0.13435400  0.75000000  1
  O  O79  1  0.03700500  0.28956800  0.49622600  1
  O  O80  1  0.19476300  0.21221800  0.62041000  1
  O  O81  1  0.97390250  0.86101950  0.09303700  1
  O  O82  1  0.03700500  0.71043200  0.99622600  1
  O  O83  1  0.30523700  0.71221800  0.87959000  1
  O  O84  1  0.80523700  0.78778200  0.37959000  1
  O  O85  1  0.60364250  0.64295250  0.07537100  1
  O  O86  1  0.13269900  0.23309500  0.69939400  1
  O  O87  1  0.63269900  0.26690500  0.19939400  1
  O  O88  1  0.00000000  0.86564600  0.25000000  1
  O  O89  1  0.85436450  0.45964450  0.66438200  1
  O  O90  1  0.96299500  0.71043200  0.50377400  1
  O  O91  1  0.86730100  0.76690500  0.30060600  1
  O  O92  1  0.92228250  0.23202650  0.13694300  1
  O  O93  1  0.96299500  0.28956800  0.00377400  1
  O  O94  1  0.20698500  0.81318900  0.72521100  1
  O  O95  1  0.70698500  0.68681100  0.22521100  1
  O  O96  1  0.02609750  0.86101950  0.40696300  1
  O  O97  1  0.89635750  0.14295250  0.42462900  1
  O  O98  1  0.36730100  0.73309500  0.80060600  1
  O  O99  1  0.95188550  0.73666650  0.79435300  1
  O  O100  1  0.92228250  0.76797350  0.63694300  1
  O  O101  1  0.72223150  0.42505850  0.35717200  1
  O  O102  1  0.29301500  0.31318900  0.77478900  1
  O  O103  1  0.27776850  0.57494150  0.64282800  1
  O  O104  1  0.97390250  0.13898050  0.59303700  1
  O  O105  1  0.77776850  0.92505850  0.14282800  1
  O  O106  1  0.60364250  0.35704750  0.57537100  1
  O  O107  1  0.54811450  0.76333350  0.20564700  1
  O  O108  1  0.52609750  0.63898050  0.90696300  1
  O  O109  1  0.35436450  0.04035550  0.16438200  1
  O  O110  1  0.54811450  0.23666650  0.70564700  1
  O  O111  1  0.57771750  0.73202650  0.36305700  1
  O  O112  1  0.19476300  0.78778200  0.12041000  1
  O  O113  1  0.64563550  0.95964450  0.83561800  1
  O  O114  1  0.64563550  0.04035550  0.33561800  1
  O  O115  1  0.89635750  0.85704750  0.92462900  1
  O  O116  1  0.57771750  0.26797350  0.86305700  1
  O  O117  1  0.72223150  0.57494150  0.85717200  1
  O  O118  1  0.45188550  0.76333350  0.29435300  1
  O  O119  1  0.29301500  0.68681100  0.27478900  1
  O  O120  1  0.50000000  0.63435400  0.75000000  1
  O  O121  1  0.53700500  0.78956800  0.49622600  1
  O  O122  1  0.69476300  0.71221800  0.62041000  1
  O  O123  1  0.47390250  0.36101950  0.09303700  1
  O  O124  1  0.53700500  0.21043200  0.99622600  1
  O  O125  1  0.80523700  0.21221800  0.87959000  1
  O  O126  1  0.30523700  0.28778200  0.37959000  1
  O  O127  1  0.10364250  0.14295250  0.07537100  1
  O  O128  1  0.63269900  0.73309500  0.69939400  1
  O  O129  1  0.13269900  0.76690500  0.19939400  1
  O  O130  1  0.50000000  0.36564600  0.25000000  1
  O  O131  1  0.35436450  0.95964450  0.66438200  1
  O  O132  1  0.46299500  0.21043200  0.50377400  1
  O  O133  1  0.36730100  0.26690500  0.30060600  1
  O  O134  1  0.42228250  0.73202650  0.13694300  1
  O  O135  1  0.46299500  0.78956800  0.00377400  1
  O  O136  1  0.70698500  0.31318900  0.72521100  1
  O  O137  1  0.20698500  0.18681100  0.22521100  1
  O  O138  1  0.52609750  0.36101950  0.40696300  1
  O  O139  1  0.39635750  0.64295250  0.42462900  1
  O  O140  1  0.86730100  0.23309500  0.80060600  1
  O  O141  1  0.45188550  0.23666650  0.79435300  1
  O  O142  1  0.42228250  0.26797350  0.63694300  1
  O  O143  1  0.22223150  0.92505850  0.35717200  1
  O  O144  1  0.79301500  0.81318900  0.77478900  1
  O  O145  1  0.77776850  0.07494150  0.64282800  1
  O  O146  1  0.47390250  0.63898050  0.59303700  1
  O  O147  1  0.27776850  0.42505850  0.14282800  1
