# generated using pymatgen
data_Li3MnV2O6
_symmetry_space_group_name_H-M   'P 1'
_cell_length_a   13.49133848
_cell_length_b   2.93782489
_cell_length_c   5.92691724
_cell_angle_alpha   90.00000000
_cell_angle_beta   102.60862007
_cell_angle_gamma   90.00000000
_symmetry_Int_Tables_number   1
_chemical_formula_structural   Li3MnV2O6
_chemical_formula_sum   'Li6 Mn2 V4 O12'
_cell_volume   229.24927645
_cell_formula_units_Z   2
loop_
 _symmetry_equiv_pos_site_id
 _symmetry_equiv_pos_as_xyz
  1  'x, y, z'
loop_
 _atom_site_type_symbol
 _atom_site_label
 _atom_site_symmetry_multiplicity
 _atom_site_fract_x
 _atom_site_fract_y
 _atom_site_fract_z
 _atom_site_occupancy
  Li  Li0  1  0.50000000  0.00000000  0.50000000  1
  Li  Li1  1  0.17191050  0.00000000  0.84126900  1
  Li  Li2  1  0.32808950  0.50000000  0.15873100  1
  Li  Li3  1  0.00000000  0.50000000  0.50000000  1
  Li  Li4  1  0.67191050  0.50000000  0.84126900  1
  Li  Li5  1  0.82808950  0.00000000  0.15873100  1
  Mn  Mn6  1  0.50000000  0.00000000  0.00000000  1
  Mn  Mn7  1  0.00000000  0.50000000  0.00000000  1
  V  V8  1  0.16946750  0.00000000  0.33364200  1
  V  V9  1  0.33053250  0.50000000  0.66635800  1
  V  V10  1  0.66946750  0.50000000  0.33364200  1
  V  V11  1  0.83053250  0.00000000  0.66635800  1
  O  O12  1  0.16842800  0.50000000  0.09834350  1
  O  O13  1  0.33157200  0.00000000  0.90165650  1
  O  O14  1  0.32977900  0.00000000  0.42790200  1
  O  O15  1  0.17022100  0.50000000  0.57209800  1
  O  O16  1  0.49021500  0.50000000  0.76653900  1
  O  O17  1  0.50978500  0.50000000  0.23346100  1
  O  O18  1  0.66842800  0.00000000  0.09834350  1
  O  O19  1  0.83157200  0.50000000  0.90165650  1
  O  O20  1  0.82977900  0.50000000  0.42790200  1
  O  O21  1  0.67022100  0.00000000  0.57209800  1
  O  O22  1  0.99021500  0.00000000  0.76653900  1
  O  O23  1  0.00978500  0.00000000  0.23346100  1
