# generated using pymatgen
data_Li6V5SbO12
_symmetry_space_group_name_H-M   'P 1'
_cell_length_a   5.44972583
_cell_length_b   9.07867860
_cell_length_c   10.51899572
_cell_angle_alpha   90.00000000
_cell_angle_beta   99.65278539
_cell_angle_gamma   90.00000000
_symmetry_Int_Tables_number   1
_chemical_formula_structural   Li6V5SbO12
_chemical_formula_sum   'Li12 V10 Sb2 O24'
_cell_volume   513.07266958
_cell_formula_units_Z   2
loop_
 _symmetry_equiv_pos_site_id
 _symmetry_equiv_pos_as_xyz
  1  'x, y, z'
loop_
 _atom_site_type_symbol
 _atom_site_label
 _atom_site_symmetry_multiplicity
 _atom_site_fract_x
 _atom_site_fract_y
 _atom_site_fract_z
 _atom_site_occupancy
  Li  Li0  1  0.73686350  0.16594850  0.21566900  1
  Li  Li1  1  0.76229750  0.00000000  0.78974600  1
  Li  Li2  1  0.26313650  0.16594850  0.78433100  1
  Li  Li3  1  0.73686350  0.83405150  0.21566900  1
  Li  Li4  1  0.23770250  0.00000000  0.21025400  1
  Li  Li5  1  0.26313650  0.83405150  0.78433100  1
  Li  Li6  1  0.23686350  0.66594850  0.21566900  1
  Li  Li7  1  0.26229750  0.50000000  0.78974600  1
  Li  Li8  1  0.76313650  0.66594850  0.78433100  1
  Li  Li9  1  0.23686350  0.33405150  0.21566900  1
  Li  Li10  1  0.73770250  0.50000000  0.21025400  1
  Li  Li11  1  0.76313650  0.33405150  0.78433100  1
  V  V12  1  0.50000000  0.32925000  0.00000000  1
  V  V13  1  0.50000000  0.00000000  0.00000000  1
  V  V14  1  0.50000000  0.67075000  0.00000000  1
  V  V15  1  0.50000000  0.16035600  0.50000000  1
  V  V16  1  0.50000000  0.83964400  0.50000000  1
  V  V17  1  0.00000000  0.82925000  0.00000000  1
  V  V18  1  0.00000000  0.50000000  0.00000000  1
  V  V19  1  0.00000000  0.17075000  0.00000000  1
  V  V20  1  0.00000000  0.66035600  0.50000000  1
  V  V21  1  0.00000000  0.33964400  0.50000000  1
  Sb  Sb22  1  0.50000000  0.50000000  0.50000000  1
  Sb  Sb23  1  0.00000000  0.00000000  0.50000000  1
  O  O24  1  0.81062300  0.16363100  0.39890200  1
  O  O25  1  0.63056100  0.17351400  0.88713700  1
  O  O26  1  0.36943900  0.17351400  0.11286300  1
  O  O27  1  0.87917750  0.00000000  0.10706100  1
  O  O28  1  0.71982550  0.00000000  0.60648100  1
  O  O29  1  0.18937700  0.16363100  0.60109800  1
  O  O30  1  0.81062300  0.83636900  0.39890200  1
  O  O31  1  0.28017450  0.00000000  0.39351900  1
  O  O32  1  0.12082250  0.00000000  0.89293900  1
  O  O33  1  0.63056100  0.82648600  0.88713700  1
  O  O34  1  0.36943900  0.82648600  0.11286300  1
  O  O35  1  0.18937700  0.83636900  0.60109800  1
  O  O36  1  0.31062300  0.66363100  0.39890200  1
  O  O37  1  0.13056100  0.67351400  0.88713700  1
  O  O38  1  0.86943900  0.67351400  0.11286300  1
  O  O39  1  0.37917750  0.50000000  0.10706100  1
  O  O40  1  0.21982550  0.50000000  0.60648100  1
  O  O41  1  0.68937700  0.66363100  0.60109800  1
  O  O42  1  0.31062300  0.33636900  0.39890200  1
  O  O43  1  0.78017450  0.50000000  0.39351900  1
  O  O44  1  0.62082250  0.50000000  0.89293900  1
  O  O45  1  0.13056100  0.32648600  0.88713700  1
  O  O46  1  0.86943900  0.32648600  0.11286300  1
  O  O47  1  0.68937700  0.33636900  0.60109800  1
