# generated using pymatgen
data_Na2SnO3
_symmetry_space_group_name_H-M   'P 1'
_cell_length_a   5.59408786
_cell_length_b   5.59408786
_cell_length_c   11.18420200
_cell_angle_alpha   90.00000000
_cell_angle_beta   90.00000000
_cell_angle_gamma   120.00000000
_symmetry_Int_Tables_number   1
_chemical_formula_structural   Na2SnO3
_chemical_formula_sum   'Na8 Sn4 O12'
_cell_volume   303.10576767
_cell_formula_units_Z   4
loop_
 _symmetry_equiv_pos_site_id
 _symmetry_equiv_pos_as_xyz
  1  'x, y, z'
loop_
 _atom_site_type_symbol
 _atom_site_label
 _atom_site_symmetry_multiplicity
 _atom_site_fract_x
 _atom_site_fract_y
 _atom_site_fract_z
 _atom_site_occupancy
  Na  Na0  1  0.67789550  0.67789550  0.75000000  1
  Na  Na1  1  0.00000000  0.67789550  0.25000000  1
  Na  Na2  1  0.32210450  0.32210450  0.25000000  1
  Na  Na3  1  0.00000000  0.00000000  0.50000000  1
  Na  Na4  1  0.00000000  0.00000000  0.00000000  1
  Na  Na5  1  0.32210450  0.00000000  0.75000000  1
  Na  Na6  1  0.00000000  0.32210450  0.75000000  1
  Na  Na7  1  0.67789550  0.00000000  0.25000000  1
  Sn  Sn8  1  0.66666667  0.33333333  0.50000000  1
  Sn  Sn9  1  0.33333333  0.66666667  0.50000000  1
  Sn  Sn10  1  0.33333333  0.66666667  0.00000000  1
  Sn  Sn11  1  0.66666667  0.33333333  0.00000000  1
  O  O12  1  0.63153550  0.63153550  0.10546300  1
  O  O13  1  0.63153550  0.63153550  0.39453700  1
  O  O14  1  0.36846450  0.36846450  0.60546300  1
  O  O15  1  0.36846450  0.36846450  0.89453700  1
  O  O16  1  0.00000000  0.63153550  0.60546300  1
  O  O17  1  0.00000000  0.63153550  0.89453700  1
  O  O18  1  0.00000000  0.36846450  0.10546300  1
  O  O19  1  0.00000000  0.36846450  0.39453700  1
  O  O20  1  0.36846450  0.00000000  0.10546300  1
  O  O21  1  0.36846450  0.00000000  0.39453700  1
  O  O22  1  0.63153550  0.00000000  0.60546300  1
  O  O23  1  0.63153550  0.00000000  0.89453700  1
