# generated using pymatgen
data_Bi12PbO19
_symmetry_space_group_name_H-M   'P 1'
_cell_length_a   14.82267476
_cell_length_b   14.82267476
_cell_length_c   8.90158496
_cell_angle_alpha   90.00000000
_cell_angle_beta   90.00000000
_cell_angle_gamma   120.00000000
_symmetry_Int_Tables_number   1
_chemical_formula_structural   Bi12PbO19
_chemical_formula_sum   'Bi36 Pb3 O57'
_cell_volume   1693.75711126
_cell_formula_units_Z   3
loop_
 _symmetry_equiv_pos_site_id
 _symmetry_equiv_pos_as_xyz
  1  'x, y, z'
loop_
 _atom_site_type_symbol
 _atom_site_label
 _atom_site_symmetry_multiplicity
 _atom_site_fract_x
 _atom_site_fract_y
 _atom_site_fract_z
 _atom_site_occupancy
  Bi  Bi0  1  0.16947567  0.98274933  0.66347133  1
  Bi  Bi1  1  0.15634500  0.14187700  0.33641300  1
  Bi  Bi2  1  0.29614967  0.39734033  0.56025733  1
  Bi  Bi3  1  0.21010567  0.94785533  0.08676633  1
  Bi  Bi4  1  0.35058400  0.85339300  0.33013800  1
  Bi  Bi5  1  0.40441633  0.12322767  0.42009967  1
  Bi  Bi6  1  0.26932633  0.23214267  0.89359067  1
  Bi  Bi7  1  0.31886533  0.51032167  0.00307967  1
  Bi  Bi8  1  0.43452400  0.37051700  0.22692400  1
  Bi  Bi9  1  0.47994033  0.16385767  0.99680467  1
  Bi  Bi10  1  0.38547800  0.92891700  0.75343300  1
  Bi  Bi11  1  0.52478967  0.34780133  0.66974633  1
  Bi  Bi12  1  0.83614233  0.31608267  0.99680467  1
  Bi  Bi13  1  0.82301167  0.47521033  0.66974633  1
  Bi  Bi14  1  0.96281633  0.73067367  0.89359067  1
  Bi  Bi15  1  0.87677233  0.28118867  0.42009967  1
  Bi  Bi16  1  0.01725067  0.18672633  0.66347133  1
  Bi  Bi17  1  0.07108300  0.45656100  0.75343300  1
  Bi  Bi18  1  0.93599300  0.56547600  0.22692400  1
  Bi  Bi19  1  0.98553200  0.84365500  0.33641300  1
  Bi  Bi20  1  0.10119067  0.70385033  0.56025733  1
  Bi  Bi21  1  0.14660700  0.49719100  0.33013800  1
  Bi  Bi22  1  0.05214467  0.26225033  0.08676633  1
  Bi  Bi23  1  0.19145633  0.68113467  0.00307967  1
  Bi  Bi24  1  0.50280900  0.64941600  0.33013800  1
  Bi  Bi25  1  0.48967833  0.80854367  0.00307967  1
  Bi  Bi26  1  0.62948300  0.06400700  0.22692400  1
  Bi  Bi27  1  0.54343900  0.61452200  0.75343300  1
  Bi  Bi28  1  0.68391733  0.52005967  0.99680467  1
  Bi  Bi29  1  0.73774967  0.78989433  0.08676633  1
  Bi  Bi30  1  0.60265967  0.89880933  0.56025733  1
  Bi  Bi31  1  0.65219867  0.17698833  0.66974633  1
  Bi  Bi32  1  0.76785733  0.03718367  0.89359067  1
  Bi  Bi33  1  0.81327367  0.83052433  0.66347133  1
  Bi  Bi34  1  0.71881133  0.59558367  0.42009967  1
  Bi  Bi35  1  0.85812300  0.01446800  0.33641300  1
  Pb  Pb36  1  0.00000000  0.00000000  0.95935400  1
  Pb  Pb37  1  0.66666667  0.33333333  0.29268733  1
  Pb  Pb38  1  0.33333333  0.66666667  0.62602067  1
  O  O39  1  0.00000000  0.00000000  0.38789000  1
  O  O40  1  0.15747000  0.20381500  0.57875100  1
  O  O41  1  0.28847000  0.94882900  0.59651300  1
  O  O42  1  0.21594533  0.04813767  0.41599067  1
  O  O43  1  0.15185633  0.06839867  0.08744567  1
  O  O44  1  0.34173267  0.30280233  0.41938033  1
  O  O45  1  0.12384567  0.24740633  0.87840633  1
  O  O46  1  0.45689400  0.54282100  0.54507300  1
  O  O47  1  0.28519567  0.83447433  0.08265733  1
  O  O48  1  0.38450433  0.00630767  0.26317967  1
  O  O49  1  0.29440300  0.32493400  0.08604700  1
  O  O50  1  0.37967833  0.50919667  0.24541767  1
  O  O51  1  0.41926033  0.20977267  0.21173967  1
  O  O52  1  0.32702567  0.04486333  0.92984633  1
  O  O53  1  0.58320900  0.18147700  0.42077900  1
  O  O54  1  0.26493467  0.75012433  0.75411233  1
  O  O55  1  0.36386433  0.37226367  0.75271367  1
  O  O56  1  0.46285167  0.28698833  0.91208433  1
  O  O57  1  0.49885900  0.11738800  0.74932400  1
  O  O58  1  0.66666667  0.33333333  0.72122333  1
  O  O59  1  0.82413667  0.53714833  0.91208433  1
  O  O60  1  0.95513667  0.28216233  0.92984633  1
  O  O61  1  0.88261200  0.38147100  0.74932400  1
  O  O62  1  0.81852300  0.40173200  0.42077900  1
  O  O63  1  0.00839933  0.63613567  0.75271367  1
  O  O64  1  0.79051233  0.58073967  0.21173967  1
  O  O65  1  0.12356067  0.87615433  0.87840633  1
  O  O66  1  0.95186233  0.16780767  0.41599067  1
  O  O67  1  0.05117100  0.33964100  0.59651300  1
  O  O68  1  0.96106967  0.65826733  0.41938033  1
  O  O69  1  0.04634500  0.84253000  0.57875100  1
  O  O70  1  0.08592700  0.54310600  0.54507300  1
  O  O71  1  0.99369233  0.37819667  0.26317967  1
  O  O72  1  0.24987567  0.51481033  0.75411233  1
  O  O73  1  0.93160133  0.08345767  0.08744567  1
  O  O74  1  0.03053100  0.70559700  0.08604700  1
  O  O75  1  0.12951833  0.62032167  0.24541767  1
  O  O76  1  0.16552567  0.45072133  0.08265733  1
  O  O77  1  0.33333333  0.66666667  0.05455667  1
  O  O78  1  0.49080333  0.87048167  0.24541767  1
  O  O79  1  0.62180333  0.61549567  0.26317967  1
  O  O80  1  0.54927867  0.71480433  0.08265733  1
  O  O81  1  0.48518967  0.73506533  0.75411233  1
  O  O82  1  0.67506600  0.96946900  0.08604700  1
  O  O83  1  0.45717900  0.91407300  0.54507300  1
  O  O84  1  0.79022733  0.20948767  0.21173967  1
  O  O85  1  0.61852900  0.50114100  0.74932400  1
  O  O86  1  0.71783767  0.67297433  0.92984633  1
  O  O87  1  0.62773633  0.99160067  0.75271367  1
  O  O88  1  0.71301167  0.17586333  0.91208433  1
  O  O89  1  0.75259367  0.87643933  0.87840633  1
  O  O90  1  0.66035900  0.71153000  0.59651300  1
  O  O91  1  0.91654233  0.84814367  0.08744567  1
  O  O92  1  0.59826800  0.41679100  0.42077900  1
  O  O93  1  0.69719767  0.03893033  0.41938033  1
  O  O94  1  0.79618500  0.95365500  0.57875100  1
  O  O95  1  0.83219233  0.78405467  0.41599067  1
