# generated using pymatgen
data_LuTa3O9
_symmetry_space_group_name_H-M   'P 1'
_cell_length_a   6.43588500
_cell_length_b   7.62050400
_cell_length_c   12.61096000
_cell_angle_alpha   90.00000000
_cell_angle_beta   90.00000000
_cell_angle_gamma   90.00000000
_symmetry_Int_Tables_number   1
_chemical_formula_structural   LuTa3O9
_chemical_formula_sum   'Lu4 Ta12 O36'
_cell_volume   618.50059084
_cell_formula_units_Z   4
loop_
 _symmetry_equiv_pos_site_id
 _symmetry_equiv_pos_as_xyz
  1  'x, y, z'
loop_
 _atom_site_type_symbol
 _atom_site_label
 _atom_site_symmetry_multiplicity
 _atom_site_fract_x
 _atom_site_fract_y
 _atom_site_fract_z
 _atom_site_occupancy
  Lu  Lu0  1  0.05498100  0.25000000  0.45877400  1
  Lu  Lu1  1  0.44501900  0.75000000  0.95877400  1
  Lu  Lu2  1  0.55498100  0.25000000  0.04122600  1
  Lu  Lu3  1  0.94501900  0.75000000  0.54122600  1
  Ta  Ta4  1  0.00000000  0.00000000  0.00000000  1
  Ta  Ta5  1  0.00000000  0.50000000  0.00000000  1
  Ta  Ta6  1  0.20528700  0.00266000  0.71257300  1
  Ta  Ta7  1  0.20528700  0.49734000  0.71257300  1
  Ta  Ta8  1  0.29471300  0.50266000  0.21257300  1
  Ta  Ta9  1  0.29471300  0.99734000  0.21257300  1
  Ta  Ta10  1  0.50000000  0.00000000  0.50000000  1
  Ta  Ta11  1  0.50000000  0.50000000  0.50000000  1
  Ta  Ta12  1  0.70528700  0.00266000  0.78742700  1
  Ta  Ta13  1  0.70528700  0.49734000  0.78742700  1
  Ta  Ta14  1  0.79471300  0.50266000  0.28742700  1
  Ta  Ta15  1  0.79471300  0.99734000  0.28742700  1
  O  O16  1  0.01600500  0.04241300  0.84288300  1
  O  O17  1  0.01600500  0.45758700  0.84288300  1
  O  O18  1  0.08753300  0.75000000  0.97504600  1
  O  O19  1  0.10236700  0.03925700  0.33307800  1
  O  O20  1  0.10236700  0.46074300  0.33307800  1
  O  O21  1  0.16515200  0.25000000  0.66967000  1
  O  O22  1  0.20617500  0.75000000  0.69674700  1
  O  O23  1  0.20456200  0.54107500  0.53596000  1
  O  O24  1  0.20456200  0.95892500  0.53596000  1
  O  O25  1  0.29543800  0.45892500  0.03596000  1
  O  O26  1  0.29543800  0.04107500  0.03596000  1
  O  O27  1  0.29382500  0.25000000  0.19674700  1
  O  O28  1  0.33484800  0.75000000  0.16967000  1
  O  O29  1  0.39763300  0.53925700  0.83307800  1
  O  O30  1  0.39763300  0.96074300  0.83307800  1
  O  O31  1  0.41246700  0.25000000  0.47504600  1
  O  O32  1  0.48399500  0.54241300  0.34288300  1
  O  O33  1  0.48399500  0.95758700  0.34288300  1
  O  O34  1  0.51600500  0.04241300  0.65711700  1
  O  O35  1  0.51600500  0.45758700  0.65711700  1
  O  O36  1  0.58753300  0.75000000  0.52495400  1
  O  O37  1  0.60236700  0.03925700  0.16692200  1
  O  O38  1  0.60236700  0.46074300  0.16692200  1
  O  O39  1  0.66515200  0.25000000  0.83033000  1
  O  O40  1  0.70617500  0.75000000  0.80325300  1
  O  O41  1  0.70456200  0.54107500  0.96404000  1
  O  O42  1  0.70456200  0.95892500  0.96404000  1
  O  O43  1  0.79543800  0.04107500  0.46404000  1
  O  O44  1  0.79543800  0.45892500  0.46404000  1
  O  O45  1  0.79382500  0.25000000  0.30325300  1
  O  O46  1  0.83484800  0.75000000  0.33033000  1
  O  O47  1  0.89763300  0.53925700  0.66692200  1
  O  O48  1  0.89763300  0.96074300  0.66692200  1
  O  O49  1  0.91246700  0.25000000  0.02495400  1
  O  O50  1  0.98399500  0.54241300  0.15711700  1
  O  O51  1  0.98399500  0.95758700  0.15711700  1
