# generated using pymatgen
data_BaO
_symmetry_space_group_name_H-M   'P 1'
_cell_length_a   3.91329400
_cell_length_b   6.80241400
_cell_length_c   52.70602800
_cell_angle_alpha   90.00000000
_cell_angle_beta   90.00000000
_cell_angle_gamma   90.00000000
_symmetry_Int_Tables_number   1
_chemical_formula_structural   BaO
_chemical_formula_sum   'Ba32 O32'
_cell_volume   1403.02634292
_cell_formula_units_Z   32
loop_
 _symmetry_equiv_pos_site_id
 _symmetry_equiv_pos_as_xyz
  1  'x, y, z'
loop_
 _atom_site_type_symbol
 _atom_site_label
 _atom_site_symmetry_multiplicity
 _atom_site_fract_x
 _atom_site_fract_y
 _atom_site_fract_z
 _atom_site_occupancy
  Ba  Ba0  1  0.00000000  0.27471600  0.75000000  1
  Ba  Ba1  1  0.50000000  0.28386500  0.06274600  1
  Ba  Ba2  1  0.50000000  0.28386500  0.43725400  1
  Ba  Ba3  1  0.00000000  0.41777100  0.12528500  1
  Ba  Ba4  1  0.00000000  0.41777100  0.37471500  1
  Ba  Ba5  1  0.50000000  0.43558600  0.68748000  1
  Ba  Ba6  1  0.50000000  0.43558600  0.81252000  1
  Ba  Ba7  1  0.50000000  0.00000000  0.50000000  1
  Ba  Ba8  1  0.50000000  0.00000000  0.00000000  1
  Ba  Ba9  1  0.00000000  0.06441400  0.18748000  1
  Ba  Ba10  1  0.00000000  0.06441400  0.31252000  1
  Ba  Ba11  1  0.50000000  0.08222900  0.62528500  1
  Ba  Ba12  1  0.50000000  0.08222900  0.87471500  1
  Ba  Ba13  1  0.00000000  0.21613500  0.56274600  1
  Ba  Ba14  1  0.00000000  0.21613500  0.93725400  1
  Ba  Ba15  1  0.50000000  0.22528400  0.25000000  1
  Ba  Ba16  1  0.50000000  0.77471600  0.75000000  1
  Ba  Ba17  1  0.00000000  0.78386500  0.06274600  1
  Ba  Ba18  1  0.00000000  0.78386500  0.43725400  1
  Ba  Ba19  1  0.50000000  0.91777100  0.12528500  1
  Ba  Ba20  1  0.50000000  0.91777100  0.37471500  1
  Ba  Ba21  1  0.00000000  0.93558600  0.68748000  1
  Ba  Ba22  1  0.00000000  0.93558600  0.81252000  1
  Ba  Ba23  1  0.00000000  0.50000000  0.50000000  1
  Ba  Ba24  1  0.00000000  0.50000000  0.00000000  1
  Ba  Ba25  1  0.50000000  0.56441400  0.18748000  1
  Ba  Ba26  1  0.50000000  0.56441400  0.31252000  1
  Ba  Ba27  1  0.00000000  0.58222900  0.62528500  1
  Ba  Ba28  1  0.00000000  0.58222900  0.87471500  1
  Ba  Ba29  1  0.50000000  0.71613500  0.56274600  1
  Ba  Ba30  1  0.50000000  0.71613500  0.93725400  1
  Ba  Ba31  1  0.00000000  0.72528400  0.25000000  1
  O  O32  1  0.50000000  0.33835200  0.53076900  1
  O  O33  1  0.50000000  0.40758800  0.59441300  1
  O  O34  1  0.00000000  0.25932800  0.65637800  1
  O  O35  1  0.50000000  0.40758800  0.90558700  1
  O  O36  1  0.00000000  0.25932800  0.84362200  1
  O  O37  1  0.50000000  0.33835200  0.96923100  1
  O  O38  1  0.00000000  0.39304500  0.21837900  1
  O  O39  1  0.00000000  0.39304500  0.28162100  1
  O  O40  1  0.50000000  0.10695500  0.71837900  1
  O  O41  1  0.00000000  0.16164800  0.03076900  1
  O  O42  1  0.00000000  0.16164800  0.46923100  1
  O  O43  1  0.50000000  0.24067200  0.15637800  1
  O  O44  1  0.50000000  0.10695500  0.78162100  1
  O  O45  1  0.00000000  0.09241200  0.09441300  1
  O  O46  1  0.00000000  0.09241200  0.40558700  1
  O  O47  1  0.50000000  0.24067200  0.34362200  1
  O  O48  1  0.00000000  0.83835200  0.53076900  1
  O  O49  1  0.00000000  0.90758800  0.59441300  1
  O  O50  1  0.50000000  0.75932800  0.65637800  1
  O  O51  1  0.00000000  0.90758800  0.90558700  1
  O  O52  1  0.50000000  0.75932800  0.84362200  1
  O  O53  1  0.00000000  0.83835200  0.96923100  1
  O  O54  1  0.50000000  0.89304500  0.21837900  1
  O  O55  1  0.50000000  0.89304500  0.28162100  1
  O  O56  1  0.00000000  0.60695500  0.71837900  1
  O  O57  1  0.50000000  0.66164800  0.03076900  1
  O  O58  1  0.50000000  0.66164800  0.46923100  1
  O  O59  1  0.00000000  0.74067200  0.15637800  1
  O  O60  1  0.00000000  0.60695500  0.78162100  1
  O  O61  1  0.50000000  0.59241200  0.09441300  1
  O  O62  1  0.50000000  0.59241200  0.40558700  1
  O  O63  1  0.00000000  0.74067200  0.34362200  1
