# generated using pymatgen
data_Li5Mn5(NiO6)2
_symmetry_space_group_name_H-M   'P 1'
_cell_length_a   5.19564400
_cell_length_b   8.93476400
_cell_length_c   9.84884144
_cell_angle_alpha   90.00000000
_cell_angle_beta   100.03759971
_cell_angle_gamma   90.00000000
_symmetry_Int_Tables_number   1
_chemical_formula_structural   Li5Mn5(NiO6)2
_chemical_formula_sum   'Li10 Mn10 Ni4 O24'
_cell_volume   450.20335447
_cell_formula_units_Z   2
loop_
 _symmetry_equiv_pos_site_id
 _symmetry_equiv_pos_as_xyz
  1  'x, y, z'
loop_
 _atom_site_type_symbol
 _atom_site_label
 _atom_site_symmetry_multiplicity
 _atom_site_fract_x
 _atom_site_fract_y
 _atom_site_fract_z
 _atom_site_occupancy
  Li  Li0  1  0.25923850  0.91590350  0.25650300  1
  Li  Li1  1  0.23921650  0.08287350  0.74070900  1
  Li  Li2  1  0.74076150  0.91590350  0.74349700  1
  Li  Li3  1  0.76078350  0.08287350  0.25929100  1
  Li  Li4  1  0.50000000  0.42183100  0.50000000  1
  Li  Li5  1  0.75923850  0.41590350  0.25650300  1
  Li  Li6  1  0.73921650  0.58287350  0.74070900  1
  Li  Li7  1  0.24076150  0.41590350  0.74349700  1
  Li  Li8  1  0.26078350  0.58287350  0.25929100  1
  Li  Li9  1  0.00000000  0.92183100  0.50000000  1
  Mn  Mn10  1  0.50000000  0.57361400  0.00000000  1
  Mn  Mn11  1  0.73569800  0.25502200  0.74319600  1
  Mn  Mn12  1  0.26430200  0.25502200  0.25680400  1
  Mn  Mn13  1  0.50000000  0.91664100  0.00000000  1
  Mn  Mn14  1  0.50000000  0.08116000  0.50000000  1
  Mn  Mn15  1  0.00000000  0.07361400  0.00000000  1
  Mn  Mn16  1  0.23569800  0.75502200  0.74319600  1
  Mn  Mn17  1  0.76430200  0.75502200  0.25680400  1
  Mn  Mn18  1  0.00000000  0.41664100  0.00000000  1
  Mn  Mn19  1  0.00000000  0.58116000  0.50000000  1
  Ni  Ni20  1  0.50000000  0.75462300  0.50000000  1
  Ni  Ni21  1  0.50000000  0.24605700  0.00000000  1
  Ni  Ni22  1  0.00000000  0.25462300  0.50000000  1
  Ni  Ni23  1  0.00000000  0.74605700  0.00000000  1
  O  O24  1  0.84209000  0.09708900  0.61878900  1
  O  O25  1  0.15791000  0.09708900  0.38121100  1
  O  O26  1  0.40701400  0.75712600  0.12713500  1
  O  O27  1  0.59298600  0.75712600  0.87286500  1
  O  O28  1  0.37987650  0.92611350  0.61374700  1
  O  O29  1  0.62012350  0.92611350  0.38625300  1
  O  O30  1  0.38030450  0.07598850  0.11277900  1
  O  O31  1  0.61969550  0.07598850  0.88722100  1
  O  O32  1  0.38869550  0.23923350  0.62173700  1
  O  O33  1  0.61130450  0.23923350  0.37826300  1
  O  O34  1  0.88837550  0.90368750  0.13279400  1
  O  O35  1  0.11162450  0.90368750  0.86720600  1
  O  O36  1  0.34209000  0.59708900  0.61878900  1
  O  O37  1  0.65791000  0.59708900  0.38121100  1
  O  O38  1  0.90701400  0.25712600  0.12713500  1
  O  O39  1  0.09298600  0.25712600  0.87286500  1
  O  O40  1  0.87987650  0.42611350  0.61374700  1
  O  O41  1  0.12012350  0.42611350  0.38625300  1
  O  O42  1  0.88030450  0.57598850  0.11277900  1
  O  O43  1  0.11969550  0.57598850  0.88722100  1
  O  O44  1  0.88869550  0.73923350  0.62173700  1
  O  O45  1  0.11130450  0.73923350  0.37826300  1
  O  O46  1  0.38837550  0.40368750  0.13279400  1
  O  O47  1  0.61162450  0.40368750  0.86720600  1
