# generated using pymatgen
data_Al2HgS4
_symmetry_space_group_name_H-M   'P 1'
_cell_length_a   5.63342000
_cell_length_b   5.63342000
_cell_length_c   10.31923000
_cell_angle_alpha   90.00000000
_cell_angle_beta   90.00000000
_cell_angle_gamma   90.00000000
_symmetry_Int_Tables_number   1
_chemical_formula_structural   Al2HgS4
_chemical_formula_sum   'Al4 Hg2 S8'
_cell_volume   327.48510738
_cell_formula_units_Z   2
loop_
 _symmetry_equiv_pos_site_id
 _symmetry_equiv_pos_as_xyz
  1  'x, y, z'
loop_
 _atom_site_type_symbol
 _atom_site_label
 _atom_site_symmetry_multiplicity
 _atom_site_fract_x
 _atom_site_fract_y
 _atom_site_fract_z
 _atom_site_occupancy
  Al  Al0  1  0.50000000  0.00000000  0.25000000  1
  Al  Al1  1  0.50000000  0.50000000  0.00000000  1
  Al  Al2  1  0.00000000  0.50000000  0.75000000  1
  Al  Al3  1  0.00000000  0.00000000  0.50000000  1
  Hg  Hg4  1  0.00000000  0.00000000  0.00000000  1
  Hg  Hg5  1  0.50000000  0.50000000  0.50000000  1
  S  S6  1  0.28141300  0.73305500  0.13539900  1
  S  S7  1  0.71858700  0.26694500  0.13539900  1
  S  S8  1  0.76694500  0.78141300  0.36460100  1
  S  S9  1  0.23305500  0.21858700  0.36460100  1
  S  S10  1  0.78141300  0.23305500  0.63539900  1
  S  S11  1  0.21858700  0.76694500  0.63539900  1
  S  S12  1  0.26694500  0.28141300  0.86460100  1
  S  S13  1  0.73305500  0.71858700  0.86460100  1
