# generated using pymatgen
data_Sn13(O5F3)2
_symmetry_space_group_name_H-M   'P 1'
_cell_length_a   15.10396000
_cell_length_b   7.14869000
_cell_length_c   23.03688606
_cell_angle_alpha   90.00000000
_cell_angle_beta   93.50665993
_cell_angle_gamma   90.00000000
_symmetry_Int_Tables_number   1
_chemical_formula_structural   Sn13(O5F3)2
_chemical_formula_sum   'Sn52 O40 F24'
_cell_volume   2482.71673703
_cell_formula_units_Z   4
loop_
 _symmetry_equiv_pos_site_id
 _symmetry_equiv_pos_as_xyz
  1  'x, y, z'
loop_
 _atom_site_type_symbol
 _atom_site_label
 _atom_site_symmetry_multiplicity
 _atom_site_fract_x
 _atom_site_fract_y
 _atom_site_fract_z
 _atom_site_occupancy
  Sn  Sn0  1  0.89788750  0.76720150  0.70629000  1
  Sn  Sn1  1  0.95911350  0.23255550  0.98596900  1
  Sn  Sn2  1  0.85041100  0.07900600  0.58296200  1
  Sn  Sn3  1  0.91484600  0.92129500  0.86530700  1
  Sn  Sn4  1  0.76831850  0.60793250  0.56269200  1
  Sn  Sn5  1  0.83587900  0.42849300  0.84537400  1
  Sn  Sn6  1  0.89788750  0.23279850  0.20629000  1
  Sn  Sn7  1  0.95911350  0.76744450  0.48596900  1
  Sn  Sn8  1  0.85041100  0.92099400  0.08296200  1
  Sn  Sn9  1  0.91484600  0.07870500  0.36530700  1
  Sn  Sn10  1  0.76831850  0.39206750  0.06269200  1
  Sn  Sn11  1  0.66412100  0.92849300  0.65462600  1
  Sn  Sn12  1  0.83587900  0.57150700  0.34537400  1
  Sn  Sn13  1  0.73168150  0.10793250  0.93730800  1
  Sn  Sn14  1  0.58515400  0.42129500  0.63469300  1
  Sn  Sn15  1  0.64958900  0.57900600  0.91703800  1
  Sn  Sn16  1  0.54088650  0.73255550  0.51403100  1
  Sn  Sn17  1  0.60211250  0.26720150  0.79371000  1
  Sn  Sn18  1  0.66412100  0.07150700  0.15462600  1
  Sn  Sn19  1  0.73168150  0.89206750  0.43730800  1
  Sn  Sn20  1  0.58515400  0.57870500  0.13469300  1
  Sn  Sn21  1  0.00000000  0.22164200  0.75000000  1
  Sn  Sn22  1  0.64958900  0.42099400  0.41703800  1
  Sn  Sn23  1  0.54088650  0.26744450  0.01403100  1
  Sn  Sn24  1  0.60211250  0.73279850  0.29371000  1
  Sn  Sn25  1  0.00000000  0.77835800  0.25000000  1
  Sn  Sn26  1  0.39788750  0.26720150  0.70629000  1
  Sn  Sn27  1  0.45911350  0.73255550  0.98596900  1
  Sn  Sn28  1  0.35041100  0.57900600  0.58296200  1
  Sn  Sn29  1  0.41484600  0.42129500  0.86530700  1
  Sn  Sn30  1  0.26831850  0.10793250  0.56269200  1
  Sn  Sn31  1  0.33587900  0.92849300  0.84537400  1
  Sn  Sn32  1  0.39788750  0.73279850  0.20629000  1
  Sn  Sn33  1  0.45911350  0.26744450  0.48596900  1
  Sn  Sn34  1  0.35041100  0.42099400  0.08296200  1
  Sn  Sn35  1  0.41484600  0.57870500  0.36530700  1
  Sn  Sn36  1  0.26831850  0.89206750  0.06269200  1
  Sn  Sn37  1  0.16412100  0.42849300  0.65462600  1
  Sn  Sn38  1  0.33587900  0.07150700  0.34537400  1
  Sn  Sn39  1  0.23168150  0.60793250  0.93730800  1
  Sn  Sn40  1  0.08515400  0.92129500  0.63469300  1
  Sn  Sn41  1  0.14958900  0.07900600  0.91703800  1
  Sn  Sn42  1  0.04088650  0.23255550  0.51403100  1
  Sn  Sn43  1  0.10211250  0.76720150  0.79371000  1
  Sn  Sn44  1  0.16412100  0.57150700  0.15462600  1
  Sn  Sn45  1  0.23168150  0.39206750  0.43730800  1
  Sn  Sn46  1  0.08515400  0.07870500  0.13469300  1
  Sn  Sn47  1  0.50000000  0.72164200  0.75000000  1
  Sn  Sn48  1  0.14958900  0.92099400  0.41703800  1
  Sn  Sn49  1  0.04088650  0.76744450  0.01403100  1
  Sn  Sn50  1  0.10211250  0.23279850  0.29371000  1
  Sn  Sn51  1  0.50000000  0.27835800  0.25000000  1
  O  O52  1  0.99642250  0.97444350  0.55849900  1
  O  O53  1  0.97329650  0.01078150  0.68386600  1
  O  O54  1  0.99642250  0.02555650  0.05849900  1
  O  O55  1  0.97329650  0.98921850  0.18386600  1
  O  O56  1  0.82627250  0.85509950  0.51751800  1
  O  O57  1  0.80308800  0.85176900  0.63876600  1
  O  O58  1  0.86162450  0.19450450  0.90196600  1
  O  O59  1  0.82627250  0.14490050  0.01751800  1
  O  O60  1  0.80308800  0.14823100  0.13876600  1
  O  O61  1  0.86162450  0.80549550  0.40196600  1
  O  O62  1  0.63837550  0.69450450  0.59803400  1
  O  O63  1  0.69691200  0.35176900  0.86123400  1
  O  O64  1  0.67372750  0.35509950  0.98248200  1
  O  O65  1  0.63837550  0.30549550  0.09803400  1
  O  O66  1  0.69691200  0.64823100  0.36123400  1
  O  O67  1  0.67372750  0.64490050  0.48248200  1
  O  O68  1  0.52670350  0.51078150  0.81613400  1
  O  O69  1  0.50357750  0.47444350  0.94150100  1
  O  O70  1  0.52670350  0.48921850  0.31613400  1
  O  O71  1  0.50357750  0.52555650  0.44150100  1
  O  O72  1  0.49642250  0.47444350  0.55849900  1
  O  O73  1  0.47329650  0.51078150  0.68386600  1
  O  O74  1  0.49642250  0.52555650  0.05849900  1
  O  O75  1  0.47329650  0.48921850  0.18386600  1
  O  O76  1  0.32627250  0.35509950  0.51751800  1
  O  O77  1  0.30308800  0.35176900  0.63876600  1
  O  O78  1  0.36162450  0.69450450  0.90196600  1
  O  O79  1  0.32627250  0.64490050  0.01751800  1
  O  O80  1  0.30308800  0.64823100  0.13876600  1
  O  O81  1  0.36162450  0.30549550  0.40196600  1
  O  O82  1  0.13837550  0.19450450  0.59803400  1
  O  O83  1  0.19691200  0.85176900  0.86123400  1
  O  O84  1  0.17372750  0.85509950  0.98248200  1
  O  O85  1  0.13837550  0.80549550  0.09803400  1
  O  O86  1  0.19691200  0.14823100  0.36123400  1
  O  O87  1  0.17372750  0.14490050  0.48248200  1
  O  O88  1  0.02670350  0.01078150  0.81613400  1
  O  O89  1  0.00357750  0.97444350  0.94150100  1
  O  O90  1  0.02670350  0.98921850  0.31613400  1
  O  O91  1  0.00357750  0.02555650  0.44150100  1
  F  F92  1  0.96317100  0.62709700  0.64142800  1
  F  F93  1  0.96317100  0.37290300  0.14142800  1
  F  F94  1  0.85636150  0.15879250  0.77604800  1
  F  F95  1  0.80864500  0.57663900  0.92901500  1
  F  F96  1  0.85636150  0.84120750  0.27604800  1
  F  F97  1  0.69135500  0.07663900  0.57098500  1
  F  F98  1  0.80864500  0.42336100  0.42901500  1
  F  F99  1  0.64363850  0.65879250  0.72395200  1
  F  F100  1  0.69135500  0.92336100  0.07098500  1
  F  F101  1  0.64363850  0.34120750  0.22395200  1
  F  F102  1  0.53682900  0.12709700  0.85857200  1
  F  F103  1  0.53682900  0.87290300  0.35857200  1
  F  F104  1  0.46317100  0.12709700  0.64142800  1
  F  F105  1  0.46317100  0.87290300  0.14142800  1
  F  F106  1  0.35636150  0.65879250  0.77604800  1
  F  F107  1  0.30864500  0.07663900  0.92901500  1
  F  F108  1  0.35636150  0.34120750  0.27604800  1
  F  F109  1  0.19135500  0.57663900  0.57098500  1
  F  F110  1  0.30864500  0.92336100  0.42901500  1
  F  F111  1  0.14363850  0.15879250  0.72395200  1
  F  F112  1  0.19135500  0.42336100  0.07098500  1
  F  F113  1  0.14363850  0.84120750  0.22395200  1
  F  F114  1  0.03682900  0.62709700  0.85857200  1
  F  F115  1  0.03682900  0.37290300  0.35857200  1
