# generated using pymatgen
data_TiO2
_symmetry_space_group_name_H-M   'P 1'
_cell_length_a   2.98093200
_cell_length_b   4.80245000
_cell_length_c   18.70762300
_cell_angle_alpha   90.00000000
_cell_angle_beta   90.00000000
_cell_angle_gamma   90.00000000
_symmetry_Int_Tables_number   1
_chemical_formula_structural   TiO2
_chemical_formula_sum   'Ti8 O16'
_cell_volume   267.81415689
_cell_formula_units_Z   8
loop_
 _symmetry_equiv_pos_site_id
 _symmetry_equiv_pos_as_xyz
  1  'x, y, z'
loop_
 _atom_site_type_symbol
 _atom_site_label
 _atom_site_symmetry_multiplicity
 _atom_site_fract_x
 _atom_site_fract_y
 _atom_site_fract_z
 _atom_site_occupancy
  Ti  Ti0  1  0.25000000  0.09082300  0.56934400  1
  Ti  Ti1  1  0.75000000  0.59053800  0.68809800  1
  Ti  Ti2  1  0.25000000  0.09053800  0.81190200  1
  Ti  Ti3  1  0.75000000  0.59082300  0.93065600  1
  Ti  Ti4  1  0.25000000  0.40917700  0.06934400  1
  Ti  Ti5  1  0.75000000  0.90946200  0.18809800  1
  Ti  Ti6  1  0.25000000  0.40946200  0.31190200  1
  Ti  Ti7  1  0.75000000  0.90917700  0.43065600  1
  O  O8  1  0.75000000  0.21369500  0.51349900  1
  O  O9  1  0.25000000  0.38488900  0.63661700  1
  O  O10  1  0.75000000  0.87759100  0.61911900  1
  O  O11  1  0.75000000  0.24248100  0.76022000  1
  O  O12  1  0.25000000  0.74248100  0.73978000  1
  O  O13  1  0.25000000  0.37759100  0.88088100  1
  O  O14  1  0.75000000  0.88488900  0.86338300  1
  O  O15  1  0.25000000  0.71369500  0.98650100  1
  O  O16  1  0.75000000  0.28630500  0.01349900  1
  O  O17  1  0.25000000  0.11511100  0.13661700  1
  O  O18  1  0.75000000  0.62240900  0.11911900  1
  O  O19  1  0.75000000  0.25751900  0.26022000  1
  O  O20  1  0.25000000  0.75751900  0.23978000  1
  O  O21  1  0.25000000  0.12240900  0.38088100  1
  O  O22  1  0.75000000  0.61511100  0.36338300  1
  O  O23  1  0.25000000  0.78630500  0.48650100  1
