# generated using pymatgen
data_Li4Cr5SbO12
_symmetry_space_group_name_H-M   'P 1'
_cell_length_a   5.23040363
_cell_length_b   9.08146675
_cell_length_c   10.48057159
_cell_angle_alpha   90.00000000
_cell_angle_beta   97.49650419
_cell_angle_gamma   90.00000000
_symmetry_Int_Tables_number   1
_chemical_formula_structural   Li4Cr5SbO12
_chemical_formula_sum   'Li8 Cr10 Sb2 O24'
_cell_volume   493.56939815
_cell_formula_units_Z   2
loop_
 _symmetry_equiv_pos_site_id
 _symmetry_equiv_pos_as_xyz
  1  'x, y, z'
loop_
 _atom_site_type_symbol
 _atom_site_label
 _atom_site_symmetry_multiplicity
 _atom_site_fract_x
 _atom_site_fract_y
 _atom_site_fract_z
 _atom_site_occupancy
  Li  Li0  1  0.78048650  0.66826250  0.79176800  1
  Li  Li1  1  0.21951350  0.66826250  0.20823200  1
  Li  Li2  1  0.28048650  0.83173750  0.79176800  1
  Li  Li3  1  0.71951350  0.83173750  0.20823200  1
  Li  Li4  1  0.28048650  0.16826250  0.79176800  1
  Li  Li5  1  0.71951350  0.16826250  0.20823200  1
  Li  Li6  1  0.78048650  0.33173750  0.79176800  1
  Li  Li7  1  0.21951350  0.33173750  0.20823200  1
  Cr  Cr8  1  0.50000000  0.00000000  0.00000000  1
  Cr  Cr9  1  0.00000000  0.83698300  0.00000000  1
  Cr  Cr10  1  0.50000000  0.66301700  0.00000000  1
  Cr  Cr11  1  0.00000000  0.66523725  0.50000000  1
  Cr  Cr12  1  0.50000000  0.83476275  0.50000000  1
  Cr  Cr13  1  0.00000000  0.50000000  0.00000000  1
  Cr  Cr14  1  0.50000000  0.33698300  0.00000000  1
  Cr  Cr15  1  0.00000000  0.16301700  0.00000000  1
  Cr  Cr16  1  0.50000000  0.16523725  0.50000000  1
  Cr  Cr17  1  0.00000000  0.33476275  0.50000000  1
  Sb  Sb18  1  0.00000000  0.00000000  0.50000000  1
  Sb  Sb19  1  0.50000000  0.50000000  0.50000000  1
  O  O20  1  0.65040725  0.50000000  0.89524900  1
  O  O21  1  0.34959275  0.50000000  0.10475100  1
  O  O22  1  0.30644200  0.00000000  0.40398800  1
  O  O23  1  0.69355800  0.00000000  0.59601200  1
  O  O24  1  0.80814125  0.83347175  0.39980400  1
  O  O25  1  0.19185875  0.83347175  0.60019600  1
  O  O26  1  0.30814125  0.66652825  0.39980400  1
  O  O27  1  0.69185875  0.66652825  0.60019600  1
  O  O28  1  0.86593325  0.67294775  0.10328800  1
  O  O29  1  0.13406675  0.67294775  0.89671200  1
  O  O30  1  0.36593325  0.82705225  0.10328800  1
  O  O31  1  0.63406675  0.82705225  0.89671200  1
  O  O32  1  0.15040725  0.00000000  0.89524900  1
  O  O33  1  0.84959275  0.00000000  0.10475100  1
  O  O34  1  0.80644200  0.50000000  0.40398800  1
  O  O35  1  0.19355800  0.50000000  0.59601200  1
  O  O36  1  0.30814125  0.33347175  0.39980400  1
  O  O37  1  0.69185875  0.33347175  0.60019600  1
  O  O38  1  0.80814125  0.16652825  0.39980400  1
  O  O39  1  0.19185875  0.16652825  0.60019600  1
  O  O40  1  0.36593325  0.17294775  0.10328800  1
  O  O41  1  0.63406675  0.17294775  0.89671200  1
  O  O42  1  0.86593325  0.32705225  0.10328800  1
  O  O43  1  0.13406675  0.32705225  0.89671200  1
