# generated using pymatgen
data_Ho2P4O13
_symmetry_space_group_name_H-M   'P 1'
_cell_length_a   11.96440600
_cell_length_b   6.77580000
_cell_length_c   12.99407559
_cell_angle_alpha   90.00000000
_cell_angle_beta   106.11798857
_cell_angle_gamma   90.00000000
_symmetry_Int_Tables_number   1
_chemical_formula_structural   Ho2P4O13
_chemical_formula_sum   'Ho8 P16 O52'
_cell_volume   1012.00183988
_cell_formula_units_Z   4
loop_
 _symmetry_equiv_pos_site_id
 _symmetry_equiv_pos_as_xyz
  1  'x, y, z'
loop_
 _atom_site_type_symbol
 _atom_site_label
 _atom_site_symmetry_multiplicity
 _atom_site_fract_x
 _atom_site_fract_y
 _atom_site_fract_z
 _atom_site_occupancy
  Ho  Ho0  1  0.69314250  0.00204250  0.55133700  1
  Ho  Ho1  1  0.69314250  0.99795750  0.05133700  1
  Ho  Ho2  1  0.80685750  0.50204250  0.94866300  1
  Ho  Ho3  1  0.80685750  0.49795750  0.44866300  1
  Ho  Ho4  1  0.19314250  0.50204250  0.55133700  1
  Ho  Ho5  1  0.19314250  0.49795750  0.05133700  1
  Ho  Ho6  1  0.30685750  0.00204250  0.94866300  1
  Ho  Ho7  1  0.30685750  0.99795750  0.44866300  1
  P  P8  1  0.76677500  0.00622500  0.84036500  1
  P  P9  1  0.76677500  0.99377500  0.34036500  1
  P  P10  1  0.98829550  0.14814650  0.63386900  1
  P  P11  1  0.51170450  0.64814650  0.86613100  1
  P  P12  1  0.98829550  0.85185350  0.13386900  1
  P  P13  1  0.51170450  0.35185350  0.36613100  1
  P  P14  1  0.73322500  0.50622500  0.65963500  1
  P  P15  1  0.73322500  0.49377500  0.15963500  1
  P  P16  1  0.26677500  0.50622500  0.84036500  1
  P  P17  1  0.26677500  0.49377500  0.34036500  1
  P  P18  1  0.48829550  0.64814650  0.63386900  1
  P  P19  1  0.01170450  0.14814650  0.86613100  1
  P  P20  1  0.48829550  0.35185350  0.13386900  1
  P  P21  1  0.01170450  0.85185350  0.36613100  1
  P  P22  1  0.23322500  0.00622500  0.65963500  1
  P  P23  1  0.23322500  0.99377500  0.15963500  1
  O  O24  1  0.88706800  0.00947500  0.60323100  1
  O  O25  1  0.90325350  0.00332550  0.84679100  1
  O  O26  1  0.88706800  0.99052500  0.10323100  1
  O  O27  1  0.90325350  0.99667450  0.34679100  1
  O  O28  1  0.69926100  0.00594800  0.72395400  1
  O  O29  1  0.74922900  0.82477100  0.90511900  1
  O  O30  1  0.74428250  0.18182950  0.90654000  1
  O  O31  1  0.99530600  0.32024900  0.56003300  1
  O  O32  1  0.69926100  0.99405200  0.22395400  1
  O  O33  1  0.74922900  0.17522900  0.40511900  1
  O  O34  1  0.74428250  0.81817050  0.40654000  1
  O  O35  1  0.00000000  0.24438100  0.75000000  1
  O  O36  1  0.50469400  0.82024900  0.93996700  1
  O  O37  1  0.99530600  0.67975100  0.06003300  1
  O  O38  1  0.00000000  0.75561900  0.25000000  1
  O  O39  1  0.75571750  0.68182950  0.59346000  1
  O  O40  1  0.75077100  0.32477100  0.59488100  1
  O  O41  1  0.80073900  0.50594800  0.77604600  1
  O  O42  1  0.50469400  0.17975100  0.43996700  1
  O  O43  1  0.75571750  0.31817050  0.09346000  1
  O  O44  1  0.75077100  0.67522900  0.09488100  1
  O  O45  1  0.80073900  0.49405200  0.27604600  1
  O  O46  1  0.59674650  0.50332550  0.65320900  1
  O  O47  1  0.61293200  0.50947500  0.89676900  1
  O  O48  1  0.59674650  0.49667450  0.15320900  1
  O  O49  1  0.61293200  0.49052500  0.39676900  1
  O  O50  1  0.38706800  0.50947500  0.60323100  1
  O  O51  1  0.40325350  0.50332550  0.84679100  1
  O  O52  1  0.38706800  0.49052500  0.10323100  1
  O  O53  1  0.40325350  0.49667450  0.34679100  1
  O  O54  1  0.19926100  0.50594800  0.72395400  1
  O  O55  1  0.24922900  0.32477100  0.90511900  1
  O  O56  1  0.24428250  0.68182950  0.90654000  1
  O  O57  1  0.49530600  0.82024900  0.56003300  1
  O  O58  1  0.19926100  0.49405200  0.22395400  1
  O  O59  1  0.24922900  0.67522900  0.40511900  1
  O  O60  1  0.24428250  0.31817050  0.40654000  1
  O  O61  1  0.50000000  0.74438100  0.75000000  1
  O  O62  1  0.00469400  0.32024900  0.93996700  1
  O  O63  1  0.49530600  0.17975100  0.06003300  1
  O  O64  1  0.50000000  0.25561900  0.25000000  1
  O  O65  1  0.25571750  0.18182950  0.59346000  1
  O  O66  1  0.25077100  0.82477100  0.59488100  1
  O  O67  1  0.30073900  0.00594800  0.77604600  1
  O  O68  1  0.00469400  0.67975100  0.43996700  1
  O  O69  1  0.25571750  0.81817050  0.09346000  1
  O  O70  1  0.25077100  0.17522900  0.09488100  1
  O  O71  1  0.30073900  0.99405200  0.27604600  1
  O  O72  1  0.09674650  0.00332550  0.65320900  1
  O  O73  1  0.11293200  0.00947500  0.89676900  1
  O  O74  1  0.09674650  0.99667450  0.15320900  1
  O  O75  1  0.11293200  0.99052500  0.39676900  1
