# generated using pymatgen
data_Li2V2S5
_symmetry_space_group_name_H-M   'P 1'
_cell_length_a   10.01926600
_cell_length_b   6.23139400
_cell_length_c   11.60477859
_cell_angle_alpha   90.00000000
_cell_angle_beta   114.77877649
_cell_angle_gamma   90.00000000
_symmetry_Int_Tables_number   1
_chemical_formula_structural   Li2V2S5
_chemical_formula_sum   'Li8 V8 S20'
_cell_volume   657.82697498
_cell_formula_units_Z   4
loop_
 _symmetry_equiv_pos_site_id
 _symmetry_equiv_pos_as_xyz
  1  'x, y, z'
loop_
 _atom_site_type_symbol
 _atom_site_label
 _atom_site_symmetry_multiplicity
 _atom_site_fract_x
 _atom_site_fract_y
 _atom_site_fract_z
 _atom_site_occupancy
  Li  Li0  1  0.19145850  0.37393550  0.81963700  1
  Li  Li1  1  0.69145850  0.12606450  0.31963700  1
  Li  Li2  1  0.80854150  0.37393550  0.68036300  1
  Li  Li3  1  0.30854150  0.12606450  0.18036300  1
  Li  Li4  1  0.69145850  0.87393550  0.81963700  1
  Li  Li5  1  0.19145850  0.62606450  0.31963700  1
  Li  Li6  1  0.30854150  0.87393550  0.68036300  1
  Li  Li7  1  0.80854150  0.62606450  0.18036300  1
  V  V8  1  0.09103550  0.85100150  0.94745800  1
  V  V9  1  0.90896450  0.85100150  0.55254200  1
  V  V10  1  0.59103550  0.64899850  0.44745800  1
  V  V11  1  0.40896450  0.64899850  0.05254200  1
  V  V12  1  0.59103550  0.35100150  0.94745800  1
  V  V13  1  0.40896450  0.35100150  0.55254200  1
  V  V14  1  0.09103550  0.14899850  0.44745800  1
  V  V15  1  0.90896450  0.14899850  0.05254200  1
  S  S16  1  0.70339600  0.99758600  0.53262800  1
  S  S17  1  0.70339600  0.00241400  0.03262800  1
  S  S18  1  0.58466150  0.60759250  0.64210600  1
  S  S19  1  0.00000000  0.66210800  0.75000000  1
  S  S20  1  0.91533850  0.10759250  0.85789400  1
  S  S21  1  0.58466150  0.39240750  0.14210600  1
  S  S22  1  0.50000000  0.83789200  0.25000000  1
  S  S23  1  0.91533850  0.89240750  0.35789400  1
  S  S24  1  0.79660400  0.49758600  0.96737200  1
  S  S25  1  0.79660400  0.50241400  0.46737200  1
  S  S26  1  0.20339600  0.49758600  0.53262800  1
  S  S27  1  0.20339600  0.50241400  0.03262800  1
  S  S28  1  0.08466150  0.10759250  0.64210600  1
  S  S29  1  0.50000000  0.16210800  0.75000000  1
  S  S30  1  0.41533850  0.60759250  0.85789400  1
  S  S31  1  0.08466150  0.89240750  0.14210600  1
  S  S32  1  0.00000000  0.33789200  0.25000000  1
  S  S33  1  0.41533850  0.39240750  0.35789400  1
  S  S34  1  0.29660400  0.99758600  0.96737200  1
  S  S35  1  0.29660400  0.00241400  0.46737200  1
