# generated using pymatgen
data_TcAgO4
_symmetry_space_group_name_H-M   'P 1'
_cell_length_a   5.43408000
_cell_length_b   5.43408000
_cell_length_c   11.82062800
_cell_angle_alpha   90.00000000
_cell_angle_beta   90.00000000
_cell_angle_gamma   90.00000000
_symmetry_Int_Tables_number   1
_chemical_formula_structural   TcAgO4
_chemical_formula_sum   'Tc4 Ag4 O16'
_cell_volume   349.05398913
_cell_formula_units_Z   4
loop_
 _symmetry_equiv_pos_site_id
 _symmetry_equiv_pos_as_xyz
  1  'x, y, z'
loop_
 _atom_site_type_symbol
 _atom_site_label
 _atom_site_symmetry_multiplicity
 _atom_site_fract_x
 _atom_site_fract_y
 _atom_site_fract_z
 _atom_site_occupancy
  Tc  Tc0  1  0.50000000  0.50000000  0.00000000  1
  Tc  Tc1  1  0.50000000  0.00000000  0.25000000  1
  Tc  Tc2  1  0.00000000  0.00000000  0.50000000  1
  Tc  Tc3  1  0.00000000  0.50000000  0.75000000  1
  Ag  Ag4  1  0.00000000  0.00000000  0.00000000  1
  Ag  Ag5  1  0.00000000  0.50000000  0.25000000  1
  Ag  Ag6  1  0.50000000  0.50000000  0.50000000  1
  Ag  Ag7  1  0.50000000  0.00000000  0.75000000  1
  O  O8  1  0.86899600  0.76760500  0.41676900  1
  O  O9  1  0.26760500  0.13100400  0.16676900  1
  O  O10  1  0.73239500  0.86899600  0.16676900  1
  O  O11  1  0.13100400  0.23239500  0.41676900  1
  O  O12  1  0.36899600  0.76760500  0.33323100  1
  O  O13  1  0.26760500  0.63100400  0.08323100  1
  O  O14  1  0.73239500  0.36899600  0.08323100  1
  O  O15  1  0.63100400  0.23239500  0.33323100  1
  O  O16  1  0.36899600  0.26760500  0.91676900  1
  O  O17  1  0.76760500  0.63100400  0.66676900  1
  O  O18  1  0.23239500  0.36899600  0.66676900  1
  O  O19  1  0.63100400  0.73239500  0.91676900  1
  O  O20  1  0.86899600  0.26760500  0.83323100  1
  O  O21  1  0.76760500  0.13100400  0.58323100  1
  O  O22  1  0.23239500  0.86899600  0.58323100  1
  O  O23  1  0.13100400  0.73239500  0.83323100  1
