# generated using pymatgen
data_LiFeB2O5
_symmetry_space_group_name_H-M   'P 1'
_cell_length_a   10.24926800
_cell_length_b   10.42589400
_cell_length_c   9.78424706
_cell_angle_alpha   90.00000000
_cell_angle_beta   120.02779822
_cell_angle_gamma   90.00000000
_symmetry_Int_Tables_number   1
_chemical_formula_structural   LiFeB2O5
_chemical_formula_sum   'Li8 Fe8 B16 O40'
_cell_volume   905.19568862
_cell_formula_units_Z   8
loop_
 _symmetry_equiv_pos_site_id
 _symmetry_equiv_pos_as_xyz
  1  'x, y, z'
loop_
 _atom_site_type_symbol
 _atom_site_label
 _atom_site_symmetry_multiplicity
 _atom_site_fract_x
 _atom_site_fract_y
 _atom_site_fract_z
 _atom_site_occupancy
  Li  Li0  1  0.50000000  0.66114500  0.75000000  1
  Li  Li1  1  0.50000000  0.12121500  0.75000000  1
  Li  Li2  1  0.50000000  0.87878500  0.25000000  1
  Li  Li3  1  0.50000000  0.33885500  0.25000000  1
  Li  Li4  1  0.00000000  0.16114500  0.75000000  1
  Li  Li5  1  0.00000000  0.62121500  0.75000000  1
  Li  Li6  1  0.00000000  0.37878500  0.25000000  1
  Li  Li7  1  0.00000000  0.83885500  0.25000000  1
  Fe  Fe8  1  0.19762050  0.84487350  0.65106000  1
  Fe  Fe9  1  0.19762050  0.15512650  0.15106000  1
  Fe  Fe10  1  0.80237950  0.84487350  0.84894000  1
  Fe  Fe11  1  0.80237950  0.15512650  0.34894000  1
  Fe  Fe12  1  0.69762050  0.34487350  0.65106000  1
  Fe  Fe13  1  0.69762050  0.65512650  0.15106000  1
  Fe  Fe14  1  0.30237950  0.34487350  0.84894000  1
  Fe  Fe15  1  0.30237950  0.65512650  0.34894000  1
  B  B16  1  0.23314800  0.00567500  0.90538800  1
  B  B17  1  0.43124900  0.83183200  0.97458500  1
  B  B18  1  0.23314800  0.99432500  0.40538800  1
  B  B19  1  0.43124900  0.16816800  0.47458500  1
  B  B20  1  0.56875100  0.83183200  0.52541500  1
  B  B21  1  0.76685200  0.00567500  0.59461200  1
  B  B22  1  0.56875100  0.16816800  0.02541500  1
  B  B23  1  0.76685200  0.99432500  0.09461200  1
  B  B24  1  0.73314800  0.50567500  0.90538800  1
  B  B25  1  0.93124900  0.33183200  0.97458500  1
  B  B26  1  0.73314800  0.49432500  0.40538800  1
  B  B27  1  0.93124900  0.66816800  0.47458500  1
  B  B28  1  0.06875100  0.33183200  0.52541500  1
  B  B29  1  0.26685200  0.50567500  0.59461200  1
  B  B30  1  0.06875100  0.66816800  0.02541500  1
  B  B31  1  0.26685200  0.49432500  0.09461200  1
  O  O32  1  0.18735050  0.10631250  0.96141000  1
  O  O33  1  0.15948100  0.98519200  0.74647600  1
  O  O34  1  0.18735050  0.89368750  0.46141000  1
  O  O35  1  0.38933850  0.79426250  0.82502200  1
  O  O36  1  0.44914400  0.21685600  0.89047100  1
  O  O37  1  0.15948100  0.01480800  0.24647600  1
  O  O38  1  0.35486850  0.07203650  0.51250200  1
  O  O39  1  0.64513150  0.07203650  0.98749800  1
  O  O40  1  0.38933850  0.20573750  0.32502200  1
  O  O41  1  0.44914400  0.78314400  0.39047100  1
  O  O42  1  0.55085600  0.21685600  0.60952900  1
  O  O43  1  0.61066150  0.79426250  0.67497800  1
  O  O44  1  0.35486850  0.92796350  0.01250200  1
  O  O45  1  0.64513150  0.92796350  0.48749800  1
  O  O46  1  0.84051900  0.98519200  0.75352400  1
  O  O47  1  0.55085600  0.78314400  0.10952900  1
  O  O48  1  0.61066150  0.20573750  0.17497800  1
  O  O49  1  0.81264950  0.10631250  0.53859000  1
  O  O50  1  0.84051900  0.01480800  0.25352400  1
  O  O51  1  0.81264950  0.89368750  0.03859000  1
  O  O52  1  0.68735050  0.60631250  0.96141000  1
  O  O53  1  0.65948100  0.48519200  0.74647600  1
  O  O54  1  0.68735050  0.39368750  0.46141000  1
  O  O55  1  0.88933850  0.29426250  0.82502200  1
  O  O56  1  0.94914400  0.71685600  0.89047100  1
  O  O57  1  0.65948100  0.51480800  0.24647600  1
  O  O58  1  0.85486850  0.57203650  0.51250200  1
  O  O59  1  0.14513150  0.57203650  0.98749800  1
  O  O60  1  0.88933850  0.70573750  0.32502200  1
  O  O61  1  0.94914400  0.28314400  0.39047100  1
  O  O62  1  0.05085600  0.71685600  0.60952900  1
  O  O63  1  0.11066150  0.29426250  0.67497800  1
  O  O64  1  0.85486850  0.42796350  0.01250200  1
  O  O65  1  0.14513150  0.42796350  0.48749800  1
  O  O66  1  0.34051900  0.48519200  0.75352400  1
  O  O67  1  0.05085600  0.28314400  0.10952900  1
  O  O68  1  0.11066150  0.70573750  0.17497800  1
  O  O69  1  0.31264950  0.60631250  0.53859000  1
  O  O70  1  0.34051900  0.51480800  0.25352400  1
  O  O71  1  0.31264950  0.39368750  0.03859000  1
