# generated using pymatgen
data_Nd3SbO7
_symmetry_space_group_name_H-M   'P 1'
_cell_length_a   7.71772000
_cell_length_b   10.94275800
_cell_length_c   7.77022300
_cell_angle_alpha   90.00000000
_cell_angle_beta   90.00000000
_cell_angle_gamma   90.00000000
_symmetry_Int_Tables_number   1
_chemical_formula_structural   Nd3SbO7
_chemical_formula_sum   'Nd12 Sb4 O28'
_cell_volume   656.21974850
_cell_formula_units_Z   4
loop_
 _symmetry_equiv_pos_site_id
 _symmetry_equiv_pos_as_xyz
  1  'x, y, z'
loop_
 _atom_site_type_symbol
 _atom_site_label
 _atom_site_symmetry_multiplicity
 _atom_site_fract_x
 _atom_site_fract_y
 _atom_site_fract_z
 _atom_site_occupancy
  Nd  Nd0  1  0.50000000  0.00000000  0.50000000  1
  Nd  Nd1  1  0.50000000  0.00000000  0.00000000  1
  Nd  Nd2  1  0.76593150  0.23335550  0.75000000  1
  Nd  Nd3  1  0.76593150  0.76664450  0.25000000  1
  Nd  Nd4  1  0.23406850  0.76664450  0.25000000  1
  Nd  Nd5  1  0.23406850  0.23335550  0.75000000  1
  Nd  Nd6  1  0.00000000  0.50000000  0.50000000  1
  Nd  Nd7  1  0.00000000  0.50000000  0.00000000  1
  Nd  Nd8  1  0.26593150  0.73335550  0.75000000  1
  Nd  Nd9  1  0.26593150  0.26664450  0.25000000  1
  Nd  Nd10  1  0.73406850  0.26664450  0.25000000  1
  Nd  Nd11  1  0.73406850  0.73335550  0.75000000  1
  Sb  Sb12  1  0.00000000  0.00000000  0.50000000  1
  Sb  Sb13  1  0.00000000  0.00000000  0.00000000  1
  Sb  Sb14  1  0.50000000  0.50000000  0.50000000  1
  Sb  Sb15  1  0.50000000  0.50000000  0.00000000  1
  O  O16  1  0.80858850  0.12278350  0.47312100  1
  O  O17  1  0.80858850  0.87721650  0.52687900  1
  O  O18  1  0.80858850  0.12278350  0.02687900  1
  O  O19  1  0.80858850  0.87721650  0.97312100  1
  O  O20  1  0.19141150  0.87721650  0.52687900  1
  O  O21  1  0.19141150  0.12278350  0.47312100  1
  O  O22  1  0.19141150  0.87721650  0.97312100  1
  O  O23  1  0.19141150  0.12278350  0.02687900  1
  O  O24  1  0.50000000  0.56163100  0.75000000  1
  O  O25  1  0.50000000  0.43836900  0.25000000  1
  O  O26  1  0.50000000  0.12975900  0.75000000  1
  O  O27  1  0.50000000  0.87024100  0.25000000  1
  O  O28  1  0.50000000  0.86519400  0.75000000  1
  O  O29  1  0.50000000  0.13480600  0.25000000  1
  O  O30  1  0.30858850  0.62278350  0.47312100  1
  O  O31  1  0.30858850  0.37721650  0.52687900  1
  O  O32  1  0.30858850  0.62278350  0.02687900  1
  O  O33  1  0.30858850  0.37721650  0.97312100  1
  O  O34  1  0.69141150  0.37721650  0.52687900  1
  O  O35  1  0.69141150  0.62278350  0.47312100  1
  O  O36  1  0.69141150  0.37721650  0.97312100  1
  O  O37  1  0.69141150  0.62278350  0.02687900  1
  O  O38  1  0.00000000  0.06163100  0.75000000  1
  O  O39  1  0.00000000  0.93836900  0.25000000  1
  O  O40  1  0.00000000  0.62975900  0.75000000  1
  O  O41  1  0.00000000  0.37024100  0.25000000  1
  O  O42  1  0.00000000  0.36519400  0.75000000  1
  O  O43  1  0.00000000  0.63480600  0.25000000  1
