# generated using pymatgen
data_PH5NO4
_symmetry_space_group_name_H-M   'P 1'
_cell_length_a   4.50824800
_cell_length_b   8.07528900
_cell_length_c   10.78601173
_cell_angle_alpha   90.00000000
_cell_angle_beta   99.40575191
_cell_angle_gamma   90.00000000
_symmetry_Int_Tables_number   1
_chemical_formula_structural   PH5NO4
_chemical_formula_sum   'P4 H20 N4 O16'
_cell_volume   387.38999256
_cell_formula_units_Z   4
loop_
 _symmetry_equiv_pos_site_id
 _symmetry_equiv_pos_as_xyz
  1  'x, y, z'
loop_
 _atom_site_type_symbol
 _atom_site_label
 _atom_site_symmetry_multiplicity
 _atom_site_fract_x
 _atom_site_fract_y
 _atom_site_fract_z
 _atom_site_occupancy
  P  P0  1  0.99755100  0.33420400  0.32620500  1
  P  P1  1  0.00244900  0.83420400  0.17379500  1
  P  P2  1  0.00244900  0.66579600  0.67379500  1
  P  P3  1  0.99755100  0.16579600  0.82620500  1
  H  H4  1  0.83848200  0.64977900  0.29644500  1
  H  H5  1  0.16151800  0.14977900  0.20355500  1
  H  H6  1  0.16151800  0.35022100  0.70355500  1
  H  H7  1  0.83848200  0.85022100  0.79644500  1
  H  H8  1  0.54630600  0.94420100  0.14311500  1
  H  H9  1  0.45369400  0.44420100  0.35688500  1
  H  H10  1  0.45369400  0.05579900  0.85688500  1
  H  H11  1  0.54630600  0.55579900  0.64311500  1
  H  H12  1  0.59016800  0.43015500  0.12658400  1
  H  H13  1  0.40983200  0.93015500  0.37341600  1
  H  H14  1  0.40983200  0.56984500  0.87341600  1
  H  H15  1  0.59016800  0.06984500  0.62658400  1
  H  H16  1  0.65295300  0.34510300  0.98325200  1
  H  H17  1  0.34704700  0.84510300  0.51674800  1
  H  H18  1  0.34704700  0.65489700  0.01674800  1
  H  H19  1  0.65295300  0.15489700  0.48325200  1
  H  H20  1  0.28398300  0.37165600  0.01373700  1
  H  H21  1  0.71601700  0.87165600  0.48626300  1
  H  H22  1  0.71601700  0.62834400  0.98626300  1
  H  H23  1  0.28398300  0.12834400  0.51373700  1
  N  N24  1  0.50429800  0.41888800  0.02899300  1
  N  N25  1  0.49570200  0.91888800  0.47100700  1
  N  N26  1  0.49570200  0.58111200  0.97100700  1
  N  N27  1  0.50429800  0.08111200  0.52899300  1
  O  O28  1  0.92388300  0.19005900  0.40562000  1
  O  O29  1  0.07611700  0.69005900  0.09438000  1
  O  O30  1  0.07611700  0.80994100  0.59438000  1
  O  O31  1  0.92388300  0.30994100  0.90562000  1
  O  O32  1  0.89892400  0.77098600  0.29979300  1
  O  O33  1  0.10107600  0.27098600  0.20020700  1
  O  O34  1  0.10107600  0.22901400  0.70020700  1
  O  O35  1  0.89892400  0.72901400  0.79979300  1
  O  O36  1  0.72787200  0.93358700  0.09898900  1
  O  O37  1  0.27212800  0.43358700  0.40101100  1
  O  O38  1  0.27212800  0.06641300  0.90101100  1
  O  O39  1  0.72787200  0.56641300  0.59898900  1
  O  O40  1  0.73590700  0.45645100  0.28469900  1
  O  O41  1  0.26409300  0.95645100  0.21530100  1
  O  O42  1  0.26409300  0.54354900  0.71530100  1
  O  O43  1  0.73590700  0.04354900  0.78469900  1
