# generated using pymatgen
data_Ti3V2Ni(PO4)6
_symmetry_space_group_name_H-M   'P 1'
_cell_length_a   8.65683786
_cell_length_b   8.65683786
_cell_length_c   20.76337411
_cell_angle_alpha   90.00000000
_cell_angle_beta   90.00000000
_cell_angle_gamma   120.00000000
_symmetry_Int_Tables_number   1
_chemical_formula_structural   Ti3V2Ni(PO4)6
_chemical_formula_sum   'Ti9 V6 Ni3 P18 O72'
_cell_volume   1347.55694845
_cell_formula_units_Z   3
loop_
 _symmetry_equiv_pos_site_id
 _symmetry_equiv_pos_as_xyz
  1  'x, y, z'
loop_
 _atom_site_type_symbol
 _atom_site_label
 _atom_site_symmetry_multiplicity
 _atom_site_fract_x
 _atom_site_fract_y
 _atom_site_fract_z
 _atom_site_occupancy
  Ti  Ti0  1  0.33333333  0.66666667  0.02137267  1
  Ti  Ti1  1  0.33333333  0.66666667  0.80877267  1
  Ti  Ti2  1  0.33333333  0.66666667  0.31188267  1
  Ti  Ti3  1  0.00000000  0.00000000  0.35470600  1
  Ti  Ti4  1  0.00000000  0.00000000  0.14210600  1
  Ti  Ti5  1  0.00000000  0.00000000  0.64521600  1
  Ti  Ti6  1  0.66666667  0.33333333  0.68803933  1
  Ti  Ti7  1  0.66666667  0.33333333  0.47543933  1
  Ti  Ti8  1  0.66666667  0.33333333  0.97854933  1
  V  V9  1  0.33333333  0.66666667  0.66567367  1
  V  V10  1  0.33333333  0.66666667  0.16520067  1
  V  V11  1  0.00000000  0.00000000  0.99900700  1
  V  V12  1  0.00000000  0.00000000  0.49853400  1
  V  V13  1  0.66666667  0.33333333  0.33234033  1
  V  V14  1  0.66666667  0.33333333  0.83186733  1
  Ni  Ni15  1  0.33333333  0.66666667  0.52510967  1
  Ni  Ni16  1  0.00000000  0.00000000  0.85844300  1
  Ni  Ni17  1  0.66666667  0.33333333  0.19177633  1
  P  P18  1  0.66634967  0.62588633  0.08532433  1
  P  P19  1  0.95953667  0.33365033  0.08532433  1
  P  P20  1  0.37411367  0.04046333  0.08532433  1
  P  P21  1  0.29324233  0.29428567  0.24944867  1
  P  P22  1  0.70571433  0.99895667  0.24944867  1
  P  P23  1  0.00104333  0.70675767  0.24944867  1
  P  P24  1  0.33301633  0.95921967  0.41865767  1
  P  P25  1  0.62620333  0.66698367  0.41865767  1
  P  P26  1  0.04078033  0.37379667  0.41865767  1
  P  P27  1  0.95990900  0.62761900  0.58278200  1
  P  P28  1  0.37238100  0.33229000  0.58278200  1
  P  P29  1  0.66771000  0.04009100  0.58278200  1
  P  P30  1  0.99968300  0.29255300  0.75199100  1
  P  P31  1  0.29287000  0.00031700  0.75199100  1
  P  P32  1  0.70744700  0.70713000  0.75199100  1
  P  P33  1  0.62657567  0.96095233  0.91611533  1
  P  P34  1  0.03904767  0.66562333  0.91611533  1
  P  P35  1  0.33437667  0.37342433  0.91611533  1
  O  O36  1  0.52373100  0.67235300  0.35715900  1
  O  O37  1  0.14862200  0.47626900  0.35715900  1
  O  O38  1  0.32764700  0.85137800  0.35715900  1
  O  O39  1  0.83462533  0.81581067  0.07568267  1
  O  O40  1  0.66840333  0.53634767  0.14639367  1
  O  O41  1  0.50138033  0.65511067  0.08670367  1
  O  O42  1  0.98118533  0.16537467  0.07568267  1
  O  O43  1  0.15373033  0.49861967  0.08670367  1
  O  O44  1  0.52486700  0.85368900  0.85534000  1
  O  O45  1  0.34488933  0.84626967  0.08670367  1
  O  O46  1  0.47566000  0.31214400  0.26004200  1
  O  O47  1  0.14631100  0.67117800  0.85534000  1
  O  O48  1  0.86794433  0.33159667  0.14639367  1
  O  O49  1  0.18418933  0.01881467  0.07568267  1
  O  O50  1  0.31177633  0.48245167  0.24251167  1
  O  O51  1  0.46365233  0.13205567  0.14639367  1
  O  O52  1  0.51754833  0.82932467  0.24251167  1
  O  O53  1  0.68785600  0.16351600  0.26004200  1
  O  O54  1  0.17067533  0.68822367  0.24251167  1
  O  O55  1  0.32882200  0.47513300  0.85534000  1
  O  O56  1  0.83648400  0.52434000  0.26004200  1
  O  O57  1  0.35281633  0.49047267  0.97538767  1
  O  O58  1  0.50952733  0.86234367  0.97538767  1
  O  O59  1  0.13765633  0.64718367  0.97538767  1
  O  O60  1  0.19039767  0.00568633  0.69049233  1
  O  O61  1  0.81528867  0.80960233  0.69049233  1
  O  O62  1  0.99431367  0.18471133  0.69049233  1
  O  O63  1  0.50129200  0.14914400  0.40901600  1
  O  O64  1  0.33507000  0.86968100  0.47972700  1
  O  O65  1  0.16804700  0.98844400  0.42003700  1
  O  O66  1  0.64785200  0.49870800  0.40901600  1
  O  O67  1  0.82039700  0.83195300  0.42003700  1
  O  O68  1  0.19153367  0.18702233  0.18867333  1
  O  O69  1  0.01155600  0.17960300  0.42003700  1
  O  O70  1  0.14232667  0.64547733  0.59337533  1
  O  O71  1  0.81297767  0.00451133  0.18867333  1
  O  O72  1  0.53461100  0.66493000  0.47972700  1
  O  O73  1  0.85085600  0.35214800  0.40901600  1
  O  O74  1  0.97844300  0.81578500  0.57584500  1
  O  O75  1  0.13031900  0.46538900  0.47972700  1
  O  O76  1  0.18421500  0.16265800  0.57584500  1
  O  O77  1  0.35452267  0.49684933  0.59337533  1
  O  O78  1  0.83734200  0.02155700  0.57584500  1
  O  O79  1  0.99548867  0.80846633  0.18867333  1
  O  O80  1  0.50315067  0.85767333  0.59337533  1
  O  O81  1  0.01948300  0.82380600  0.30872100  1
  O  O82  1  0.17619400  0.19567700  0.30872100  1
  O  O83  1  0.80432300  0.98051700  0.30872100  1
  O  O84  1  0.85706433  0.33901967  0.02382567  1
  O  O85  1  0.48195533  0.14293567  0.02382567  1
  O  O86  1  0.66098033  0.51804467  0.02382567  1
  O  O87  1  0.16795867  0.48247733  0.74234933  1
  O  O88  1  0.00173667  0.20301433  0.81306033  1
  O  O89  1  0.83471367  0.32177733  0.75337033  1
  O  O90  1  0.31451867  0.83204133  0.74234933  1
  O  O91  1  0.48706367  0.16528633  0.75337033  1
  O  O92  1  0.85820033  0.52035567  0.52200667  1
  O  O93  1  0.67822267  0.51293633  0.75337033  1
  O  O94  1  0.80899333  0.97881067  0.92670867  1
  O  O95  1  0.47964433  0.33784467  0.52200667  1
  O  O96  1  0.20127767  0.99826333  0.81306033  1
  O  O97  1  0.51752267  0.68548133  0.74234933  1
  O  O98  1  0.64510967  0.14911833  0.90917833  1
  O  O99  1  0.79698567  0.79872233  0.81306033  1
  O  O100  1  0.85088167  0.49599133  0.90917833  1
  O  O101  1  0.02118933  0.83018267  0.92670867  1
  O  O102  1  0.50400867  0.35489033  0.90917833  1
  O  O103  1  0.66215533  0.14179967  0.52200667  1
  O  O104  1  0.16981733  0.19100667  0.92670867  1
  O  O105  1  0.68614967  0.15713933  0.64205433  1
  O  O106  1  0.84286067  0.52901033  0.64205433  1
  O  O107  1  0.47098967  0.31385033  0.64205433  1
