# generated using pymatgen
data_KAl11O17
_symmetry_space_group_name_H-M   'P 1'
_cell_length_a   5.65136824
_cell_length_b   5.65136824
_cell_length_c   34.40109044
_cell_angle_alpha   90.00000000
_cell_angle_beta   90.00000000
_cell_angle_gamma   120.00000000
_symmetry_Int_Tables_number   1
_chemical_formula_structural   KAl11O17
_chemical_formula_sum   'K3 Al33 O51'
_cell_volume   951.50276230
_cell_formula_units_Z   3
loop_
 _symmetry_equiv_pos_site_id
 _symmetry_equiv_pos_as_xyz
  1  'x, y, z'
loop_
 _atom_site_type_symbol
 _atom_site_label
 _atom_site_symmetry_multiplicity
 _atom_site_fract_x
 _atom_site_fract_y
 _atom_site_fract_z
 _atom_site_occupancy
  K  K0  1  0.66666667  0.33333333  0.16268933  1
  K  K1  1  0.33333333  0.66666667  0.49602267  1
  K  K2  1  0.00000000  0.00000000  0.82935600  1
  Al  Al3  1  0.32964200  0.16482100  0.26229200  1
  Al  Al4  1  0.66666667  0.33333333  0.33315033  1
  Al  Al5  1  0.83517900  0.67035800  0.26229200  1
  Al  Al6  1  0.83517900  0.16482100  0.26229200  1
  Al  Al7  1  0.33333333  0.66666667  0.11694067  1
  Al  Al8  1  0.33333333  0.66666667  0.01656167  1
  Al  Al9  1  0.33333333  0.66666667  0.21664067  1
  Al  Al10  1  0.33333333  0.66666667  0.31645067  1
  Al  Al11  1  0.83290733  0.16709267  0.07070867  1
  Al  Al12  1  0.83290733  0.66581467  0.07070867  1
  Al  Al13  1  0.33418533  0.16709267  0.07070867  1
  Al  Al14  1  0.99630867  0.49815433  0.59562533  1
  Al  Al15  1  0.33333333  0.66666667  0.66648367  1
  Al  Al16  1  0.50184567  0.00369133  0.59562533  1
  Al  Al17  1  0.50184567  0.49815433  0.59562533  1
  Al  Al18  1  0.00000000  0.00000000  0.45027400  1
  Al  Al19  1  0.00000000  0.00000000  0.34989500  1
  Al  Al20  1  0.00000000  0.00000000  0.54997400  1
  Al  Al21  1  0.00000000  0.00000000  0.64978400  1
  Al  Al22  1  0.49957400  0.50042600  0.40404200  1
  Al  Al23  1  0.49957400  0.99914800  0.40404200  1
  Al  Al24  1  0.00085200  0.50042600  0.40404200  1
  Al  Al25  1  0.66297533  0.83148767  0.92895867  1
  Al  Al26  1  0.00000000  0.00000000  0.99981700  1
  Al  Al27  1  0.16851233  0.33702467  0.92895867  1
  Al  Al28  1  0.16851233  0.83148767  0.92895867  1
  Al  Al29  1  0.66666667  0.33333333  0.78360733  1
  Al  Al30  1  0.66666667  0.33333333  0.68322833  1
  Al  Al31  1  0.66666667  0.33333333  0.88330733  1
  Al  Al32  1  0.66666667  0.33333333  0.98311733  1
  Al  Al33  1  0.16624067  0.83375933  0.73737533  1
  Al  Al34  1  0.16624067  0.33248133  0.73737533  1
  Al  Al35  1  0.66751867  0.83375933  0.73737533  1
  O  O36  1  0.00000000  0.00000000  0.29668400  1
  O  O37  1  0.00000000  0.00000000  0.09427800  1
  O  O38  1  0.51003867  0.48996133  0.30025933  1
  O  O39  1  0.68615133  0.84307567  0.03320367  1
  O  O40  1  0.50249767  0.49750233  0.09668633  1
  O  O41  1  0.66983200  0.83491600  0.23691500  1
  O  O42  1  0.50249767  0.00499533  0.09668633  1
  O  O43  1  0.15692433  0.31384867  0.03320367  1
  O  O44  1  0.51003867  0.02007733  0.30025933  1
  O  O45  1  0.33333333  0.66666667  0.16659467  1
  O  O46  1  0.16508400  0.33016800  0.23691500  1
  O  O47  1  0.16508400  0.83491600  0.23691500  1
  O  O48  1  0.99500467  0.49750233  0.09668633  1
  O  O49  1  0.97992267  0.48996133  0.30025933  1
  O  O50  1  0.15692433  0.84307567  0.03320367  1
  O  O51  1  0.66666667  0.33333333  0.03670633  1
  O  O52  1  0.66666667  0.33333333  0.23909633  1
  O  O53  1  0.66666667  0.33333333  0.63001733  1
  O  O54  1  0.66666667  0.33333333  0.42761133  1
  O  O55  1  0.17670533  0.82329467  0.63359267  1
  O  O56  1  0.35281800  0.17640900  0.36653700  1
  O  O57  1  0.16916433  0.83083567  0.43001967  1
  O  O58  1  0.33649867  0.16824933  0.57024833  1
  O  O59  1  0.16916433  0.33832867  0.43001967  1
  O  O60  1  0.82359100  0.64718200  0.36653700  1
  O  O61  1  0.17670533  0.35341067  0.63359267  1
  O  O62  1  0.00000000  0.00000000  0.49992800  1
  O  O63  1  0.83175067  0.66350133  0.57024833  1
  O  O64  1  0.83175067  0.16824933  0.57024833  1
  O  O65  1  0.66167133  0.83083567  0.43001967  1
  O  O66  1  0.64658933  0.82329467  0.63359267  1
  O  O67  1  0.82359100  0.17640900  0.36653700  1
  O  O68  1  0.33333333  0.66666667  0.37003967  1
  O  O69  1  0.33333333  0.66666667  0.57242967  1
  O  O70  1  0.33333333  0.66666667  0.96335067  1
  O  O71  1  0.33333333  0.66666667  0.76094467  1
  O  O72  1  0.84337200  0.15662800  0.96692600  1
  O  O73  1  0.01948467  0.50974233  0.69987033  1
  O  O74  1  0.83583100  0.16416900  0.76335300  1
  O  O75  1  0.00316533  0.50158267  0.90358167  1
  O  O76  1  0.83583100  0.67166200  0.76335300  1
  O  O77  1  0.49025767  0.98051533  0.69987033  1
  O  O78  1  0.84337200  0.68674400  0.96692600  1
  O  O79  1  0.66666667  0.33333333  0.83326133  1
  O  O80  1  0.49841733  0.99683467  0.90358167  1
  O  O81  1  0.49841733  0.50158267  0.90358167  1
  O  O82  1  0.32833800  0.16416900  0.76335300  1
  O  O83  1  0.31325600  0.15662800  0.96692600  1
  O  O84  1  0.49025767  0.50974233  0.69987033  1
  O  O85  1  0.00000000  0.00000000  0.70337300  1
  O  O86  1  0.00000000  0.00000000  0.90576300  1
