# generated using pymatgen
data_SrCrO3
_symmetry_space_group_name_H-M   'P 1'
_cell_length_a   5.55632369
_cell_length_b   9.60421165
_cell_length_c   32.25815788
_cell_angle_alpha   90.00000000
_cell_angle_beta   90.00000000
_cell_angle_gamma   90.00000000
_symmetry_Int_Tables_number   1
_chemical_formula_structural   SrCrO3
_chemical_formula_sum   'Sr28 Cr28 O84'
_cell_volume   1721.42784456
_cell_formula_units_Z   28
loop_
 _symmetry_equiv_pos_site_id
 _symmetry_equiv_pos_as_xyz
  1  'x, y, z'
loop_
 _atom_site_type_symbol
 _atom_site_label
 _atom_site_symmetry_multiplicity
 _atom_site_fract_x
 _atom_site_fract_y
 _atom_site_fract_z
 _atom_site_occupancy
  Sr  Sr0  1  0.49978100  0.16686200  0.03982550  1
  Sr  Sr1  1  0.49994300  0.16655700  0.17674450  1
  Sr  Sr2  1  0.49790950  0.16546850  0.75000000  1
  Sr  Sr3  1  0.00181200  0.99907800  0.10565950  1
  Sr  Sr4  1  0.00181200  0.99907800  0.39434050  1
  Sr  Sr5  1  0.00181200  0.00092200  0.60565950  1
  Sr  Sr6  1  0.49994300  0.16655700  0.32325550  1
  Sr  Sr7  1  0.49978100  0.16686200  0.46017450  1
  Sr  Sr8  1  0.00181200  0.00092200  0.89434050  1
  Sr  Sr9  1  0.49790950  0.83453150  0.25000000  1
  Sr  Sr10  1  0.49978100  0.83313800  0.53982550  1
  Sr  Sr11  1  0.49994300  0.83344300  0.67674450  1
  Sr  Sr12  1  0.49994300  0.83344300  0.82325550  1
  Sr  Sr13  1  0.49978100  0.83313800  0.96017450  1
  Sr  Sr14  1  0.99978100  0.66686200  0.03982550  1
  Sr  Sr15  1  0.99994300  0.66655700  0.17674450  1
  Sr  Sr16  1  0.99790950  0.66546850  0.75000000  1
  Sr  Sr17  1  0.50181200  0.49907800  0.10565950  1
  Sr  Sr18  1  0.50181200  0.49907800  0.39434050  1
  Sr  Sr19  1  0.50181200  0.50092200  0.60565950  1
  Sr  Sr20  1  0.99994300  0.66655700  0.32325550  1
  Sr  Sr21  1  0.99978100  0.66686200  0.46017450  1
  Sr  Sr22  1  0.50181200  0.50092200  0.89434050  1
  Sr  Sr23  1  0.99790950  0.33453150  0.25000000  1
  Sr  Sr24  1  0.99978100  0.33313800  0.53982550  1
  Sr  Sr25  1  0.99994300  0.33344300  0.67674450  1
  Sr  Sr26  1  0.99994300  0.33344300  0.82325550  1
  Sr  Sr27  1  0.99978100  0.33313800  0.96017450  1
  Cr  Cr28  1  0.50734600  0.16945900  0.56586250  1
  Cr  Cr29  1  0.50740600  0.16853900  0.64537150  1
  Cr  Cr30  1  0.00436850  0.00000000  0.00000000  1
  Cr  Cr31  1  0.00253350  0.99920150  0.21070550  1
  Cr  Cr32  1  0.00253350  0.99920150  0.28929450  1
  Cr  Cr33  1  0.00436850  0.00000000  0.50000000  1
  Cr  Cr34  1  0.00253350  0.00079850  0.71070550  1
  Cr  Cr35  1  0.00253350  0.00079850  0.78929450  1
  Cr  Cr36  1  0.50740600  0.16853900  0.85462850  1
  Cr  Cr37  1  0.50734600  0.16945900  0.93413750  1
  Cr  Cr38  1  0.50734600  0.83054100  0.06586250  1
  Cr  Cr39  1  0.50740600  0.83146100  0.14537150  1
  Cr  Cr40  1  0.50740600  0.83146100  0.35462850  1
  Cr  Cr41  1  0.50734600  0.83054100  0.43413750  1
  Cr  Cr42  1  0.00734600  0.66945900  0.56586250  1
  Cr  Cr43  1  0.00740600  0.66853900  0.64537150  1
  Cr  Cr44  1  0.50436850  0.50000000  0.00000000  1
  Cr  Cr45  1  0.50253350  0.49920150  0.21070550  1
  Cr  Cr46  1  0.50253350  0.49920150  0.28929450  1
  Cr  Cr47  1  0.50436850  0.50000000  0.50000000  1
  Cr  Cr48  1  0.50253350  0.50079850  0.71070550  1
  Cr  Cr49  1  0.50253350  0.50079850  0.78929450  1
  Cr  Cr50  1  0.00740600  0.66853900  0.85462850  1
  Cr  Cr51  1  0.00734600  0.66945900  0.93413750  1
  Cr  Cr52  1  0.00734600  0.33054100  0.06586250  1
  Cr  Cr53  1  0.00740600  0.33146100  0.14537150  1
  Cr  Cr54  1  0.00740600  0.33146100  0.35462850  1
  Cr  Cr55  1  0.00734600  0.33054100  0.43413750  1
  O  O56  1  0.77079500  0.07657800  0.25000000  1
  O  O57  1  0.74535850  0.08190650  0.67733050  1
  O  O58  1  0.74535850  0.08190650  0.82266950  1
  O  O59  1  0.74721200  0.08020200  0.53441850  1
  O  O60  1  0.74721200  0.08020200  0.96558150  1
  O  O61  1  0.49883300  0.01520600  0.60619050  1
  O  O62  1  0.49883300  0.01520600  0.89380950  1
  O  O63  1  0.24354800  0.08321900  0.82151750  1
  O  O64  1  0.22974900  0.07846600  0.25000000  1
  O  O65  1  0.23745250  0.07959650  0.53434450  1
  O  O66  1  0.73869500  0.24637100  0.60569250  1
  O  O67  1  0.73869500  0.24637100  0.89430750  1
  O  O68  1  0.23745250  0.07959650  0.96565550  1
  O  O69  1  0.24354800  0.08321900  0.67848250  1
  O  O70  1  0.27303700  0.24221300  0.60590150  1
  O  O71  1  0.27303700  0.24221300  0.89409850  1
  O  O72  1  0.49814000  0.65316500  0.75000000  1
  O  O73  1  0.49380450  0.33060750  0.53445650  1
  O  O74  1  0.49380450  0.33060750  0.96554350  1
  O  O75  1  0.49499700  0.66795600  0.17757150  1
  O  O76  1  0.49499700  0.66795600  0.32242850  1
  O  O77  1  0.49499700  0.33204400  0.67757150  1
  O  O78  1  0.49499700  0.33204400  0.82242850  1
  O  O79  1  0.49380450  0.66939250  0.03445650  1
  O  O80  1  0.49380450  0.66939250  0.46554350  1
  O  O81  1  0.49814000  0.34683500  0.25000000  1
  O  O82  1  0.73869500  0.75362900  0.10569250  1
  O  O83  1  0.73869500  0.75362900  0.39430750  1
  O  O84  1  0.77079500  0.92342200  0.75000000  1
  O  O85  1  0.74721200  0.91979800  0.03441850  1
  O  O86  1  0.74721200  0.91979800  0.46558150  1
  O  O87  1  0.27303700  0.75778700  0.10590150  1
  O  O88  1  0.27303700  0.75778700  0.39409850  1
  O  O89  1  0.74535850  0.91809350  0.17733050  1
  O  O90  1  0.74535850  0.91809350  0.32266950  1
  O  O91  1  0.49883300  0.98479400  0.10619050  1
  O  O92  1  0.49883300  0.98479400  0.39380950  1
  O  O93  1  0.23745250  0.92040350  0.03434450  1
  O  O94  1  0.23745250  0.92040350  0.46565550  1
  O  O95  1  0.24354800  0.91678100  0.17848250  1
  O  O96  1  0.24354800  0.91678100  0.32151750  1
  O  O97  1  0.22974900  0.92153400  0.75000000  1
  O  O98  1  0.27079500  0.57657800  0.25000000  1
  O  O99  1  0.24535850  0.58190650  0.67733050  1
  O  O100  1  0.24535850  0.58190650  0.82266950  1
  O  O101  1  0.24721200  0.58020200  0.53441850  1
  O  O102  1  0.24721200  0.58020200  0.96558150  1
  O  O103  1  0.99883300  0.51520600  0.60619050  1
  O  O104  1  0.99883300  0.51520600  0.89380950  1
  O  O105  1  0.74354800  0.58321900  0.82151750  1
  O  O106  1  0.72974900  0.57846600  0.25000000  1
  O  O107  1  0.73745250  0.57959650  0.53434450  1
  O  O108  1  0.23869500  0.74637100  0.60569250  1
  O  O109  1  0.23869500  0.74637100  0.89430750  1
  O  O110  1  0.73745250  0.57959650  0.96565550  1
  O  O111  1  0.74354800  0.58321900  0.67848250  1
  O  O112  1  0.77303700  0.74221300  0.60590150  1
  O  O113  1  0.77303700  0.74221300  0.89409850  1
  O  O114  1  0.99814000  0.15316500  0.75000000  1
  O  O115  1  0.99380450  0.83060750  0.53445650  1
  O  O116  1  0.99380450  0.83060750  0.96554350  1
  O  O117  1  0.99499700  0.16795600  0.17757150  1
  O  O118  1  0.99499700  0.16795600  0.32242850  1
  O  O119  1  0.99499700  0.83204400  0.67757150  1
  O  O120  1  0.99499700  0.83204400  0.82242850  1
  O  O121  1  0.99380450  0.16939250  0.03445650  1
  O  O122  1  0.99380450  0.16939250  0.46554350  1
  O  O123  1  0.99814000  0.84683500  0.25000000  1
  O  O124  1  0.23869500  0.25362900  0.10569250  1
  O  O125  1  0.23869500  0.25362900  0.39430750  1
  O  O126  1  0.27079500  0.42342200  0.75000000  1
  O  O127  1  0.24721200  0.41979800  0.03441850  1
  O  O128  1  0.24721200  0.41979800  0.46558150  1
  O  O129  1  0.77303700  0.25778700  0.10590150  1
  O  O130  1  0.77303700  0.25778700  0.39409850  1
  O  O131  1  0.24535850  0.41809350  0.17733050  1
  O  O132  1  0.24535850  0.41809350  0.32266950  1
  O  O133  1  0.99883300  0.48479400  0.10619050  1
  O  O134  1  0.99883300  0.48479400  0.39380950  1
  O  O135  1  0.73745250  0.42040350  0.03434450  1
  O  O136  1  0.73745250  0.42040350  0.46565550  1
  O  O137  1  0.74354800  0.41678100  0.17848250  1
  O  O138  1  0.74354800  0.41678100  0.32151750  1
  O  O139  1  0.72974900  0.42153400  0.75000000  1
