# generated using pymatgen
data_CaHgH16(BrO2)4
_symmetry_space_group_name_H-M   'P 1'
_cell_length_a   13.50824800
_cell_length_b   16.25615200
_cell_length_c   15.09042000
_cell_angle_alpha   90.00000000
_cell_angle_beta   90.00000000
_cell_angle_gamma   90.00000000
_symmetry_Int_Tables_number   1
_chemical_formula_structural   CaHgH16(BrO2)4
_chemical_formula_sum   'Ca8 Hg8 H128 Br32 O64'
_cell_volume   3313.73751177
_cell_formula_units_Z   8
loop_
 _symmetry_equiv_pos_site_id
 _symmetry_equiv_pos_as_xyz
  1  'x, y, z'
loop_
 _atom_site_type_symbol
 _atom_site_label
 _atom_site_symmetry_multiplicity
 _atom_site_fract_x
 _atom_site_fract_y
 _atom_site_fract_z
 _atom_site_occupancy
  Ca  Ca0  1  0.50000000  0.25099100  0.50000000  1
  Ca  Ca1  1  0.50000000  0.24900900  0.00000000  1
  Ca  Ca2  1  0.50000000  0.75099100  0.00000000  1
  Ca  Ca3  1  0.50000000  0.74900900  0.50000000  1
  Ca  Ca4  1  0.00000000  0.75099100  0.50000000  1
  Ca  Ca5  1  0.00000000  0.74900900  0.00000000  1
  Ca  Ca6  1  0.00000000  0.25099100  0.00000000  1
  Ca  Ca7  1  0.00000000  0.24900900  0.50000000  1
  Hg  Hg8  1  0.27700000  0.00000000  0.28078200  1
  Hg  Hg9  1  0.72300000  0.00000000  0.71921800  1
  Hg  Hg10  1  0.22300000  0.00000000  0.78078200  1
  Hg  Hg11  1  0.77700000  0.00000000  0.21921800  1
  Hg  Hg12  1  0.77700000  0.50000000  0.28078200  1
  Hg  Hg13  1  0.22300000  0.50000000  0.71921800  1
  Hg  Hg14  1  0.72300000  0.50000000  0.78078200  1
  Hg  Hg15  1  0.27700000  0.50000000  0.21921800  1
  H  H16  1  0.51127350  0.42025850  0.39189000  1
  H  H17  1  0.48872650  0.42025850  0.60811000  1
  H  H18  1  0.40815450  0.38553450  0.36492800  1
  H  H19  1  0.59184550  0.38553450  0.63507200  1
  H  H20  1  0.55162000  0.32544400  0.17938800  1
  H  H21  1  0.44838000  0.32544400  0.82061200  1
  H  H22  1  0.43856650  0.31579350  0.18678500  1
  H  H23  1  0.56143350  0.31579350  0.81321500  1
  H  H24  1  0.20766000  0.17984300  0.48918100  1
  H  H25  1  0.29234000  0.17984300  0.98918100  1
  H  H26  1  0.79234000  0.17984300  0.51081900  1
  H  H27  1  0.70766000  0.17984300  0.01081900  1
  H  H28  1  0.32721000  0.17792800  0.89255200  1
  H  H29  1  0.32721000  0.67792800  0.60744800  1
  H  H30  1  0.67279000  0.67792800  0.39255200  1
  H  H31  1  0.67279000  0.17792800  0.10744800  1
  H  H32  1  0.56143350  0.18420650  0.68678500  1
  H  H33  1  0.43856650  0.18420650  0.31321500  1
  H  H34  1  0.55162000  0.17455600  0.32061200  1
  H  H35  1  0.44838000  0.17455600  0.67938800  1
  H  H36  1  0.87526450  0.07745950  0.04054300  1
  H  H37  1  0.64893450  0.10940950  0.44539000  1
  H  H38  1  0.62473550  0.07745950  0.54054300  1
  H  H39  1  0.14893450  0.10940950  0.05461000  1
  H  H40  1  0.85106550  0.10940950  0.94539000  1
  H  H41  1  0.37526450  0.07745950  0.45945700  1
  H  H42  1  0.35106550  0.10940950  0.55461000  1
  H  H43  1  0.12473550  0.07745950  0.95945700  1
  H  H44  1  0.40815450  0.11446550  0.13507200  1
  H  H45  1  0.59184550  0.11446550  0.86492800  1
  H  H46  1  0.51127350  0.07974150  0.10811000  1
  H  H47  1  0.48872650  0.07974150  0.89189000  1
  H  H48  1  0.51127350  0.92025850  0.10811000  1
  H  H49  1  0.48872650  0.92025850  0.89189000  1
  H  H50  1  0.40815450  0.88553450  0.13507200  1
  H  H51  1  0.59184550  0.88553450  0.86492800  1
  H  H52  1  0.64893450  0.89059050  0.44539000  1
  H  H53  1  0.14893450  0.89059050  0.05461000  1
  H  H54  1  0.62473550  0.92254050  0.54054300  1
  H  H55  1  0.87526450  0.92254050  0.04054300  1
  H  H56  1  0.37526450  0.92254050  0.45945700  1
  H  H57  1  0.35106550  0.89059050  0.55461000  1
  H  H58  1  0.12473550  0.92254050  0.95945700  1
  H  H59  1  0.85106550  0.89059050  0.94539000  1
  H  H60  1  0.44838000  0.82544400  0.67938800  1
  H  H61  1  0.55162000  0.82544400  0.32061200  1
  H  H62  1  0.56143350  0.81579350  0.68678500  1
  H  H63  1  0.43856650  0.81579350  0.31321500  1
  H  H64  1  0.67279000  0.32207200  0.39255200  1
  H  H65  1  0.67279000  0.82207200  0.10744800  1
  H  H66  1  0.32721000  0.32207200  0.60744800  1
  H  H67  1  0.32721000  0.82207200  0.89255200  1
  H  H68  1  0.20766000  0.82015700  0.48918100  1
  H  H69  1  0.29234000  0.82015700  0.98918100  1
  H  H70  1  0.70766000  0.82015700  0.01081900  1
  H  H71  1  0.79234000  0.82015700  0.51081900  1
  H  H72  1  0.43856650  0.68420650  0.18678500  1
  H  H73  1  0.56143350  0.68420650  0.81321500  1
  H  H74  1  0.55162000  0.67455600  0.17938800  1
  H  H75  1  0.44838000  0.67455600  0.82061200  1
  H  H76  1  0.40815450  0.61446550  0.36492800  1
  H  H77  1  0.59184550  0.61446550  0.63507200  1
  H  H78  1  0.51127350  0.57974150  0.39189000  1
  H  H79  1  0.48872650  0.57974150  0.60811000  1
  H  H80  1  0.01127350  0.92025850  0.39189000  1
  H  H81  1  0.98872650  0.92025850  0.60811000  1
  H  H82  1  0.90815450  0.88553450  0.36492800  1
  H  H83  1  0.09184550  0.88553450  0.63507200  1
  H  H84  1  0.05162000  0.82544400  0.17938800  1
  H  H85  1  0.94838000  0.82544400  0.82061200  1
  H  H86  1  0.93856650  0.81579350  0.18678500  1
  H  H87  1  0.06143350  0.81579350  0.81321500  1
  H  H88  1  0.70766000  0.67984300  0.48918100  1
  H  H89  1  0.79234000  0.67984300  0.98918100  1
  H  H90  1  0.29234000  0.67984300  0.51081900  1
  H  H91  1  0.20766000  0.67984300  0.01081900  1
  H  H92  1  0.82721000  0.67792800  0.89255200  1
  H  H93  1  0.82721000  0.17792800  0.60744800  1
  H  H94  1  0.17279000  0.17792800  0.39255200  1
  H  H95  1  0.17279000  0.67792800  0.10744800  1
  H  H96  1  0.06143350  0.68420650  0.68678500  1
  H  H97  1  0.93856650  0.68420650  0.31321500  1
  H  H98  1  0.05162000  0.67455600  0.32061200  1
  H  H99  1  0.94838000  0.67455600  0.67938800  1
  H  H100  1  0.37526450  0.57745950  0.04054300  1
  H  H101  1  0.14893450  0.60940950  0.44539000  1
  H  H102  1  0.12473550  0.57745950  0.54054300  1
  H  H103  1  0.64893450  0.60940950  0.05461000  1
  H  H104  1  0.35106550  0.60940950  0.94539000  1
  H  H105  1  0.87526450  0.57745950  0.45945700  1
  H  H106  1  0.85106550  0.60940950  0.55461000  1
  H  H107  1  0.62473550  0.57745950  0.95945700  1
  H  H108  1  0.90815450  0.61446550  0.13507200  1
  H  H109  1  0.09184550  0.61446550  0.86492800  1
  H  H110  1  0.01127350  0.57974150  0.10811000  1
  H  H111  1  0.98872650  0.57974150  0.89189000  1
  H  H112  1  0.01127350  0.42025850  0.10811000  1
  H  H113  1  0.98872650  0.42025850  0.89189000  1
  H  H114  1  0.90815450  0.38553450  0.13507200  1
  H  H115  1  0.09184550  0.38553450  0.86492800  1
  H  H116  1  0.14893450  0.39059050  0.44539000  1
  H  H117  1  0.64893450  0.39059050  0.05461000  1
  H  H118  1  0.12473550  0.42254050  0.54054300  1
  H  H119  1  0.37526450  0.42254050  0.04054300  1
  H  H120  1  0.87526450  0.42254050  0.45945700  1
  H  H121  1  0.85106550  0.39059050  0.55461000  1
  H  H122  1  0.62473550  0.42254050  0.95945700  1
  H  H123  1  0.35106550  0.39059050  0.94539000  1
  H  H124  1  0.94838000  0.32544400  0.67938800  1
  H  H125  1  0.05162000  0.32544400  0.32061200  1
  H  H126  1  0.06143350  0.31579350  0.68678500  1
  H  H127  1  0.93856650  0.31579350  0.31321500  1
  H  H128  1  0.17279000  0.82207200  0.39255200  1
  H  H129  1  0.17279000  0.32207200  0.10744800  1
  H  H130  1  0.82721000  0.82207200  0.60744800  1
  H  H131  1  0.82721000  0.32207200  0.89255200  1
  H  H132  1  0.70766000  0.32015700  0.48918100  1
  H  H133  1  0.79234000  0.32015700  0.98918100  1
  H  H134  1  0.20766000  0.32015700  0.01081900  1
  H  H135  1  0.29234000  0.32015700  0.51081900  1
  H  H136  1  0.93856650  0.18420650  0.18678500  1
  H  H137  1  0.06143350  0.18420650  0.81321500  1
  H  H138  1  0.05162000  0.17455600  0.17938800  1
  H  H139  1  0.94838000  0.17455600  0.82061200  1
  H  H140  1  0.90815450  0.11446550  0.36492800  1
  H  H141  1  0.09184550  0.11446550  0.63507200  1
  H  H142  1  0.01127350  0.07974150  0.39189000  1
  H  H143  1  0.98872650  0.07974150  0.60811000  1
  Br  Br144  1  0.73695000  0.14131500  0.30241000  1
  Br  Br145  1  0.23695000  0.14131500  0.19759000  1
  Br  Br146  1  0.76305000  0.14131500  0.80241000  1
  Br  Br147  1  0.26305000  0.14131500  0.69759000  1
  Br  Br148  1  0.68746100  0.00000000  0.06384900  1
  Br  Br149  1  0.47488500  0.00000000  0.28997000  1
  Br  Br150  1  0.02511500  0.00000000  0.78997000  1
  Br  Br151  1  0.18746100  0.00000000  0.43615100  1
  Br  Br152  1  0.52511500  0.00000000  0.71003000  1
  Br  Br153  1  0.97488500  0.00000000  0.21003000  1
  Br  Br154  1  0.81253900  0.00000000  0.56384900  1
  Br  Br155  1  0.31253900  0.00000000  0.93615100  1
  Br  Br156  1  0.23695000  0.85868500  0.19759000  1
  Br  Br157  1  0.26305000  0.85868500  0.69759000  1
  Br  Br158  1  0.73695000  0.85868500  0.30241000  1
  Br  Br159  1  0.76305000  0.85868500  0.80241000  1
  Br  Br160  1  0.23695000  0.64131500  0.30241000  1
  Br  Br161  1  0.73695000  0.64131500  0.19759000  1
  Br  Br162  1  0.26305000  0.64131500  0.80241000  1
  Br  Br163  1  0.76305000  0.64131500  0.69759000  1
  Br  Br164  1  0.18746100  0.50000000  0.06384900  1
  Br  Br165  1  0.97488500  0.50000000  0.28997000  1
  Br  Br166  1  0.52511500  0.50000000  0.78997000  1
  Br  Br167  1  0.68746100  0.50000000  0.43615100  1
  Br  Br168  1  0.02511500  0.50000000  0.71003000  1
  Br  Br169  1  0.47488500  0.50000000  0.21003000  1
  Br  Br170  1  0.31253900  0.50000000  0.56384900  1
  Br  Br171  1  0.81253900  0.50000000  0.93615100  1
  Br  Br172  1  0.73695000  0.35868500  0.19759000  1
  Br  Br173  1  0.76305000  0.35868500  0.69759000  1
  Br  Br174  1  0.23695000  0.35868500  0.30241000  1
  Br  Br175  1  0.26305000  0.35868500  0.80241000  1
  O  O176  1  0.38544800  0.37572100  0.00035100  1
  O  O177  1  0.61455200  0.37572100  0.99964900  1
  O  O178  1  0.45999950  0.38092850  0.40987300  1
  O  O179  1  0.54000050  0.38092850  0.59012700  1
  O  O180  1  0.49606650  0.29336550  0.15593400  1
  O  O181  1  0.50393350  0.29336550  0.84406600  1
  O  O182  1  0.66552250  0.29116950  0.44736200  1
  O  O183  1  0.33447750  0.29116950  0.55263800  1
  O  O184  1  0.66552250  0.20883050  0.05263800  1
  O  O185  1  0.33447750  0.20883050  0.94736200  1
  O  O186  1  0.50393350  0.20663450  0.65593400  1
  O  O187  1  0.49606650  0.20663450  0.34406600  1
  O  O188  1  0.54000050  0.11907150  0.90987300  1
  O  O189  1  0.45999950  0.11907150  0.09012700  1
  O  O190  1  0.61455200  0.12427900  0.50035100  1
  O  O191  1  0.38544800  0.12427900  0.49964900  1
  O  O192  1  0.38544800  0.87572100  0.49964900  1
  O  O193  1  0.61455200  0.87572100  0.50035100  1
  O  O194  1  0.45999950  0.88092850  0.09012700  1
  O  O195  1  0.54000050  0.88092850  0.90987300  1
  O  O196  1  0.50393350  0.79336550  0.65593400  1
  O  O197  1  0.49606650  0.79336550  0.34406600  1
  O  O198  1  0.66552250  0.79116950  0.05263800  1
  O  O199  1  0.33447750  0.79116950  0.94736200  1
  O  O200  1  0.33447750  0.70883050  0.55263800  1
  O  O201  1  0.66552250  0.70883050  0.44736200  1
  O  O202  1  0.49606650  0.70663450  0.15593400  1
  O  O203  1  0.50393350  0.70663450  0.84406600  1
  O  O204  1  0.45999950  0.61907150  0.40987300  1
  O  O205  1  0.54000050  0.61907150  0.59012700  1
  O  O206  1  0.61455200  0.62427900  0.99964900  1
  O  O207  1  0.38544800  0.62427900  0.00035100  1
  O  O208  1  0.88544800  0.87572100  0.00035100  1
  O  O209  1  0.11455200  0.87572100  0.99964900  1
  O  O210  1  0.95999950  0.88092850  0.40987300  1
  O  O211  1  0.04000050  0.88092850  0.59012700  1
  O  O212  1  0.99606650  0.79336550  0.15593400  1
  O  O213  1  0.00393350  0.79336550  0.84406600  1
  O  O214  1  0.16552250  0.79116950  0.44736200  1
  O  O215  1  0.83447750  0.79116950  0.55263800  1
  O  O216  1  0.16552250  0.70883050  0.05263800  1
  O  O217  1  0.83447750  0.70883050  0.94736200  1
  O  O218  1  0.00393350  0.70663450  0.65593400  1
  O  O219  1  0.99606650  0.70663450  0.34406600  1
  O  O220  1  0.04000050  0.61907150  0.90987300  1
  O  O221  1  0.95999950  0.61907150  0.09012700  1
  O  O222  1  0.11455200  0.62427900  0.50035100  1
  O  O223  1  0.88544800  0.62427900  0.49964900  1
  O  O224  1  0.88544800  0.37572100  0.49964900  1
  O  O225  1  0.11455200  0.37572100  0.50035100  1
  O  O226  1  0.95999950  0.38092850  0.09012700  1
  O  O227  1  0.04000050  0.38092850  0.90987300  1
  O  O228  1  0.00393350  0.29336550  0.65593400  1
  O  O229  1  0.99606650  0.29336550  0.34406600  1
  O  O230  1  0.16552250  0.29116950  0.05263800  1
  O  O231  1  0.83447750  0.29116950  0.94736200  1
  O  O232  1  0.83447750  0.20883050  0.55263800  1
  O  O233  1  0.16552250  0.20883050  0.44736200  1
  O  O234  1  0.99606650  0.20663450  0.15593400  1
  O  O235  1  0.00393350  0.20663450  0.84406600  1
  O  O236  1  0.95999950  0.11907150  0.40987300  1
  O  O237  1  0.04000050  0.11907150  0.59012700  1
  O  O238  1  0.11455200  0.12427900  0.99964900  1
  O  O239  1  0.88544800  0.12427900  0.00035100  1
