# generated using pymatgen
data_Al2O3
_symmetry_space_group_name_H-M   'P 1'
_cell_length_a   11.92574800
_cell_length_b   2.94095000
_cell_length_c   5.67051545
_cell_angle_alpha   90.00000000
_cell_angle_beta   104.02949447
_cell_angle_gamma   90.00000000
_symmetry_Int_Tables_number   1
_chemical_formula_structural   Al2O3
_chemical_formula_sum   'Al8 O12'
_cell_volume   192.94970724
_cell_formula_units_Z   4
loop_
 _symmetry_equiv_pos_site_id
 _symmetry_equiv_pos_as_xyz
  1  'x, y, z'
loop_
 _atom_site_type_symbol
 _atom_site_label
 _atom_site_symmetry_multiplicity
 _atom_site_fract_x
 _atom_site_fract_y
 _atom_site_fract_z
 _atom_site_occupancy
  Al  Al0  1  0.40987900  0.50000000  0.20438900  1
  Al  Al1  1  0.09012100  0.00000000  0.79561100  1
  Al  Al2  1  0.15785000  0.50000000  0.31677700  1
  Al  Al3  1  0.34215000  0.00000000  0.68322300  1
  Al  Al4  1  0.90987900  0.00000000  0.20438900  1
  Al  Al5  1  0.59012100  0.50000000  0.79561100  1
  Al  Al6  1  0.65785000  0.00000000  0.31677700  1
  Al  Al7  1  0.84215000  0.50000000  0.68322300  1
  O  O8  1  0.33979400  0.50000000  0.89104700  1
  O  O9  1  0.16020600  0.00000000  0.10895300  1
  O  O10  1  0.00497900  0.50000000  0.74255800  1
  O  O11  1  0.49502100  0.00000000  0.25744200  1
  O  O12  1  0.17360500  0.00000000  0.56741200  1
  O  O13  1  0.32639500  0.50000000  0.43258800  1
  O  O14  1  0.83979400  0.00000000  0.89104700  1
  O  O15  1  0.66020600  0.50000000  0.10895300  1
  O  O16  1  0.50497900  0.00000000  0.74255800  1
  O  O17  1  0.99502100  0.50000000  0.25744200  1
  O  O18  1  0.67360500  0.50000000  0.56741200  1
  O  O19  1  0.82639500  0.00000000  0.43258800  1
