# generated using pymatgen
data_BaLa2O4
_symmetry_space_group_name_H-M   'P 1'
_cell_length_a   3.65827400
_cell_length_b   12.09062000
_cell_length_c   11.92853600
_cell_angle_alpha   90.00000000
_cell_angle_beta   90.00000000
_cell_angle_gamma   90.00000000
_symmetry_Int_Tables_number   1
_chemical_formula_structural   BaLa2O4
_chemical_formula_sum   'Ba4 La8 O16'
_cell_volume   527.60869953
_cell_formula_units_Z   4
loop_
 _symmetry_equiv_pos_site_id
 _symmetry_equiv_pos_as_xyz
  1  'x, y, z'
loop_
 _atom_site_type_symbol
 _atom_site_label
 _atom_site_symmetry_multiplicity
 _atom_site_fract_x
 _atom_site_fract_y
 _atom_site_fract_z
 _atom_site_occupancy
  Ba  Ba0  1  0.00000000  0.11008500  0.75000000  1
  Ba  Ba1  1  0.50000000  0.38991500  0.25000000  1
  Ba  Ba2  1  0.50000000  0.61008500  0.75000000  1
  Ba  Ba3  1  0.00000000  0.88991500  0.25000000  1
  La  La4  1  0.00000000  0.36620300  0.92747100  1
  La  La5  1  0.00000000  0.36620300  0.57252900  1
  La  La6  1  0.50000000  0.13379700  0.07252900  1
  La  La7  1  0.50000000  0.13379700  0.42747100  1
  La  La8  1  0.50000000  0.86620300  0.92747100  1
  La  La9  1  0.50000000  0.86620300  0.57252900  1
  La  La10  1  0.00000000  0.63379700  0.07252900  1
  La  La11  1  0.00000000  0.63379700  0.42747100  1
  O  O12  1  0.00000000  0.00000000  0.50000000  1
  O  O13  1  0.00000000  0.00000000  0.00000000  1
  O  O14  1  0.00000000  0.45406500  0.75000000  1
  O  O15  1  0.00000000  0.26288500  0.10404500  1
  O  O16  1  0.00000000  0.26288500  0.39595500  1
  O  O17  1  0.50000000  0.04593500  0.25000000  1
  O  O18  1  0.50000000  0.23711500  0.89595500  1
  O  O19  1  0.50000000  0.23711500  0.60404500  1
  O  O20  1  0.50000000  0.50000000  0.50000000  1
  O  O21  1  0.50000000  0.50000000  0.00000000  1
  O  O22  1  0.50000000  0.95406500  0.75000000  1
  O  O23  1  0.50000000  0.76288500  0.10404500  1
  O  O24  1  0.50000000  0.76288500  0.39595500  1
  O  O25  1  0.00000000  0.54593500  0.25000000  1
  O  O26  1  0.00000000  0.73711500  0.89595500  1
  O  O27  1  0.00000000  0.73711500  0.60404500  1
