# generated using pymatgen
data_Gd2(WO4)3
_symmetry_space_group_name_H-M   'P 1'
_cell_length_a   7.81120800
_cell_length_b   11.62924400
_cell_length_c   11.53711607
_cell_angle_alpha   90.00000000
_cell_angle_beta   109.71920133
_cell_angle_gamma   90.00000000
_symmetry_Int_Tables_number   1
_chemical_formula_structural   Gd2(WO4)3
_chemical_formula_sum   'Gd8 W12 O48'
_cell_volume   986.55555129
_cell_formula_units_Z   4
loop_
 _symmetry_equiv_pos_site_id
 _symmetry_equiv_pos_as_xyz
  1  'x, y, z'
loop_
 _atom_site_type_symbol
 _atom_site_label
 _atom_site_symmetry_multiplicity
 _atom_site_fract_x
 _atom_site_fract_y
 _atom_site_fract_z
 _atom_site_occupancy
  Gd  Gd0  1  0.17928650  0.12728250  0.59471500  1
  Gd  Gd1  1  0.17928650  0.87271750  0.09471500  1
  Gd  Gd2  1  0.82071350  0.12728250  0.90528500  1
  Gd  Gd3  1  0.82071350  0.87271750  0.40528500  1
  Gd  Gd4  1  0.67928650  0.62728250  0.59471500  1
  Gd  Gd5  1  0.67928650  0.37271750  0.09471500  1
  Gd  Gd6  1  0.32071350  0.62728250  0.90528500  1
  Gd  Gd7  1  0.32071350  0.37271750  0.40528500  1
  W  W8  1  0.34711900  0.14434000  0.95206100  1
  W  W9  1  0.34711900  0.85566000  0.45206100  1
  W  W10  1  0.50000000  0.38187700  0.75000000  1
  W  W11  1  0.50000000  0.61812300  0.25000000  1
  W  W12  1  0.65288100  0.14434000  0.54793900  1
  W  W13  1  0.65288100  0.85566000  0.04793900  1
  W  W14  1  0.84711900  0.64434000  0.95206100  1
  W  W15  1  0.84711900  0.35566000  0.45206100  1
  W  W16  1  0.00000000  0.88187700  0.75000000  1
  W  W17  1  0.00000000  0.11812300  0.25000000  1
  W  W18  1  0.15288100  0.64434000  0.54793900  1
  W  W19  1  0.15288100  0.35566000  0.04793900  1
  O  O20  1  0.27764250  0.07316950  0.80209100  1
  O  O21  1  0.30316450  0.29141350  0.72010000  1
  O  O22  1  0.51301650  0.46048450  0.89169900  1
  O  O23  1  0.36030250  0.96652950  0.56146900  1
  O  O24  1  0.57800600  0.20008300  0.96217600  1
  O  O25  1  0.38876800  0.71303800  0.57630200  1
  O  O26  1  0.27764250  0.92683050  0.30209100  1
  O  O27  1  0.61123200  0.71303800  0.92369800  1
  O  O28  1  0.42199400  0.20008300  0.53782400  1
  O  O29  1  0.63969750  0.96652950  0.93853100  1
  O  O30  1  0.48698350  0.46048450  0.60830100  1
  O  O31  1  0.30316450  0.70858650  0.22010000  1
  O  O32  1  0.69683550  0.29141350  0.77990000  1
  O  O33  1  0.51301650  0.53951550  0.39169900  1
  O  O34  1  0.36030250  0.03347050  0.06146900  1
  O  O35  1  0.57800600  0.79991700  0.46217600  1
  O  O36  1  0.38876800  0.28696200  0.07630200  1
  O  O37  1  0.72235750  0.07316950  0.69790900  1
  O  O38  1  0.61123200  0.28696200  0.42369800  1
  O  O39  1  0.42199400  0.79991700  0.03782400  1
  O  O40  1  0.63969750  0.03347050  0.43853100  1
  O  O41  1  0.48698350  0.53951550  0.10830100  1
  O  O42  1  0.69683550  0.70858650  0.27990000  1
  O  O43  1  0.72235750  0.92683050  0.19790900  1
  O  O44  1  0.77764250  0.57316950  0.80209100  1
  O  O45  1  0.80316450  0.79141350  0.72010000  1
  O  O46  1  0.01301650  0.96048450  0.89169900  1
  O  O47  1  0.86030250  0.46652950  0.56146900  1
  O  O48  1  0.07800600  0.70008300  0.96217600  1
  O  O49  1  0.88876800  0.21303800  0.57630200  1
  O  O50  1  0.77764250  0.42683050  0.30209100  1
  O  O51  1  0.11123200  0.21303800  0.92369800  1
  O  O52  1  0.92199400  0.70008300  0.53782400  1
  O  O53  1  0.13969750  0.46652950  0.93853100  1
  O  O54  1  0.98698350  0.96048450  0.60830100  1
  O  O55  1  0.80316450  0.20858650  0.22010000  1
  O  O56  1  0.19683550  0.79141350  0.77990000  1
  O  O57  1  0.01301650  0.03951550  0.39169900  1
  O  O58  1  0.86030250  0.53347050  0.06146900  1
  O  O59  1  0.07800600  0.29991700  0.46217600  1
  O  O60  1  0.88876800  0.78696200  0.07630200  1
  O  O61  1  0.22235750  0.57316950  0.69790900  1
  O  O62  1  0.11123200  0.78696200  0.42369800  1
  O  O63  1  0.92199400  0.29991700  0.03782400  1
  O  O64  1  0.13969750  0.53347050  0.43853100  1
  O  O65  1  0.98698350  0.03951550  0.10830100  1
  O  O66  1  0.19683550  0.20858650  0.27990000  1
  O  O67  1  0.22235750  0.42683050  0.19790900  1
