# generated using pymatgen
data_Er4(B2O5)3
_symmetry_space_group_name_H-M   'P 1'
_cell_length_a   11.64364000
_cell_length_b   4.38087600
_cell_length_c   18.84042227
_cell_angle_alpha   90.00000000
_cell_angle_beta   96.46028988
_cell_angle_gamma   90.00000000
_symmetry_Int_Tables_number   1
_chemical_formula_structural   Er4(B2O5)3
_chemical_formula_sum   'Er16 B24 O60'
_cell_volume   954.93504585
_cell_formula_units_Z   4
loop_
 _symmetry_equiv_pos_site_id
 _symmetry_equiv_pos_as_xyz
  1  'x, y, z'
loop_
 _atom_site_type_symbol
 _atom_site_label
 _atom_site_symmetry_multiplicity
 _atom_site_fract_x
 _atom_site_fract_y
 _atom_site_fract_z
 _atom_site_occupancy
  Er  Er0  1  0.86252400  0.20966600  0.69752600  1
  Er  Er1  1  0.86729850  0.20079350  0.90105700  1
  Er  Er2  1  0.63270150  0.70079350  0.59894300  1
  Er  Er3  1  0.63747600  0.70966600  0.80247400  1
  Er  Er4  1  0.86252400  0.79033400  0.19752600  1
  Er  Er5  1  0.86729850  0.79920650  0.40105700  1
  Er  Er6  1  0.63270150  0.29920650  0.09894300  1
  Er  Er7  1  0.63747600  0.29033400  0.30247400  1
  Er  Er8  1  0.36252400  0.70966600  0.69752600  1
  Er  Er9  1  0.36729850  0.70079350  0.90105700  1
  Er  Er10  1  0.13270150  0.20079350  0.59894300  1
  Er  Er11  1  0.13747600  0.20966600  0.80247400  1
  Er  Er12  1  0.36252400  0.29033400  0.19752600  1
  Er  Er13  1  0.36729850  0.29920650  0.40105700  1
  Er  Er14  1  0.13270150  0.79920650  0.09894300  1
  Er  Er15  1  0.13747600  0.79033400  0.30247400  1
  B  B16  1  0.83083200  0.19061600  0.52558300  1
  B  B17  1  0.90267800  0.70597000  0.58721800  1
  B  B18  1  0.93237950  0.72793250  0.80571500  1
  B  B19  1  0.90267800  0.29403000  0.08721800  1
  B  B20  1  0.93237950  0.27206750  0.30571500  1
  B  B21  1  0.66916800  0.69061600  0.97441700  1
  B  B22  1  0.83083200  0.80938400  0.02558300  1
  B  B23  1  0.56762050  0.22793250  0.69428500  1
  B  B24  1  0.59732200  0.20597000  0.91278200  1
  B  B25  1  0.56762050  0.77206750  0.19428500  1
  B  B26  1  0.59732200  0.79403000  0.41278200  1
  B  B27  1  0.66916800  0.30938400  0.47441700  1
  B  B28  1  0.33083200  0.69061600  0.52558300  1
  B  B29  1  0.40267800  0.20597000  0.58721800  1
  B  B30  1  0.43237950  0.22793250  0.80571500  1
  B  B31  1  0.40267800  0.79403000  0.08721800  1
  B  B32  1  0.43237950  0.77206750  0.30571500  1
  B  B33  1  0.16916800  0.19061600  0.97441700  1
  B  B34  1  0.33083200  0.30938400  0.02558300  1
  B  B35  1  0.06762050  0.72793250  0.69428500  1
  B  B36  1  0.09732200  0.70597000  0.91278200  1
  B  B37  1  0.06762050  0.27206750  0.19428500  1
  B  B38  1  0.09732200  0.29403000  0.41278200  1
  B  B39  1  0.16916800  0.80938400  0.47441700  1
  O  O40  1  0.87259800  0.87877000  0.52053700  1
  O  O41  1  0.91565800  0.37310800  0.57019900  1
  O  O42  1  0.93537800  0.40085500  0.80333700  1
  O  O43  1  0.98604250  0.82612050  0.87850200  1
  O  O44  1  0.98604250  0.17387950  0.37850200  1
  O  O45  1  0.81806150  0.86670750  0.79627000  1
  O  O46  1  0.87259800  0.12123000  0.02053700  1
  O  O47  1  0.91565800  0.62689200  0.07019900  1
  O  O48  1  0.93537800  0.59914500  0.30333700  1
  O  O49  1  0.81839050  0.74177250  0.63833300  1
  O  O50  1  0.70849950  0.20361750  0.54945600  1
  O  O51  1  0.81839050  0.25822750  0.13833300  1
  O  O52  1  0.81806150  0.13329250  0.29627000  1
  O  O53  1  0.70849950  0.79638250  0.04945600  1
  O  O54  1  0.79150050  0.70361750  0.95054400  1
  O  O55  1  0.68193850  0.36670750  0.70373000  1
  O  O56  1  0.68160950  0.24177250  0.86166700  1
  O  O57  1  0.79150050  0.29638250  0.45054400  1
  O  O58  1  0.68160950  0.75822750  0.36166700  1
  O  O59  1  0.56462200  0.90085500  0.69666300  1
  O  O60  1  0.58434200  0.87310800  0.92980100  1
  O  O61  1  0.62740200  0.37877000  0.97946300  1
  O  O62  1  0.68193850  0.63329250  0.20373000  1
  O  O63  1  0.51395750  0.32612050  0.62149800  1
  O  O64  1  0.51395750  0.67387950  0.12149800  1
  O  O65  1  0.56462200  0.09914500  0.19666300  1
  O  O66  1  0.00000000  0.13143300  0.25000000  1
  O  O67  1  0.00000000  0.86856700  0.75000000  1
  O  O68  1  0.58434200  0.12689200  0.42980100  1
  O  O69  1  0.62740200  0.62123000  0.47946300  1
  O  O70  1  0.37259800  0.37877000  0.52053700  1
  O  O71  1  0.41565800  0.87310800  0.57019900  1
  O  O72  1  0.43537800  0.90085500  0.80333700  1
  O  O73  1  0.48604250  0.32612050  0.87850200  1
  O  O74  1  0.48604250  0.67387950  0.37850200  1
  O  O75  1  0.31806150  0.36670750  0.79627000  1
  O  O76  1  0.37259800  0.62123000  0.02053700  1
  O  O77  1  0.41565800  0.12689200  0.07019900  1
  O  O78  1  0.43537800  0.09914500  0.30333700  1
  O  O79  1  0.31839050  0.24177250  0.63833300  1
  O  O80  1  0.20849950  0.70361750  0.54945600  1
  O  O81  1  0.31839050  0.75822750  0.13833300  1
  O  O82  1  0.31806150  0.63329250  0.29627000  1
  O  O83  1  0.20849950  0.29638250  0.04945600  1
  O  O84  1  0.29150050  0.20361750  0.95054400  1
  O  O85  1  0.18193850  0.86670750  0.70373000  1
  O  O86  1  0.18160950  0.74177250  0.86166700  1
  O  O87  1  0.29150050  0.79638250  0.45054400  1
  O  O88  1  0.18160950  0.25822750  0.36166700  1
  O  O89  1  0.06462200  0.40085500  0.69666300  1
  O  O90  1  0.08434200  0.37310800  0.92980100  1
  O  O91  1  0.12740200  0.87877000  0.97946300  1
  O  O92  1  0.18193850  0.13329250  0.20373000  1
  O  O93  1  0.01395750  0.82612050  0.62149800  1
  O  O94  1  0.01395750  0.17387950  0.12149800  1
  O  O95  1  0.06462200  0.59914500  0.19666300  1
  O  O96  1  0.50000000  0.63143300  0.25000000  1
  O  O97  1  0.50000000  0.36856700  0.75000000  1
  O  O98  1  0.08434200  0.62689200  0.42980100  1
  O  O99  1  0.12740200  0.12123000  0.47946300  1
