# generated using pymatgen
data_Li4VCr3O8
_symmetry_space_group_name_H-M   'P 1'
_cell_length_a   5.14133667
_cell_length_b   5.93028361
_cell_length_c   5.16194107
_cell_angle_alpha   90.00000000
_cell_angle_beta   109.51454798
_cell_angle_gamma   90.00000000
_symmetry_Int_Tables_number   1
_chemical_formula_structural   Li4VCr3O8
_chemical_formula_sum   'Li4 V1 Cr3 O8'
_cell_volume   148.34470051
_cell_formula_units_Z   1
loop_
 _symmetry_equiv_pos_site_id
 _symmetry_equiv_pos_as_xyz
  1  'x, y, z'
loop_
 _atom_site_type_symbol
 _atom_site_label
 _atom_site_symmetry_multiplicity
 _atom_site_fract_x
 _atom_site_fract_y
 _atom_site_fract_z
 _atom_site_occupancy
  Li  Li0  1  0.00000000  0.00000000  0.00000000  1
  Li  Li1  1  0.00000000  0.50000000  0.00000000  1
  Li  Li2  1  0.50000000  0.74768000  0.00000000  1
  Li  Li3  1  0.50000000  0.25232000  0.00000000  1
  V  V4  1  0.50000000  0.00000000  0.50000000  1
  Cr  Cr5  1  0.00000000  0.75095800  0.50000000  1
  Cr  Cr6  1  0.00000000  0.24904200  0.50000000  1
  Cr  Cr7  1  0.50000000  0.50000000  0.50000000  1
  O  O8  1  0.76150000  0.00000000  0.26939100  1
  O  O9  1  0.75764900  0.50000000  0.27693800  1
  O  O10  1  0.74351100  0.74823200  0.72764700  1
  O  O11  1  0.25648900  0.74823200  0.27235300  1
  O  O12  1  0.74351100  0.25176800  0.72764700  1
  O  O13  1  0.23850000  0.00000000  0.73060900  1
  O  O14  1  0.25648900  0.25176800  0.27235300  1
  O  O15  1  0.24235100  0.50000000  0.72306200  1
