# generated using pymatgen
data_Na2H5RuN5O12
_symmetry_space_group_name_H-M   'P 1'
_cell_length_a   13.07273800
_cell_length_b   14.80469400
_cell_length_c   7.52287632
_cell_angle_alpha   90.00000000
_cell_angle_beta   121.80016782
_cell_angle_gamma   90.00000000
_symmetry_Int_Tables_number   1
_chemical_formula_structural   Na2H5RuN5O12
_chemical_formula_sum   'Na8 H20 Ru4 N20 O48'
_cell_volume   1237.40885884
_cell_formula_units_Z   4
loop_
 _symmetry_equiv_pos_site_id
 _symmetry_equiv_pos_as_xyz
  1  'x, y, z'
loop_
 _atom_site_type_symbol
 _atom_site_label
 _atom_site_symmetry_multiplicity
 _atom_site_fract_x
 _atom_site_fract_y
 _atom_site_fract_z
 _atom_site_occupancy
  Na  Na0  1  0.25000000  0.75000000  0.50000000  1
  Na  Na1  1  0.25000000  0.25000000  0.50000000  1
  Na  Na2  1  0.50000000  0.60866100  0.50000000  1
  Na  Na3  1  0.50000000  0.39133900  0.50000000  1
  Na  Na4  1  0.75000000  0.25000000  0.50000000  1
  Na  Na5  1  0.75000000  0.75000000  0.50000000  1
  Na  Na6  1  0.00000000  0.10866100  0.50000000  1
  Na  Na7  1  0.00000000  0.89133900  0.50000000  1
  H  H8  1  0.95637900  0.00000000  0.14324600  1
  H  H9  1  0.04362100  0.00000000  0.85675400  1
  H  H10  1  0.49303000  0.70953600  0.81325500  1
  H  H11  1  0.49303000  0.29046400  0.81325500  1
  H  H12  1  0.50697000  0.29046400  0.18674500  1
  H  H13  1  0.50697000  0.70953600  0.18674500  1
  H  H14  1  0.53925650  0.78258150  0.72629500  1
  H  H15  1  0.53925650  0.21741850  0.72629500  1
  H  H16  1  0.46074350  0.21741850  0.27370500  1
  H  H17  1  0.46074350  0.78258150  0.27370500  1
  H  H18  1  0.45637900  0.50000000  0.14324600  1
  H  H19  1  0.54362100  0.50000000  0.85675400  1
  H  H20  1  0.99303000  0.20953600  0.81325500  1
  H  H21  1  0.99303000  0.79046400  0.81325500  1
  H  H22  1  0.00697000  0.79046400  0.18674500  1
  H  H23  1  0.00697000  0.20953600  0.18674500  1
  H  H24  1  0.03925650  0.28258150  0.72629500  1
  H  H25  1  0.03925650  0.71741850  0.72629500  1
  H  H26  1  0.96074350  0.71741850  0.27370500  1
  H  H27  1  0.96074350  0.28258150  0.27370500  1
  Ru  Ru28  1  0.73682500  0.00000000  0.99676400  1
  Ru  Ru29  1  0.26317500  0.00000000  0.00323600  1
  Ru  Ru30  1  0.23682500  0.50000000  0.99676400  1
  Ru  Ru31  1  0.76317500  0.50000000  0.00323600  1
  N  N32  1  0.58026900  0.00000000  0.81089400  1
  N  N33  1  0.41973100  0.00000000  0.18910600  1
  N  N34  1  0.76897300  0.10067900  0.82892500  1
  N  N35  1  0.76897300  0.89932100  0.82892500  1
  N  N36  1  0.23102700  0.89932100  0.17107500  1
  N  N37  1  0.23102700  0.10067900  0.17107500  1
  N  N38  1  0.71582200  0.10328100  0.17258800  1
  N  N39  1  0.71582200  0.89671900  0.17258800  1
  N  N40  1  0.28417800  0.89671900  0.82741200  1
  N  N41  1  0.28417800  0.10328100  0.82741200  1
  N  N42  1  0.08026900  0.50000000  0.81089400  1
  N  N43  1  0.91973100  0.50000000  0.18910600  1
  N  N44  1  0.26897300  0.60067900  0.82892500  1
  N  N45  1  0.26897300  0.39932100  0.82892500  1
  N  N46  1  0.73102700  0.39932100  0.17107500  1
  N  N47  1  0.73102700  0.60067900  0.17107500  1
  N  N48  1  0.21582200  0.60328100  0.17258800  1
  N  N49  1  0.21582200  0.39671900  0.17258800  1
  N  N50  1  0.78417800  0.39671900  0.82741200  1
  N  N51  1  0.78417800  0.60328100  0.82741200  1
  O  O52  1  0.91121100  0.00000000  0.21389800  1
  O  O53  1  0.08878900  0.00000000  0.78610200  1
  O  O54  1  0.47734200  0.00000000  0.68902100  1
  O  O55  1  0.52265800  0.00000000  0.31097900  1
  O  O56  1  0.87191700  0.11013100  0.86016900  1
  O  O57  1  0.87191700  0.88986900  0.86016900  1
  O  O58  1  0.12808300  0.88986900  0.13983100  1
  O  O59  1  0.12808300  0.11013100  0.13983100  1
  O  O60  1  0.68348650  0.14897350  0.69707400  1
  O  O61  1  0.68348650  0.85102650  0.69707400  1
  O  O62  1  0.31651350  0.85102650  0.30292600  1
  O  O63  1  0.31651350  0.14897350  0.30292600  1
  O  O64  1  0.78922450  0.11089050  0.36582700  1
  O  O65  1  0.78922450  0.88910950  0.36582700  1
  O  O66  1  0.21077550  0.88910950  0.63417300  1
  O  O67  1  0.21077550  0.11089050  0.63417300  1
  O  O68  1  0.62916700  0.15612600  0.08090500  1
  O  O69  1  0.62916700  0.84387400  0.08090500  1
  O  O70  1  0.37083300  0.84387400  0.91909500  1
  O  O71  1  0.37083300  0.15612600  0.91909500  1
  O  O72  1  0.48334900  0.73151900  0.68303500  1
  O  O73  1  0.48334900  0.26848100  0.68303500  1
  O  O74  1  0.51665100  0.26848100  0.31696500  1
  O  O75  1  0.51665100  0.73151900  0.31696500  1
  O  O76  1  0.41121100  0.50000000  0.21389800  1
  O  O77  1  0.58878900  0.50000000  0.78610200  1
  O  O78  1  0.97734200  0.50000000  0.68902100  1
  O  O79  1  0.02265800  0.50000000  0.31097900  1
  O  O80  1  0.37191700  0.61013100  0.86016900  1
  O  O81  1  0.37191700  0.38986900  0.86016900  1
  O  O82  1  0.62808300  0.38986900  0.13983100  1
  O  O83  1  0.62808300  0.61013100  0.13983100  1
  O  O84  1  0.18348650  0.64897350  0.69707400  1
  O  O85  1  0.18348650  0.35102650  0.69707400  1
  O  O86  1  0.81651350  0.35102650  0.30292600  1
  O  O87  1  0.81651350  0.64897350  0.30292600  1
  O  O88  1  0.28922450  0.61089050  0.36582700  1
  O  O89  1  0.28922450  0.38910950  0.36582700  1
  O  O90  1  0.71077550  0.38910950  0.63417300  1
  O  O91  1  0.71077550  0.61089050  0.63417300  1
  O  O92  1  0.12916700  0.65612600  0.08090500  1
  O  O93  1  0.12916700  0.34387400  0.08090500  1
  O  O94  1  0.87083300  0.34387400  0.91909500  1
  O  O95  1  0.87083300  0.65612600  0.91909500  1
  O  O96  1  0.98334900  0.23151900  0.68303500  1
  O  O97  1  0.98334900  0.76848100  0.68303500  1
  O  O98  1  0.01665100  0.76848100  0.31696500  1
  O  O99  1  0.01665100  0.23151900  0.31696500  1
