# generated using pymatgen
data_BaSrI4
_symmetry_space_group_name_H-M   'P 1'
_cell_length_a   5.87002167
_cell_length_b   5.87002167
_cell_length_c   28.09145537
_cell_angle_alpha   90.00000000
_cell_angle_beta   90.00000000
_cell_angle_gamma   120.00000000
_symmetry_Int_Tables_number   1
_chemical_formula_structural   BaSrI4
_chemical_formula_sum   'Ba3 Sr3 I12'
_cell_volume   838.27068849
_cell_formula_units_Z   3
loop_
 _symmetry_equiv_pos_site_id
 _symmetry_equiv_pos_as_xyz
  1  'x, y, z'
loop_
 _atom_site_type_symbol
 _atom_site_label
 _atom_site_symmetry_multiplicity
 _atom_site_fract_x
 _atom_site_fract_y
 _atom_site_fract_z
 _atom_site_occupancy
  Ba  Ba0  1  0.00000000  0.00000000  0.00000000  1
  Ba  Ba1  1  0.66666667  0.33333333  0.33333333  1
  Ba  Ba2  1  0.33333333  0.66666667  0.66666667  1
  Sr  Sr3  1  0.33333333  0.66666667  0.16666667  1
  Sr  Sr4  1  1.00000000  1.00000000  0.50000000  1
  Sr  Sr5  1  0.66666667  0.33333333  0.83333333  1
  I  I6  1  0.33333333  0.66666667  0.28946767  1
  I  I7  1  0.66666667  0.33333333  0.20423633  1
  I  I8  1  0.00000000  0.00000000  0.12909700  1
  I  I9  1  0.33333333  0.66666667  0.04386567  1
  I  I10  1  0.00000000  0.00000000  0.62280100  1
  I  I11  1  0.33333333  0.66666667  0.53756967  1
  I  I12  1  0.66666667  0.33333333  0.46243033  1
  I  I13  1  0.00000000  0.00000000  0.37719900  1
  I  I14  1  0.66666667  0.33333333  0.95613433  1
  I  I15  1  0.00000000  0.00000000  0.87090300  1
  I  I16  1  0.33333333  0.66666667  0.79576367  1
  I  I17  1  0.66666667  0.33333333  0.71053233  1
