# generated using pymatgen
data_Ge2As2O7
_symmetry_space_group_name_H-M   'P 1'
_cell_length_a   7.21412400
_cell_length_b   7.28262857
_cell_length_c   13.07289814
_cell_angle_alpha   90.70420120
_cell_angle_beta   96.09822641
_cell_angle_gamma   94.12946618
_symmetry_Int_Tables_number   1
_chemical_formula_structural   Ge2As2O7
_chemical_formula_sum   'Ge8 As8 O28'
_cell_volume   681.02388617
_cell_formula_units_Z   4
loop_
 _symmetry_equiv_pos_site_id
 _symmetry_equiv_pos_as_xyz
  1  'x, y, z'
loop_
 _atom_site_type_symbol
 _atom_site_label
 _atom_site_symmetry_multiplicity
 _atom_site_fract_x
 _atom_site_fract_y
 _atom_site_fract_z
 _atom_site_occupancy
  Ge  Ge0  1  0.93230000  0.91613300  0.12079500  1
  Ge  Ge1  1  0.31174500  0.50906000  0.19119700  1
  Ge  Ge2  1  0.66207500  0.12938900  0.38103000  1
  Ge  Ge3  1  0.26339500  0.65429900  0.40562800  1
  Ge  Ge4  1  0.73660500  0.34570100  0.59437200  1
  Ge  Ge5  1  0.33792500  0.87061100  0.61897000  1
  Ge  Ge6  1  0.68825500  0.49094000  0.80880300  1
  Ge  Ge7  1  0.06770000  0.08386700  0.87920500  1
  As  As8  1  0.84002100  0.31280500  0.02691200  1
  As  As9  1  0.39827500  0.07459100  0.16155600  1
  As  As10  1  0.83555300  0.73422800  0.34475500  1
  As  As11  1  0.07507000  0.26396200  0.33583500  1
  As  As12  1  0.92493000  0.73603800  0.66416500  1
  As  As13  1  0.16444700  0.26577200  0.65524500  1
  As  As14  1  0.60172500  0.92540900  0.83844400  1
  As  As15  1  0.15997900  0.68719500  0.97308800  1
  O  O16  1  0.05420000  0.26874100  0.96912000  1
  O  O17  1  0.77854000  0.07297900  0.05597300  1
  O  O18  1  0.30514600  0.68541500  0.09814900  1
  O  O19  1  0.42482300  0.32507400  0.14094700  1
  O  O20  1  0.79485300  0.83844700  0.21740200  1
  O  O21  1  0.14393700  0.03967000  0.17136200  1
  O  O22  1  0.08750600  0.42878600  0.22745700  1
  O  O23  1  0.41757000  0.62226000  0.30785900  1
  O  O24  1  0.82190800  0.28640900  0.32507500  1
  O  O25  1  0.44684000  0.08994900  0.30207300  1
  O  O26  1  0.08639500  0.80387800  0.36737800  1
  O  O27  1  0.77053000  0.92783700  0.41942800  1
  O  O28  1  0.15570200  0.43724100  0.43752700  1
  O  O29  1  0.59008300  0.24222300  0.48994900  1
  O  O30  1  0.40991700  0.75777700  0.51005100  1
  O  O31  1  0.84429800  0.56275900  0.56247300  1
  O  O32  1  0.22947000  0.07216300  0.58057200  1
  O  O33  1  0.91360500  0.19612200  0.63262200  1
  O  O34  1  0.55316000  0.91005100  0.69792700  1
  O  O35  1  0.17809200  0.71359100  0.67492500  1
  O  O36  1  0.58243000  0.37774000  0.69214100  1
  O  O37  1  0.91249400  0.57121400  0.77254300  1
  O  O38  1  0.85606300  0.96033000  0.82863800  1
  O  O39  1  0.20514700  0.16155300  0.78259800  1
  O  O40  1  0.57517700  0.67492600  0.85905300  1
  O  O41  1  0.69485400  0.31458500  0.90185100  1
  O  O42  1  0.22146000  0.92702100  0.94402700  1
  O  O43  1  0.94580000  0.73125900  0.03088000  1
