# generated using pymatgen
data_Ba2LaI7
_symmetry_space_group_name_H-M   'P 1'
_cell_length_a   7.94941300
_cell_length_b   18.10714800
_cell_length_c   12.18106365
_cell_angle_alpha   90.00000000
_cell_angle_beta   90.91068888
_cell_angle_gamma   90.00000000
_symmetry_Int_Tables_number   1
_chemical_formula_structural   Ba2LaI7
_chemical_formula_sum   'Ba8 La4 I28'
_cell_volume   1753.13541597
_cell_formula_units_Z   4
loop_
 _symmetry_equiv_pos_site_id
 _symmetry_equiv_pos_as_xyz
  1  'x, y, z'
loop_
 _atom_site_type_symbol
 _atom_site_label
 _atom_site_symmetry_multiplicity
 _atom_site_fract_x
 _atom_site_fract_y
 _atom_site_fract_z
 _atom_site_occupancy
  Ba  Ba0  1  0.26650000  0.77940600  0.04881300  1
  Ba  Ba1  1  0.26824800  0.43957400  0.17605100  1
  Ba  Ba2  1  0.73175200  0.93957400  0.32394900  1
  Ba  Ba3  1  0.73350000  0.27940600  0.45118700  1
  Ba  Ba4  1  0.26650000  0.72059400  0.54881300  1
  Ba  Ba5  1  0.26824800  0.06042600  0.67605100  1
  Ba  Ba6  1  0.73175200  0.56042600  0.82394900  1
  Ba  Ba7  1  0.73350000  0.22059400  0.95118700  1
  La  La8  1  0.21887800  0.12700900  0.21893900  1
  La  La9  1  0.78112200  0.62700900  0.28106100  1
  La  La10  1  0.21887800  0.37299100  0.71893900  1
  La  La11  1  0.78112200  0.87299100  0.78106100  1
  I  I12  1  0.70545300  0.85870800  0.03785400  1
  I  I13  1  0.00689400  0.60274800  0.06413400  1
  I  I14  1  0.50437400  0.60410100  0.07810700  1
  I  I15  1  0.85647000  0.06947400  0.12020400  1
  I  I16  1  0.49761500  0.26086100  0.19599700  1
  I  I17  1  0.99607000  0.27688900  0.20519800  1
  I  I18  1  0.29928300  0.95453500  0.21321500  1
  I  I19  1  0.70071700  0.45453500  0.28678500  1
  I  I20  1  0.00393000  0.77688900  0.29480200  1
  I  I21  1  0.50238500  0.76086100  0.30400300  1
  I  I22  1  0.14353000  0.56947400  0.37979600  1
  I  I23  1  0.49562600  0.10410100  0.42189300  1
  I  I24  1  0.99310600  0.10274800  0.43586600  1
  I  I25  1  0.29454700  0.35870800  0.46214600  1
  I  I26  1  0.70545300  0.64129200  0.53785400  1
  I  I27  1  0.00689400  0.89725200  0.56413400  1
  I  I28  1  0.50437400  0.89589900  0.57810700  1
  I  I29  1  0.85647000  0.43052600  0.62020400  1
  I  I30  1  0.49761500  0.23913900  0.69599700  1
  I  I31  1  0.99607000  0.22311100  0.70519800  1
  I  I32  1  0.29928300  0.54546500  0.71321500  1
  I  I33  1  0.70071700  0.04546500  0.78678500  1
  I  I34  1  0.00393000  0.72311100  0.79480200  1
  I  I35  1  0.50238500  0.73913900  0.80400300  1
  I  I36  1  0.14353000  0.93052600  0.87979600  1
  I  I37  1  0.49562600  0.39589900  0.92189300  1
  I  I38  1  0.99310600  0.39725200  0.93586600  1
  I  I39  1  0.29454700  0.14129200  0.96214600  1
