# generated using pymatgen
data_Li21(FeO4)4
_symmetry_space_group_name_H-M   'P 1'
_cell_length_a   9.06115200
_cell_length_b   9.45118800
_cell_length_c   9.49582353
_cell_angle_alpha   90.00000000
_cell_angle_beta   90.13796268
_cell_angle_gamma   90.00000000
_symmetry_Int_Tables_number   1
_chemical_formula_structural   Li21(FeO4)4
_chemical_formula_sum   'Li42 Fe8 O32'
_cell_volume   813.20716007
_cell_formula_units_Z   2
loop_
 _symmetry_equiv_pos_site_id
 _symmetry_equiv_pos_as_xyz
  1  'x, y, z'
loop_
 _atom_site_type_symbol
 _atom_site_label
 _atom_site_symmetry_multiplicity
 _atom_site_fract_x
 _atom_site_fract_y
 _atom_site_fract_z
 _atom_site_occupancy
  Li  Li0  1  0.29283500  0.24287700  0.76280100  1
  Li  Li1  1  0.29428850  0.25016450  0.25457000  1
  Li  Li2  1  0.72310950  0.99581350  0.72237600  1
  Li  Li3  1  0.77837650  0.99797550  0.47262100  1
  Li  Li4  1  0.72314950  0.99879250  0.22101700  1
  Li  Li5  1  0.75315400  0.99683900  0.97144800  1
  Li  Li6  1  0.70571150  0.25016450  0.74543000  1
  Li  Li7  1  0.70716500  0.24287700  0.23719900  1
  Li  Li8  1  0.50380400  0.47750000  0.73889800  1
  Li  Li9  1  0.49619600  0.47750000  0.26110200  1
  Li  Li10  1  0.28927650  0.74570550  0.49005500  1
  Li  Li11  1  0.50000000  0.52908200  0.00000000  1
  Li  Li12  1  0.28289550  0.74774950  0.99190600  1
  Li  Li13  1  0.22162350  0.99797550  0.52737900  1
  Li  Li14  1  0.27685050  0.99879250  0.77898300  1
  Li  Li15  1  0.24684600  0.99683900  0.02855200  1
  Li  Li16  1  0.27689050  0.99581350  0.27762400  1
  Li  Li17  1  0.71072350  0.74570550  0.50994500  1
  Li  Li18  1  0.71710450  0.74774950  0.00809400  1
  Li  Li19  1  0.50000000  0.97706600  0.50000000  1
  Li  Li20  1  0.50000000  0.98423800  0.00000000  1
  Li  Li21  1  0.79283500  0.74287700  0.76280100  1
  Li  Li22  1  0.79428850  0.75016450  0.25457000  1
  Li  Li23  1  0.22310950  0.49581350  0.72237600  1
  Li  Li24  1  0.27837650  0.49797550  0.47262100  1
  Li  Li25  1  0.22314950  0.49879250  0.22101700  1
  Li  Li26  1  0.25315400  0.49683900  0.97144800  1
  Li  Li27  1  0.20571150  0.75016450  0.74543000  1
  Li  Li28  1  0.20716500  0.74287700  0.23719900  1
  Li  Li29  1  0.00380400  0.97750000  0.73889800  1
  Li  Li30  1  0.99619600  0.97750000  0.26110200  1
  Li  Li31  1  0.78927650  0.24570550  0.49005500  1
  Li  Li32  1  0.00000000  0.02908200  0.00000000  1
  Li  Li33  1  0.78289550  0.24774950  0.99190600  1
  Li  Li34  1  0.72162350  0.49797550  0.52737900  1
  Li  Li35  1  0.77685050  0.49879250  0.77898300  1
  Li  Li36  1  0.74684600  0.49683900  0.02855200  1
  Li  Li37  1  0.77689050  0.49581350  0.27762400  1
  Li  Li38  1  0.21072350  0.24570550  0.50994500  1
  Li  Li39  1  0.21710450  0.24774950  0.00809400  1
  Li  Li40  1  0.00000000  0.47706600  0.50000000  1
  Li  Li41  1  0.00000000  0.48423800  0.00000000  1
  Fe  Fe42  1  0.50000000  0.25377100  0.50000000  1
  Fe  Fe43  1  0.50000000  0.25326300  0.00000000  1
  Fe  Fe44  1  0.50023550  0.75572950  0.74849100  1
  Fe  Fe45  1  0.49976450  0.75572950  0.25150900  1
  Fe  Fe46  1  0.00000000  0.75377100  0.50000000  1
  Fe  Fe47  1  0.00000000  0.75326300  0.00000000  1
  Fe  Fe48  1  0.00023550  0.25572950  0.74849100  1
  Fe  Fe49  1  0.99976450  0.25572950  0.25150900  1
  O  O50  1  0.62937150  0.86872250  0.86221200  1
  O  O51  1  0.63291300  0.86711900  0.36381200  1
  O  O52  1  0.64327850  0.12189850  0.08931100  1
  O  O53  1  0.36995350  0.36725750  0.61422000  1
  O  O54  1  0.86743400  0.88724400  0.11512400  1
  O  O55  1  0.63806500  0.12654300  0.58835200  1
  O  O56  1  0.86413350  0.12873450  0.33982400  1
  O  O57  1  0.87143850  0.12233750  0.84703000  1
  O  O58  1  0.63004650  0.36725750  0.38578000  1
  O  O59  1  0.13256600  0.88724400  0.88487600  1
  O  O60  1  0.12856150  0.12233750  0.15297000  1
  O  O61  1  0.13586650  0.12873450  0.66017600  1
  O  O62  1  0.36708700  0.86711900  0.63618800  1
  O  O63  1  0.37062850  0.86872250  0.13778800  1
  O  O64  1  0.36193500  0.12654300  0.41164800  1
  O  O65  1  0.35672150  0.12189850  0.91068900  1
  O  O66  1  0.12937150  0.36872250  0.86221200  1
  O  O67  1  0.13291300  0.36711900  0.36381200  1
  O  O68  1  0.14327850  0.62189850  0.08931100  1
  O  O69  1  0.86995350  0.86725750  0.61422000  1
  O  O70  1  0.36743400  0.38724400  0.11512400  1
  O  O71  1  0.13806500  0.62654300  0.58835200  1
  O  O72  1  0.36413350  0.62873450  0.33982400  1
  O  O73  1  0.37143850  0.62233750  0.84703000  1
  O  O74  1  0.13004650  0.86725750  0.38578000  1
  O  O75  1  0.63256600  0.38724400  0.88487600  1
  O  O76  1  0.62856150  0.62233750  0.15297000  1
  O  O77  1  0.63586650  0.62873450  0.66017600  1
  O  O78  1  0.86708700  0.36711900  0.63618800  1
  O  O79  1  0.87062850  0.36872250  0.13778800  1
  O  O80  1  0.86193500  0.62654300  0.41164800  1
  O  O81  1  0.85672150  0.62189850  0.91068900  1
