# generated using pymatgen
data_Li24MnCr11O36
_symmetry_space_group_name_H-M   'P 1'
_cell_length_a   15.16494600
_cell_length_b   8.71443800
_cell_length_c   11.70145307
_cell_angle_alpha   90.00000000
_cell_angle_beta   124.59722841
_cell_angle_gamma   90.00000000
_symmetry_Int_Tables_number   1
_chemical_formula_structural   Li24MnCr11O36
_chemical_formula_sum   'Li48 Mn2 Cr22 O72'
_cell_volume   1272.93530044
_cell_formula_units_Z   2
loop_
 _symmetry_equiv_pos_site_id
 _symmetry_equiv_pos_as_xyz
  1  'x, y, z'
loop_
 _atom_site_type_symbol
 _atom_site_label
 _atom_site_symmetry_multiplicity
 _atom_site_fract_x
 _atom_site_fract_y
 _atom_site_fract_z
 _atom_site_occupancy
  Li  Li0  1  0.49797000  0.50725400  0.24876400  1
  Li  Li1  1  0.33264400  0.66667600  0.00203200  1
  Li  Li2  1  0.66519500  0.66699300  0.75170000  1
  Li  Li3  1  0.83208650  0.50467750  0.74899600  1
  Li  Li4  1  0.66609700  0.66861100  0.50081600  1
  Li  Li5  1  0.16791350  0.50467750  0.25100400  1
  Li  Li6  1  0.50286250  0.82830150  0.25507900  1
  Li  Li7  1  0.16708250  0.16724650  0.24938100  1
  Li  Li8  1  0.00000000  0.66517200  0.00000000  1
  Li  Li9  1  0.83411600  0.82583000  0.75246700  1
  Li  Li10  1  0.49980400  0.16975300  0.75066700  1
  Li  Li11  1  0.66490100  0.00404200  0.74845700  1
  Li  Li12  1  0.50019600  0.16975300  0.24933300  1
  Li  Li13  1  0.66718000  0.32583700  0.75168900  1
  Li  Li14  1  0.83291750  0.16724650  0.75061900  1
  Li  Li15  1  0.50203000  0.50725400  0.75123600  1
  Li  Li16  1  0.33390300  0.66861100  0.49918400  1
  Li  Li17  1  0.33509900  0.00404200  0.25154300  1
  Li  Li18  1  0.16588400  0.82583000  0.24753300  1
  Li  Li19  1  0.33480500  0.66699300  0.24830000  1
  Li  Li20  1  0.66735600  0.66667600  0.99796800  1
  Li  Li21  1  0.49713750  0.82830150  0.74492100  1
  Li  Li22  1  0.50000000  0.16612800  0.50000000  1
  Li  Li23  1  0.33282000  0.32583700  0.24831100  1
  Li  Li24  1  0.99797000  0.00725400  0.24876400  1
  Li  Li25  1  0.83264400  0.16667600  0.00203200  1
  Li  Li26  1  0.16519500  0.16699300  0.75170000  1
  Li  Li27  1  0.33208650  0.00467750  0.74899600  1
  Li  Li28  1  0.16609700  0.16861100  0.50081600  1
  Li  Li29  1  0.66791350  0.00467750  0.25100400  1
  Li  Li30  1  0.00286250  0.32830150  0.25507900  1
  Li  Li31  1  0.66708250  0.66724650  0.24938100  1
  Li  Li32  1  0.50000000  0.16517200  0.00000000  1
  Li  Li33  1  0.33411600  0.32583000  0.75246700  1
  Li  Li34  1  0.99980400  0.66975300  0.75066700  1
  Li  Li35  1  0.16490100  0.50404200  0.74845700  1
  Li  Li36  1  0.00019600  0.66975300  0.24933300  1
  Li  Li37  1  0.16718000  0.82583700  0.75168900  1
  Li  Li38  1  0.33291750  0.66724650  0.75061900  1
  Li  Li39  1  0.00203000  0.00725400  0.75123600  1
  Li  Li40  1  0.83390300  0.16861100  0.49918400  1
  Li  Li41  1  0.83509900  0.50404200  0.25154300  1
  Li  Li42  1  0.66588400  0.32583000  0.24753300  1
  Li  Li43  1  0.83480500  0.16699300  0.24830000  1
  Li  Li44  1  0.16735600  0.16667600  0.99796800  1
  Li  Li45  1  0.99713750  0.32830150  0.74492100  1
  Li  Li46  1  0.00000000  0.66612800  0.50000000  1
  Li  Li47  1  0.83282000  0.82583700  0.24831100  1
  Mn  Mn48  1  0.50000000  0.83204800  0.50000000  1
  Mn  Mn49  1  0.00000000  0.33204800  0.50000000  1
  Cr  Cr50  1  0.33617250  0.00425050  0.00087900  1
  Cr  Cr51  1  0.00000000  0.32701300  0.00000000  1
  Cr  Cr52  1  0.33004200  0.33859700  0.00111000  1
  Cr  Cr53  1  0.66382750  0.00425050  0.99912100  1
  Cr  Cr54  1  0.66763050  0.00319550  0.50153900  1
  Cr  Cr55  1  0.32872600  0.33309700  0.49884500  1
  Cr  Cr56  1  0.00000000  0.99270800  0.00000000  1
  Cr  Cr57  1  0.66995800  0.33859700  0.99889000  1
  Cr  Cr58  1  0.67127400  0.33309700  0.50115500  1
  Cr  Cr59  1  0.50000000  0.49514600  0.50000000  1
  Cr  Cr60  1  0.33236950  0.00319550  0.49846100  1
  Cr  Cr61  1  0.83617250  0.50425050  0.00087900  1
  Cr  Cr62  1  0.50000000  0.82701300  0.00000000  1
  Cr  Cr63  1  0.83004200  0.83859700  0.00111000  1
  Cr  Cr64  1  0.16382750  0.50425050  0.99912100  1
  Cr  Cr65  1  0.16763050  0.50319550  0.50153900  1
  Cr  Cr66  1  0.82872600  0.83309700  0.49884500  1
  Cr  Cr67  1  0.50000000  0.49270800  0.00000000  1
  Cr  Cr68  1  0.16995800  0.83859700  0.99889000  1
  Cr  Cr69  1  0.17127400  0.83309700  0.50115500  1
  Cr  Cr70  1  0.00000000  0.99514600  0.50000000  1
  Cr  Cr71  1  0.83236950  0.50319550  0.49846100  1
  O  O72  1  0.50347400  0.66569000  0.11488900  1
  O  O73  1  0.84633850  0.34416250  0.88878700  1
  O  O74  1  0.65971900  0.48473200  0.61465200  1
  O  O75  1  0.48689000  0.98816100  0.11385200  1
  O  O76  1  0.49754650  0.66778850  0.38774100  1
  O  O77  1  0.15366150  0.34416250  0.11121300  1
  O  O78  1  0.82898650  0.66437050  0.88619200  1
  O  O79  1  0.51311000  0.98816100  0.88614800  1
  O  O80  1  0.65484300  0.84477300  0.61168500  1
  O  O81  1  0.33848650  0.17045450  0.61575000  1
  O  O82  1  0.32177750  0.48928050  0.11244000  1
  O  O83  1  0.50976450  0.98797650  0.38898200  1
  O  O84  1  0.49062150  0.34839750  0.11328900  1
  O  O85  1  0.17101350  0.66437050  0.11380800  1
  O  O86  1  0.67744050  0.84211150  0.38784600  1
  O  O87  1  0.84143400  0.98304400  0.88760700  1
  O  O88  1  0.66064500  0.17210800  0.88555400  1
  O  O89  1  0.50937850  0.34839750  0.88671100  1
  O  O90  1  0.31894300  0.48749600  0.61257700  1
  O  O91  1  0.66898200  0.16971700  0.61553700  1
  O  O92  1  0.48999750  0.35000250  0.61352500  1
  O  O93  1  0.15856600  0.98304400  0.11239300  1
  O  O94  1  0.66151350  0.17045450  0.38425000  1
  O  O95  1  0.34028100  0.48473200  0.38534800  1
  O  O96  1  0.32184950  0.84775650  0.11152000  1
  O  O97  1  0.51000250  0.35000250  0.38647500  1
  O  O98  1  0.49652600  0.66569000  0.88511100  1
  O  O99  1  0.67822250  0.48928050  0.88756000  1
  O  O100  1  0.32255950  0.84211150  0.61215400  1
  O  O101  1  0.50245350  0.66778850  0.61225900  1
  O  O102  1  0.68105700  0.48749600  0.38742300  1
  O  O103  1  0.33935500  0.17210800  0.11444600  1
  O  O104  1  0.34515700  0.84477300  0.38831500  1
  O  O105  1  0.67815050  0.84775650  0.88848000  1
  O  O106  1  0.49023550  0.98797650  0.61101800  1
  O  O107  1  0.33101800  0.16971700  0.38446300  1
  O  O108  1  0.00347400  0.16569000  0.11488900  1
  O  O109  1  0.34633850  0.84416250  0.88878700  1
  O  O110  1  0.15971900  0.98473200  0.61465200  1
  O  O111  1  0.98689000  0.48816100  0.11385200  1
  O  O112  1  0.99754650  0.16778850  0.38774100  1
  O  O113  1  0.65366150  0.84416250  0.11121300  1
  O  O114  1  0.32898650  0.16437050  0.88619200  1
  O  O115  1  0.01311000  0.48816100  0.88614800  1
  O  O116  1  0.15484300  0.34477300  0.61168500  1
  O  O117  1  0.83848650  0.67045450  0.61575000  1
  O  O118  1  0.82177750  0.98928050  0.11244000  1
  O  O119  1  0.00976450  0.48797650  0.38898200  1
  O  O120  1  0.99062150  0.84839750  0.11328900  1
  O  O121  1  0.67101350  0.16437050  0.11380800  1
  O  O122  1  0.17744050  0.34211150  0.38784600  1
  O  O123  1  0.34143400  0.48304400  0.88760700  1
  O  O124  1  0.16064500  0.67210800  0.88555400  1
  O  O125  1  0.00937850  0.84839750  0.88671100  1
  O  O126  1  0.81894300  0.98749600  0.61257700  1
  O  O127  1  0.16898200  0.66971700  0.61553700  1
  O  O128  1  0.98999750  0.85000250  0.61352500  1
  O  O129  1  0.65856600  0.48304400  0.11239300  1
  O  O130  1  0.16151350  0.67045450  0.38425000  1
  O  O131  1  0.84028100  0.98473200  0.38534800  1
  O  O132  1  0.82184950  0.34775650  0.11152000  1
  O  O133  1  0.01000250  0.85000250  0.38647500  1
  O  O134  1  0.99652600  0.16569000  0.88511100  1
  O  O135  1  0.17822250  0.98928050  0.88756000  1
  O  O136  1  0.82255950  0.34211150  0.61215400  1
  O  O137  1  0.00245350  0.16778850  0.61225900  1
  O  O138  1  0.18105700  0.98749600  0.38742300  1
  O  O139  1  0.83935500  0.67210800  0.11444600  1
  O  O140  1  0.84515700  0.34477300  0.38831500  1
  O  O141  1  0.17815050  0.34775650  0.88848000  1
  O  O142  1  0.99023550  0.48797650  0.61101800  1
  O  O143  1  0.83101800  0.66971700  0.38446300  1
