# generated using pymatgen
data_Na2CdO2
_symmetry_space_group_name_H-M   'P 1'
_cell_length_a   15.38385200
_cell_length_b   10.79901600
_cell_length_c   10.85919831
_cell_angle_alpha   90.00000000
_cell_angle_beta   134.84047534
_cell_angle_gamma   90.00000000
_symmetry_Int_Tables_number   1
_chemical_formula_structural   Na2CdO2
_chemical_formula_sum   'Na32 Cd16 O32'
_cell_volume   1279.19825899
_cell_formula_units_Z   16
loop_
 _symmetry_equiv_pos_site_id
 _symmetry_equiv_pos_as_xyz
  1  'x, y, z'
loop_
 _atom_site_type_symbol
 _atom_site_label
 _atom_site_symmetry_multiplicity
 _atom_site_fract_x
 _atom_site_fract_y
 _atom_site_fract_z
 _atom_site_occupancy
  Na  Na0  1  0.36002600  0.60197700  0.47201100  1
  Na  Na1  1  0.13907750  0.40727750  0.25834400  1
  Na  Na2  1  0.09761050  0.87546750  0.70121600  1
  Na  Na3  1  0.40648600  0.86412400  0.51878800  1
  Na  Na4  1  0.90238950  0.87546750  0.29878400  1
  Na  Na5  1  0.59351400  0.86412400  0.48121200  1
  Na  Na6  1  0.13997400  0.10197700  0.52798900  1
  Na  Na7  1  0.36092250  0.90727750  0.74165600  1
  Na  Na8  1  0.63364400  0.85326300  0.98122000  1
  Na  Na9  1  0.13213150  0.64293750  0.47377200  1
  Na  Na10  1  0.86200100  0.85295400  0.70461000  1
  Na  Na11  1  0.37274500  0.64319200  0.22302400  1
  Na  Na12  1  0.13799900  0.85295400  0.29539000  1
  Na  Na13  1  0.62725500  0.64319200  0.77697600  1
  Na  Na14  1  0.36786850  0.14293750  0.52622800  1
  Na  Na15  1  0.86635600  0.35326300  0.01878000  1
  Na  Na16  1  0.86002600  0.10197700  0.47201100  1
  Na  Na17  1  0.63907750  0.90727750  0.25834400  1
  Na  Na18  1  0.59761050  0.37546750  0.70121600  1
  Na  Na19  1  0.90648600  0.36412400  0.51878800  1
  Na  Na20  1  0.40238950  0.37546750  0.29878400  1
  Na  Na21  1  0.09351400  0.36412400  0.48121200  1
  Na  Na22  1  0.63997400  0.60197700  0.52798900  1
  Na  Na23  1  0.86092250  0.40727750  0.74165600  1
  Na  Na24  1  0.13364400  0.35326300  0.98122000  1
  Na  Na25  1  0.63213150  0.14293750  0.47377200  1
  Na  Na26  1  0.36200100  0.35295400  0.70461000  1
  Na  Na27  1  0.87274500  0.14319200  0.22302400  1
  Na  Na28  1  0.63799900  0.35295400  0.29539000  1
  Na  Na29  1  0.12725500  0.14319200  0.77697600  1
  Na  Na30  1  0.86786850  0.64293750  0.52622800  1
  Na  Na31  1  0.36635600  0.85326300  0.01878000  1
  Cd  Cd32  1  0.86087050  0.90637650  0.98458500  1
  Cd  Cd33  1  0.63303600  0.09853000  0.74919700  1
  Cd  Cd34  1  0.09642950  0.13580550  0.21393600  1
  Cd  Cd35  1  0.89860550  0.62256250  0.00104400  1
  Cd  Cd36  1  0.60139450  0.12256250  0.99895600  1
  Cd  Cd37  1  0.40357050  0.63580550  0.78606400  1
  Cd  Cd38  1  0.86696400  0.59853000  0.25080300  1
  Cd  Cd39  1  0.63912950  0.40637650  0.01541500  1
  Cd  Cd40  1  0.36087050  0.40637650  0.98458500  1
  Cd  Cd41  1  0.13303600  0.59853000  0.74919700  1
  Cd  Cd42  1  0.59642950  0.63580550  0.21393600  1
  Cd  Cd43  1  0.39860550  0.12256250  0.00104400  1
  Cd  Cd44  1  0.10139450  0.62256250  0.99895600  1
  Cd  Cd45  1  0.90357050  0.13580550  0.78606400  1
  Cd  Cd46  1  0.36696400  0.09853000  0.25080300  1
  Cd  Cd47  1  0.13912950  0.90637650  0.01541500  1
  O  O48  1  0.28864350  0.74787450  0.54453800  1
  O  O49  1  0.00083050  0.99859950  0.76190800  1
  O  O50  1  0.00000000  0.27052500  0.00000000  1
  O  O51  1  0.50000000  0.71682300  0.50000000  1
  O  O52  1  0.24431400  0.50188100  0.20926600  1
  O  O53  1  0.25551500  0.50300900  0.73429400  1
  O  O54  1  0.21135650  0.24787450  0.45546200  1
  O  O55  1  0.99916950  0.99859950  0.23809200  1
  O  O56  1  0.79363150  0.74869650  0.03997600  1
  O  O57  1  0.99266200  0.50696100  0.24222300  1
  O  O58  1  0.50733800  0.00696100  0.75777700  1
  O  O59  1  0.24448500  0.00300900  0.26570600  1
  O  O60  1  0.25568600  0.00188100  0.79073400  1
  O  O61  1  0.00000000  0.71210900  0.50000000  1
  O  O62  1  0.00000000  0.77756200  0.00000000  1
  O  O63  1  0.70636850  0.24869650  0.96002400  1
  O  O64  1  0.78864350  0.24787450  0.54453800  1
  O  O65  1  0.50083050  0.49859950  0.76190800  1
  O  O66  1  0.50000000  0.77052500  0.00000000  1
  O  O67  1  0.00000000  0.21682300  0.50000000  1
  O  O68  1  0.74431400  0.00188100  0.20926600  1
  O  O69  1  0.75551500  0.00300900  0.73429400  1
  O  O70  1  0.71135650  0.74787450  0.45546200  1
  O  O71  1  0.49916950  0.49859950  0.23809200  1
  O  O72  1  0.29363150  0.24869650  0.03997600  1
  O  O73  1  0.49266200  0.00696100  0.24222300  1
  O  O74  1  0.00733800  0.50696100  0.75777700  1
  O  O75  1  0.74448500  0.50300900  0.26570600  1
  O  O76  1  0.75568600  0.50188100  0.79073400  1
  O  O77  1  0.50000000  0.21210900  0.50000000  1
  O  O78  1  0.50000000  0.27756200  0.00000000  1
  O  O79  1  0.20636850  0.74869650  0.96002400  1
