# generated using pymatgen
data_Li4Nb5Cr3O16
_symmetry_space_group_name_H-M   'P 1'
_cell_length_a   10.70711600
_cell_length_b   6.06868200
_cell_length_c   10.08991031
_cell_angle_alpha   90.00000000
_cell_angle_beta   90.57512471
_cell_angle_gamma   90.00000000
_symmetry_Int_Tables_number   1
_chemical_formula_structural   Li4Nb5Cr3O16
_chemical_formula_sum   'Li8 Nb10 Cr6 O32'
_cell_volume   655.58999191
_cell_formula_units_Z   2
loop_
 _symmetry_equiv_pos_site_id
 _symmetry_equiv_pos_as_xyz
  1  'x, y, z'
loop_
 _atom_site_type_symbol
 _atom_site_label
 _atom_site_symmetry_multiplicity
 _atom_site_fract_x
 _atom_site_fract_y
 _atom_site_fract_z
 _atom_site_occupancy
  Li  Li0  1  0.67223400  0.00000000  0.09024200  1
  Li  Li1  1  0.50617900  0.50000000  0.01133400  1
  Li  Li2  1  0.99793300  0.00000000  0.50934900  1
  Li  Li3  1  0.83572500  0.50000000  0.60537200  1
  Li  Li4  1  0.17223400  0.50000000  0.09024200  1
  Li  Li5  1  0.00617900  0.00000000  0.01133400  1
  Li  Li6  1  0.49793300  0.50000000  0.50934900  1
  Li  Li7  1  0.33572500  0.00000000  0.60537200  1
  Nb  Nb8  1  0.65479600  0.00000000  0.50789700  1
  Nb  Nb9  1  0.82911900  0.00000000  0.77565700  1
  Nb  Nb10  1  0.83260000  0.50000000  0.00056300  1
  Nb  Nb11  1  0.90771550  0.27762350  0.28434600  1
  Nb  Nb12  1  0.90771550  0.72237650  0.28434600  1
  Nb  Nb13  1  0.15479600  0.50000000  0.50789700  1
  Nb  Nb14  1  0.32911900  0.50000000  0.77565700  1
  Nb  Nb15  1  0.33260000  0.00000000  0.00056300  1
  Nb  Nb16  1  0.40771550  0.77762350  0.28434600  1
  Nb  Nb17  1  0.40771550  0.22237650  0.28434600  1
  Cr  Cr18  1  0.58474150  0.75380250  0.78963400  1
  Cr  Cr19  1  0.58474150  0.24619750  0.78963400  1
  Cr  Cr20  1  0.66356900  0.50000000  0.29054900  1
  Cr  Cr21  1  0.08474150  0.25380250  0.78963400  1
  Cr  Cr22  1  0.08474150  0.74619750  0.78963400  1
  Cr  Cr23  1  0.16356900  0.00000000  0.29054900  1
  O  O24  1  0.57507150  0.75856050  0.40974800  1
  O  O25  1  0.52748900  0.00000000  0.64175900  1
  O  O26  1  0.67521100  0.00000000  0.89133800  1
  O  O27  1  0.99931000  0.00000000  0.69418300  1
  O  O28  1  0.99950900  0.00000000  0.19567300  1
  O  O29  1  0.57507150  0.24143950  0.40974800  1
  O  O30  1  0.74869600  0.77987800  0.65907900  1
  O  O31  1  0.74869600  0.22012200  0.65907900  1
  O  O32  1  0.67339900  0.50000000  0.91818000  1
  O  O33  1  0.82975700  0.00000000  0.40829500  1
  O  O34  1  0.77092800  0.27536700  0.15232900  1
  O  O35  1  0.77092800  0.72463300  0.15232900  1
  O  O36  1  0.81840000  0.50000000  0.41193600  1
  O  O37  1  0.91165800  0.24625500  0.90189100  1
  O  O38  1  0.99110600  0.50000000  0.14590100  1
  O  O39  1  0.91165800  0.75374500  0.90189100  1
  O  O40  1  0.07507150  0.25856050  0.40974800  1
  O  O41  1  0.02748900  0.50000000  0.64175900  1
  O  O42  1  0.17521100  0.50000000  0.89133800  1
  O  O43  1  0.49931000  0.50000000  0.69418300  1
  O  O44  1  0.49950900  0.50000000  0.19567300  1
  O  O45  1  0.07507150  0.74143950  0.40974800  1
  O  O46  1  0.24869600  0.27987800  0.65907900  1
  O  O47  1  0.24869600  0.72012200  0.65907900  1
  O  O48  1  0.17339900  0.00000000  0.91818000  1
  O  O49  1  0.32975700  0.50000000  0.40829500  1
  O  O50  1  0.27092800  0.77536700  0.15232900  1
  O  O51  1  0.27092800  0.22463300  0.15232900  1
  O  O52  1  0.31840000  0.00000000  0.41193600  1
  O  O53  1  0.41165800  0.74625500  0.90189100  1
  O  O54  1  0.49110600  0.00000000  0.14590100  1
  O  O55  1  0.41165800  0.25374500  0.90189100  1
