# generated using pymatgen
data_Li4Co(PO4)2
_symmetry_space_group_name_H-M   'P 1'
_cell_length_a   4.83498668
_cell_length_b   5.32682146
_cell_length_c   6.21940092
_cell_angle_alpha   96.21656087
_cell_angle_beta   94.27582079
_cell_angle_gamma   99.36958592
_symmetry_Int_Tables_number   1
_chemical_formula_structural   Li4Co(PO4)2
_chemical_formula_sum   'Li4 Co1 P2 O8'
_cell_volume   156.41951564
_cell_formula_units_Z   1
loop_
 _symmetry_equiv_pos_site_id
 _symmetry_equiv_pos_as_xyz
  1  'x, y, z'
loop_
 _atom_site_type_symbol
 _atom_site_label
 _atom_site_symmetry_multiplicity
 _atom_site_fract_x
 _atom_site_fract_y
 _atom_site_fract_z
 _atom_site_occupancy
  Li  Li0  1  0.17338150  0.29032200  0.52539450  1
  Li  Li1  1  0.82661850  0.70967800  0.47460550  1
  Li  Li2  1  0.26140700  0.56220000  0.18579900  1
  Li  Li3  1  0.73859300  0.43780000  0.81420100  1
  Co  Co4  1  0.00000000  0.00000000  0.00000000  1
  P  P5  1  0.35501700  0.81754100  0.72762300  1
  P  P6  1  0.64498300  0.18245900  0.27237700  1
  O  O7  1  0.19548450  0.67822050  0.90432050  1
  O  O8  1  0.80451550  0.32177950  0.09567950  1
  O  O9  1  0.24273000  0.67525450  0.50021300  1
  O  O10  1  0.75727000  0.32474550  0.49978700  1
  O  O11  1  0.32338200  0.19009000  0.23844300  1
  O  O12  1  0.67661800  0.80991000  0.76155700  1
  O  O13  1  0.28339900  0.09363700  0.75431800  1
  O  O14  1  0.71660100  0.90636300  0.24568200  1
