# generated using pymatgen
data_PH4NO3
_symmetry_space_group_name_H-M   'P 1'
_cell_length_a   10.57201800
_cell_length_b   10.93001000
_cell_length_c   12.76868700
_cell_angle_alpha   90.00000000
_cell_angle_beta   90.00000000
_cell_angle_gamma   90.00000000
_symmetry_Int_Tables_number   1
_chemical_formula_structural   PH4NO3
_chemical_formula_sum   'P16 H64 N16 O48'
_cell_volume   1475.45067150
_cell_formula_units_Z   16
loop_
 _symmetry_equiv_pos_site_id
 _symmetry_equiv_pos_as_xyz
  1  'x, y, z'
loop_
 _atom_site_type_symbol
 _atom_site_label
 _atom_site_symmetry_multiplicity
 _atom_site_fract_x
 _atom_site_fract_y
 _atom_site_fract_z
 _atom_site_occupancy
  P  P0  1  0.50000000  0.96649100  0.65027200  1
  P  P1  1  0.50000000  0.03350900  0.34972800  1
  P  P2  1  0.50000000  0.53350900  0.15027200  1
  P  P3  1  0.50000000  0.46649100  0.84972800  1
  P  P4  1  0.28873300  0.00000000  0.50000000  1
  P  P5  1  0.78873300  0.00000000  0.00000000  1
  P  P6  1  0.71126700  0.00000000  0.50000000  1
  P  P7  1  0.21126700  0.00000000  0.00000000  1
  P  P8  1  0.00000000  0.46649100  0.65027200  1
  P  P9  1  0.00000000  0.53350900  0.34972800  1
  P  P10  1  0.00000000  0.03350900  0.15027200  1
  P  P11  1  0.00000000  0.96649100  0.84972800  1
  P  P12  1  0.78873300  0.50000000  0.50000000  1
  P  P13  1  0.28873300  0.50000000  0.00000000  1
  P  P14  1  0.21126700  0.50000000  0.50000000  1
  P  P15  1  0.71126700  0.50000000  0.00000000  1
  H  H16  1  0.50000000  0.62609300  0.38767300  1
  H  H17  1  0.50000000  0.37390700  0.61232700  1
  H  H18  1  0.50000000  0.87390700  0.88767300  1
  H  H19  1  0.50000000  0.12609300  0.11232700  1
  H  H20  1  0.50000000  0.76756100  0.43324000  1
  H  H21  1  0.50000000  0.23243900  0.56676000  1
  H  H22  1  0.50000000  0.73243900  0.93324000  1
  H  H23  1  0.50000000  0.26756100  0.06676000  1
  H  H24  1  0.41899550  0.65507450  0.49997100  1
  H  H25  1  0.41899550  0.34492550  0.50002900  1
  H  H26  1  0.41899550  0.84492550  0.99997100  1
  H  H27  1  0.41899550  0.15507450  0.00002900  1
  H  H28  1  0.58100450  0.34492550  0.50002900  1
  H  H29  1  0.58100450  0.65507450  0.49997100  1
  H  H30  1  0.58100450  0.15507450  0.00002900  1
  H  H31  1  0.58100450  0.84492550  0.99997100  1
  H  H32  1  0.66931450  0.27863050  0.74858100  1
  H  H33  1  0.66931450  0.72136950  0.25141900  1
  H  H34  1  0.66931450  0.22136950  0.24858100  1
  H  H35  1  0.66931450  0.77863050  0.75141900  1
  H  H36  1  0.33068550  0.72136950  0.25141900  1
  H  H37  1  0.33068550  0.27863050  0.74858100  1
  H  H38  1  0.33068550  0.77863050  0.75141900  1
  H  H39  1  0.33068550  0.22136950  0.24858100  1
  H  H40  1  0.75343300  0.17011200  0.68265400  1
  H  H41  1  0.75343300  0.82988800  0.31734600  1
  H  H42  1  0.25343300  0.82988800  0.18265400  1
  H  H43  1  0.25343300  0.17011200  0.81734600  1
  H  H44  1  0.24656700  0.82988800  0.31734600  1
  H  H45  1  0.24656700  0.17011200  0.68265400  1
  H  H46  1  0.74656700  0.17011200  0.81734600  1
  H  H47  1  0.74656700  0.82988800  0.18265400  1
  H  H48  1  0.00000000  0.12609300  0.38767300  1
  H  H49  1  0.00000000  0.87390700  0.61232700  1
  H  H50  1  0.00000000  0.37390700  0.88767300  1
  H  H51  1  0.00000000  0.62609300  0.11232700  1
  H  H52  1  0.00000000  0.26756100  0.43324000  1
  H  H53  1  0.00000000  0.73243900  0.56676000  1
  H  H54  1  0.00000000  0.23243900  0.93324000  1
  H  H55  1  0.00000000  0.76756100  0.06676000  1
  H  H56  1  0.91899550  0.15507450  0.49997100  1
  H  H57  1  0.91899550  0.84492550  0.50002900  1
  H  H58  1  0.91899550  0.34492550  0.99997100  1
  H  H59  1  0.91899550  0.65507450  0.00002900  1
  H  H60  1  0.08100450  0.84492550  0.50002900  1
  H  H61  1  0.08100450  0.15507450  0.49997100  1
  H  H62  1  0.08100450  0.65507450  0.00002900  1
  H  H63  1  0.08100450  0.34492550  0.99997100  1
  H  H64  1  0.16931450  0.77863050  0.74858100  1
  H  H65  1  0.16931450  0.22136950  0.25141900  1
  H  H66  1  0.16931450  0.72136950  0.24858100  1
  H  H67  1  0.16931450  0.27863050  0.75141900  1
  H  H68  1  0.83068550  0.22136950  0.25141900  1
  H  H69  1  0.83068550  0.77863050  0.74858100  1
  H  H70  1  0.83068550  0.27863050  0.75141900  1
  H  H71  1  0.83068550  0.72136950  0.24858100  1
  H  H72  1  0.25343300  0.67011200  0.68265400  1
  H  H73  1  0.25343300  0.32988800  0.31734600  1
  H  H74  1  0.75343300  0.32988800  0.18265400  1
  H  H75  1  0.75343300  0.67011200  0.81734600  1
  H  H76  1  0.74656700  0.32988800  0.31734600  1
  H  H77  1  0.74656700  0.67011200  0.68265400  1
  H  H78  1  0.24656700  0.67011200  0.81734600  1
  H  H79  1  0.24656700  0.32988800  0.18265400  1
  N  N80  1  0.75000000  0.22501100  0.75000000  1
  N  N81  1  0.75000000  0.77498900  0.25000000  1
  N  N82  1  0.25000000  0.77498900  0.25000000  1
  N  N83  1  0.25000000  0.22501100  0.75000000  1
  N  N84  1  0.50000000  0.67646600  0.45661900  1
  N  N85  1  0.50000000  0.32353400  0.54338100  1
  N  N86  1  0.50000000  0.82353400  0.95661900  1
  N  N87  1  0.50000000  0.17646600  0.04338100  1
  N  N88  1  0.25000000  0.72501100  0.75000000  1
  N  N89  1  0.25000000  0.27498900  0.25000000  1
  N  N90  1  0.75000000  0.27498900  0.25000000  1
  N  N91  1  0.75000000  0.72501100  0.75000000  1
  N  N92  1  0.00000000  0.17646600  0.45661900  1
  N  N93  1  0.00000000  0.82353400  0.54338100  1
  N  N94  1  0.00000000  0.32353400  0.95661900  1
  N  N95  1  0.00000000  0.67646600  0.04338100  1
  O  O96  1  0.50000000  0.10239900  0.66285000  1
  O  O97  1  0.50000000  0.89760100  0.33715000  1
  O  O98  1  0.50000000  0.39760100  0.16285000  1
  O  O99  1  0.50000000  0.60239900  0.83715000  1
  O  O100  1  0.50000000  0.87997900  0.74157200  1
  O  O101  1  0.50000000  0.12002100  0.25842800  1
  O  O102  1  0.50000000  0.62002100  0.24157200  1
  O  O103  1  0.50000000  0.37997900  0.75842800  1
  O  O104  1  0.21587900  0.09206000  0.56342800  1
  O  O105  1  0.21587900  0.90794000  0.43657200  1
  O  O106  1  0.71587900  0.90794000  0.06342800  1
  O  O107  1  0.71587900  0.09206000  0.93657200  1
  O  O108  1  0.78412100  0.90794000  0.43657200  1
  O  O109  1  0.78412100  0.09206000  0.56342800  1
  O  O110  1  0.28412100  0.09206000  0.93657200  1
  O  O111  1  0.28412100  0.90794000  0.06342800  1
  O  O112  1  0.38217650  0.92191550  0.57564600  1
  O  O113  1  0.38217650  0.07808450  0.42435400  1
  O  O114  1  0.88217650  0.07808450  0.07564600  1
  O  O115  1  0.88217650  0.92191550  0.92435400  1
  O  O116  1  0.61782350  0.07808450  0.42435400  1
  O  O117  1  0.61782350  0.92191550  0.57564600  1
  O  O118  1  0.11782350  0.92191550  0.92435400  1
  O  O119  1  0.11782350  0.07808450  0.07564600  1
  O  O120  1  0.00000000  0.60239900  0.66285000  1
  O  O121  1  0.00000000  0.39760100  0.33715000  1
  O  O122  1  0.00000000  0.89760100  0.16285000  1
  O  O123  1  0.00000000  0.10239900  0.83715000  1
  O  O124  1  0.00000000  0.37997900  0.74157200  1
  O  O125  1  0.00000000  0.62002100  0.25842800  1
  O  O126  1  0.00000000  0.12002100  0.24157200  1
  O  O127  1  0.00000000  0.87997900  0.75842800  1
  O  O128  1  0.71587900  0.59206000  0.56342800  1
  O  O129  1  0.71587900  0.40794000  0.43657200  1
  O  O130  1  0.21587900  0.40794000  0.06342800  1
  O  O131  1  0.21587900  0.59206000  0.93657200  1
  O  O132  1  0.28412100  0.40794000  0.43657200  1
  O  O133  1  0.28412100  0.59206000  0.56342800  1
  O  O134  1  0.78412100  0.59206000  0.93657200  1
  O  O135  1  0.78412100  0.40794000  0.06342800  1
  O  O136  1  0.88217650  0.42191550  0.57564600  1
  O  O137  1  0.88217650  0.57808450  0.42435400  1
  O  O138  1  0.38217650  0.57808450  0.07564600  1
  O  O139  1  0.38217650  0.42191550  0.92435400  1
  O  O140  1  0.11782350  0.57808450  0.42435400  1
  O  O141  1  0.11782350  0.42191550  0.57564600  1
  O  O142  1  0.61782350  0.42191550  0.92435400  1
  O  O143  1  0.61782350  0.57808450  0.07564600  1
