# generated using pymatgen
data_ReAgO4
_symmetry_space_group_name_H-M   'P 1'
_cell_length_a   5.54618600
_cell_length_b   5.54618600
_cell_length_c   11.70359200
_cell_angle_alpha   90.00000000
_cell_angle_beta   90.00000000
_cell_angle_gamma   90.00000000
_symmetry_Int_Tables_number   1
_chemical_formula_structural   ReAgO4
_chemical_formula_sum   'Re4 Ag4 O16'
_cell_volume   360.00458658
_cell_formula_units_Z   4
loop_
 _symmetry_equiv_pos_site_id
 _symmetry_equiv_pos_as_xyz
  1  'x, y, z'
loop_
 _atom_site_type_symbol
 _atom_site_label
 _atom_site_symmetry_multiplicity
 _atom_site_fract_x
 _atom_site_fract_y
 _atom_site_fract_z
 _atom_site_occupancy
  Re  Re0  1  0.50000000  0.50000000  0.00000000  1
  Re  Re1  1  0.50000000  0.00000000  0.25000000  1
  Re  Re2  1  0.00000000  0.00000000  0.50000000  1
  Re  Re3  1  0.00000000  0.50000000  0.75000000  1
  Ag  Ag4  1  0.00000000  0.50000000  0.25000000  1
  Ag  Ag5  1  0.00000000  0.00000000  0.00000000  1
  Ag  Ag6  1  0.50000000  0.00000000  0.75000000  1
  Ag  Ag7  1  0.50000000  0.50000000  0.50000000  1
  O  O8  1  0.12791700  0.22815800  0.41428500  1
  O  O9  1  0.72815800  0.87208300  0.16428500  1
  O  O10  1  0.27184200  0.12791700  0.16428500  1
  O  O11  1  0.87208300  0.77184200  0.41428500  1
  O  O12  1  0.62791700  0.22815800  0.33571500  1
  O  O13  1  0.72815800  0.37208300  0.08571500  1
  O  O14  1  0.27184200  0.62791700  0.08571500  1
  O  O15  1  0.37208300  0.77184200  0.33571500  1
  O  O16  1  0.62791700  0.72815800  0.91428500  1
  O  O17  1  0.22815800  0.37208300  0.66428500  1
  O  O18  1  0.77184200  0.62791700  0.66428500  1
  O  O19  1  0.37208300  0.27184200  0.91428500  1
  O  O20  1  0.12791700  0.72815800  0.83571500  1
  O  O21  1  0.22815800  0.87208300  0.58571500  1
  O  O22  1  0.77184200  0.12791700  0.58571500  1
  O  O23  1  0.87208300  0.27184200  0.83571500  1
