# generated using pymatgen
data_MnFe(PO4)2
_symmetry_space_group_name_H-M   'P 1'
_cell_length_a   4.88929300
_cell_length_b   5.97409600
_cell_length_c   9.92175400
_cell_angle_alpha   90.00000000
_cell_angle_beta   90.00000000
_cell_angle_gamma   90.00000000
_symmetry_Int_Tables_number   1
_chemical_formula_structural   MnFe(PO4)2
_chemical_formula_sum   'Mn2 Fe2 P4 O16'
_cell_volume   289.80556186
_cell_formula_units_Z   2
loop_
 _symmetry_equiv_pos_site_id
 _symmetry_equiv_pos_as_xyz
  1  'x, y, z'
loop_
 _atom_site_type_symbol
 _atom_site_label
 _atom_site_symmetry_multiplicity
 _atom_site_fract_x
 _atom_site_fract_y
 _atom_site_fract_z
 _atom_site_occupancy
  Mn  Mn0  1  0.68275500  0.00000000  0.71698300  1
  Mn  Mn1  1  0.31724500  0.00000000  0.21698300  1
  Fe  Fe2  1  0.79221800  0.50000000  0.27812600  1
  Fe  Fe3  1  0.20778200  0.50000000  0.77812600  1
  P  P4  1  0.33973200  0.50000000  0.09781300  1
  P  P5  1  0.66026800  0.50000000  0.59781300  1
  P  P6  1  0.83519700  0.00000000  0.40020100  1
  P  P7  1  0.16480300  0.00000000  0.90020100  1
  O  O8  1  0.10905500  0.00000000  0.05327800  1
  O  O9  1  0.89094500  0.00000000  0.55327800  1
  O  O10  1  0.03246300  0.50000000  0.12203800  1
  O  O11  1  0.96753700  0.50000000  0.62203800  1
  O  O12  1  0.52078400  0.00000000  0.37971100  1
  O  O13  1  0.47921600  0.00000000  0.87971100  1
  O  O14  1  0.59322100  0.50000000  0.44783300  1
  O  O15  1  0.40677900  0.50000000  0.94783300  1
  O  O16  1  0.48945600  0.69961900  0.17222300  1
  O  O17  1  0.48945600  0.30038100  0.17222300  1
  O  O18  1  0.51054400  0.69961900  0.67222300  1
  O  O19  1  0.51054400  0.30038100  0.67222300  1
  O  O20  1  0.97616200  0.20370900  0.32962900  1
  O  O21  1  0.97616200  0.79629100  0.32962900  1
  O  O22  1  0.02383800  0.20370900  0.82962900  1
  O  O23  1  0.02383800  0.79629100  0.82962900  1
