# generated using pymatgen
data_BaNb3NO7
_symmetry_space_group_name_H-M   'P 1'
_cell_length_a   21.15739000
_cell_length_b   3.89541000
_cell_length_c   9.11065692
_cell_angle_alpha   90.00000000
_cell_angle_beta   90.67269236
_cell_angle_gamma   90.00000000
_symmetry_Int_Tables_number   1
_chemical_formula_structural   BaNb3NO7
_chemical_formula_sum   'Ba4 Nb12 N4 O28'
_cell_volume   750.81860525
_cell_formula_units_Z   4
loop_
 _symmetry_equiv_pos_site_id
 _symmetry_equiv_pos_as_xyz
  1  'x, y, z'
loop_
 _atom_site_type_symbol
 _atom_site_label
 _atom_site_symmetry_multiplicity
 _atom_site_fract_x
 _atom_site_fract_y
 _atom_site_fract_z
 _atom_site_occupancy
  Ba  Ba0  1  0.51314500  0.50000000  0.75283900  1
  Ba  Ba1  1  0.97873300  0.00000000  0.24803300  1
  Ba  Ba2  1  0.01314500  0.00000000  0.75283900  1
  Ba  Ba3  1  0.47873300  0.50000000  0.24803300  1
  Nb  Nb4  1  0.85952400  0.50000000  0.95245900  1
  Nb  Nb5  1  0.75571600  0.00000000  0.75458100  1
  Nb  Nb6  1  0.86468300  0.50000000  0.56043900  1
  Nb  Nb7  1  0.63062800  0.00000000  0.43629500  1
  Nb  Nb8  1  0.73736500  0.50000000  0.24935200  1
  Nb  Nb9  1  0.63044700  0.00000000  0.07107800  1
  Nb  Nb10  1  0.35952400  0.00000000  0.95245900  1
  Nb  Nb11  1  0.25571600  0.50000000  0.75458100  1
  Nb  Nb12  1  0.36468300  0.00000000  0.56043900  1
  Nb  Nb13  1  0.13062800  0.50000000  0.43629500  1
  Nb  Nb14  1  0.23736500  0.00000000  0.24935200  1
  Nb  Nb15  1  0.13044700  0.50000000  0.07107800  1
  N  N16  1  0.70253200  0.00000000  0.25321500  1
  N  N17  1  0.79483600  0.50000000  0.09520400  1
  N  N18  1  0.20253200  0.50000000  0.25321500  1
  N  N19  1  0.29483600  0.00000000  0.09520400  1
  O  O20  1  0.56321400  0.00000000  0.93660900  1
  O  O21  1  0.84256800  0.00000000  0.89948300  1
  O  O22  1  0.69945000  0.00000000  0.90517900  1
  O  O23  1  0.78299100  0.50000000  0.74932300  1
  O  O24  1  0.91626100  0.50000000  0.74362100  1
  O  O25  1  0.69888400  0.00000000  0.59764900  1
  O  O26  1  0.84239800  0.00000000  0.59316800  1
  O  O27  1  0.56258300  0.00000000  0.56317600  1
  O  O28  1  0.92929100  0.50000000  0.42954600  1
  O  O29  1  0.64514300  0.50000000  0.41454600  1
  O  O30  1  0.79170000  0.50000000  0.41515900  1
  O  O31  1  0.57254700  0.00000000  0.24814300  1
  O  O32  1  0.64846000  0.50000000  0.08700900  1
  O  O33  1  0.93205400  0.50000000  0.06919900  1
  O  O34  1  0.06321400  0.50000000  0.93660900  1
  O  O35  1  0.34256800  0.50000000  0.89948300  1
  O  O36  1  0.19945000  0.50000000  0.90517900  1
  O  O37  1  0.28299100  0.00000000  0.74932300  1
  O  O38  1  0.41626100  0.00000000  0.74362100  1
  O  O39  1  0.19888400  0.50000000  0.59764900  1
  O  O40  1  0.34239800  0.50000000  0.59316800  1
  O  O41  1  0.06258300  0.50000000  0.56317600  1
  O  O42  1  0.42929100  0.00000000  0.42954600  1
  O  O43  1  0.14514300  0.00000000  0.41454600  1
  O  O44  1  0.29170000  0.00000000  0.41515900  1
  O  O45  1  0.07254700  0.50000000  0.24814300  1
  O  O46  1  0.14846000  0.00000000  0.08700900  1
  O  O47  1  0.43205400  0.00000000  0.06919900  1
