# generated using pymatgen
data_Sr3GeO5
_symmetry_space_group_name_H-M   'P 1'
_cell_length_a   6.97948800
_cell_length_b   6.97948800
_cell_length_c   11.35273600
_cell_angle_alpha   90.00000000
_cell_angle_beta   90.00000000
_cell_angle_gamma   90.00000000
_symmetry_Int_Tables_number   1
_chemical_formula_structural   Sr3GeO5
_chemical_formula_sum   'Sr12 Ge4 O20'
_cell_volume   553.02869808
_cell_formula_units_Z   4
loop_
 _symmetry_equiv_pos_site_id
 _symmetry_equiv_pos_as_xyz
  1  'x, y, z'
loop_
 _atom_site_type_symbol
 _atom_site_label
 _atom_site_symmetry_multiplicity
 _atom_site_fract_x
 _atom_site_fract_y
 _atom_site_fract_z
 _atom_site_occupancy
  Sr  Sr0  1  0.50000000  0.50000000  0.00533800  1
  Sr  Sr1  1  0.00000000  0.00000000  0.00533800  1
  Sr  Sr2  1  0.31762400  0.81762400  0.25110100  1
  Sr  Sr3  1  0.18237600  0.31762400  0.25110100  1
  Sr  Sr4  1  0.68237600  0.18237600  0.25110100  1
  Sr  Sr5  1  0.81762400  0.68237600  0.25110100  1
  Sr  Sr6  1  0.00000000  0.00000000  0.50533800  1
  Sr  Sr7  1  0.50000000  0.50000000  0.50533800  1
  Sr  Sr8  1  0.81762400  0.31762400  0.75110100  1
  Sr  Sr9  1  0.68237600  0.81762400  0.75110100  1
  Sr  Sr10  1  0.18237600  0.68237600  0.75110100  1
  Sr  Sr11  1  0.31762400  0.18237600  0.75110100  1
  Ge  Ge12  1  0.50000000  0.00000000  0.49953600  1
  Ge  Ge13  1  0.00000000  0.50000000  0.49953600  1
  Ge  Ge14  1  0.00000000  0.50000000  0.99953600  1
  Ge  Ge15  1  0.50000000  0.00000000  0.99953600  1
  O  O16  1  0.00000000  0.00000000  0.24282900  1
  O  O17  1  0.50000000  0.50000000  0.24282900  1
  O  O18  1  0.85902050  0.35902050  0.09595450  1
  O  O19  1  0.64097950  0.85902050  0.09595450  1
  O  O20  1  0.85924800  0.35924800  0.40083800  1
  O  O21  1  0.64075200  0.85924800  0.40083800  1
  O  O22  1  0.14097950  0.64097950  0.09595450  1
  O  O23  1  0.35902050  0.14097950  0.09595450  1
  O  O24  1  0.14075200  0.64075200  0.40083800  1
  O  O25  1  0.35924800  0.14075200  0.40083800  1
  O  O26  1  0.50000000  0.50000000  0.74282900  1
  O  O27  1  0.00000000  0.00000000  0.74282900  1
  O  O28  1  0.35902050  0.85902050  0.59595450  1
  O  O29  1  0.14097950  0.35902050  0.59595450  1
  O  O30  1  0.35924800  0.85924800  0.90083800  1
  O  O31  1  0.14075200  0.35924800  0.90083800  1
  O  O32  1  0.64097950  0.14097950  0.59595450  1
  O  O33  1  0.85902050  0.64097950  0.59595450  1
  O  O34  1  0.64075200  0.14075200  0.90083800  1
  O  O35  1  0.85924800  0.64075200  0.90083800  1
