# generated using pymatgen
data_Li4V3Fe5O16
_symmetry_space_group_name_H-M   'P 1'
_cell_length_a   10.24364600
_cell_length_b   5.94985800
_cell_length_c   9.58991967
_cell_angle_alpha   90.00000000
_cell_angle_beta   91.26078077
_cell_angle_gamma   90.00000000
_symmetry_Int_Tables_number   1
_chemical_formula_structural   Li4V3Fe5O16
_chemical_formula_sum   'Li8 V6 Fe10 O32'
_cell_volume   584.34721532
_cell_formula_units_Z   2
loop_
 _symmetry_equiv_pos_site_id
 _symmetry_equiv_pos_as_xyz
  1  'x, y, z'
loop_
 _atom_site_type_symbol
 _atom_site_label
 _atom_site_symmetry_multiplicity
 _atom_site_fract_x
 _atom_site_fract_y
 _atom_site_fract_z
 _atom_site_occupancy
  Li  Li0  1  0.33412600  0.00000000  0.89199700  1
  Li  Li1  1  0.00038700  0.00000000  0.99682800  1
  Li  Li2  1  0.00404200  0.00000000  0.49568200  1
  Li  Li3  1  0.66226400  0.00000000  0.39485200  1
  Li  Li4  1  0.83412600  0.50000000  0.89199700  1
  Li  Li5  1  0.50038700  0.50000000  0.99682800  1
  Li  Li6  1  0.50404200  0.50000000  0.49568200  1
  Li  Li7  1  0.16226400  0.50000000  0.39485200  1
  V  V8  1  0.17119700  0.00000000  0.21436000  1
  V  V9  1  0.58706450  0.75170750  0.71493500  1
  V  V10  1  0.58706450  0.24829250  0.71493500  1
  V  V11  1  0.67119700  0.50000000  0.21436000  1
  V  V12  1  0.08706450  0.25170750  0.71493500  1
  V  V13  1  0.08706450  0.74829250  0.71493500  1
  Fe  Fe14  1  0.41539550  0.75303550  0.21469200  1
  Fe  Fe15  1  0.33626600  0.00000000  0.49068300  1
  Fe  Fe16  1  0.41539550  0.24696450  0.21469200  1
  Fe  Fe17  1  0.83193100  0.00000000  0.71225200  1
  Fe  Fe18  1  0.66937300  0.00000000  0.99111400  1
  Fe  Fe19  1  0.91539550  0.25303550  0.21469200  1
  Fe  Fe20  1  0.83626600  0.50000000  0.49068300  1
  Fe  Fe21  1  0.91539550  0.74696450  0.21469200  1
  Fe  Fe22  1  0.33193100  0.50000000  0.71225200  1
  Fe  Fe23  1  0.16937300  0.50000000  0.99111400  1
  O  O24  1  0.42635050  0.74585550  0.60089900  1
  O  O25  1  0.47835600  0.00000000  0.33960400  1
  O  O26  1  0.32130200  0.00000000  0.10337100  1
  O  O27  1  0.00937900  0.00000000  0.30981200  1
  O  O28  1  0.00436600  0.00000000  0.81101400  1
  O  O29  1  0.42635050  0.25414450  0.60089900  1
  O  O30  1  0.25162150  0.78482550  0.33642600  1
  O  O31  1  0.25162150  0.21517450  0.33642600  1
  O  O32  1  0.83895300  0.00000000  0.09844900  1
  O  O33  1  0.16705700  0.00000000  0.60427200  1
  O  O34  1  0.73572100  0.77370000  0.83581300  1
  O  O35  1  0.73572100  0.22630000  0.83581300  1
  O  O36  1  0.66198000  0.00000000  0.60324600  1
  O  O37  1  0.59023750  0.73781250  0.10339100  1
  O  O38  1  0.52052300  0.00000000  0.83810900  1
  O  O39  1  0.59023750  0.26218750  0.10339100  1
  O  O40  1  0.92635050  0.24585550  0.60089900  1
  O  O41  1  0.97835600  0.50000000  0.33960400  1
  O  O42  1  0.82130200  0.50000000  0.10337100  1
  O  O43  1  0.50937900  0.50000000  0.30981200  1
  O  O44  1  0.50436600  0.50000000  0.81101400  1
  O  O45  1  0.92635050  0.75414450  0.60089900  1
  O  O46  1  0.75162150  0.28482550  0.33642600  1
  O  O47  1  0.75162150  0.71517450  0.33642600  1
  O  O48  1  0.33895300  0.50000000  0.09844900  1
  O  O49  1  0.66705700  0.50000000  0.60427200  1
  O  O50  1  0.23572100  0.27370000  0.83581300  1
  O  O51  1  0.23572100  0.72630000  0.83581300  1
  O  O52  1  0.16198000  0.50000000  0.60324600  1
  O  O53  1  0.09023750  0.23781250  0.10339100  1
  O  O54  1  0.02052300  0.50000000  0.83810900  1
  O  O55  1  0.09023750  0.76218750  0.10339100  1
