# generated using pymatgen
data_Ba3(BrO)2
_symmetry_space_group_name_H-M   'P 1'
_cell_length_a   6.37538300
_cell_length_b   11.02944900
_cell_length_c   13.24494300
_cell_angle_alpha   90.00000000
_cell_angle_beta   90.00000000
_cell_angle_gamma   90.00000000
_symmetry_Int_Tables_number   1
_chemical_formula_structural   Ba3(BrO)2
_chemical_formula_sum   'Ba12 Br8 O8'
_cell_volume   931.34414904
_cell_formula_units_Z   4
loop_
 _symmetry_equiv_pos_site_id
 _symmetry_equiv_pos_as_xyz
  1  'x, y, z'
loop_
 _atom_site_type_symbol
 _atom_site_label
 _atom_site_symmetry_multiplicity
 _atom_site_fract_x
 _atom_site_fract_y
 _atom_site_fract_z
 _atom_site_occupancy
  Ba  Ba0  1  0.25000000  0.70994500  0.05061900  1
  Ba  Ba1  1  0.25000000  0.06056800  0.07614500  1
  Ba  Ba2  1  0.75000000  0.86422200  0.20891200  1
  Ba  Ba3  1  0.25000000  0.36422200  0.29108800  1
  Ba  Ba4  1  0.75000000  0.56056800  0.42385500  1
  Ba  Ba5  1  0.75000000  0.20994500  0.44938100  1
  Ba  Ba6  1  0.25000000  0.79005500  0.55061900  1
  Ba  Ba7  1  0.25000000  0.43943200  0.57614500  1
  Ba  Ba8  1  0.75000000  0.63577800  0.70891200  1
  Ba  Ba9  1  0.25000000  0.13577800  0.79108800  1
  Ba  Ba10  1  0.75000000  0.93943200  0.92385500  1
  Ba  Ba11  1  0.75000000  0.29005500  0.94938100  1
  Br  Br12  1  0.75000000  0.55823100  0.13150200  1
  Br  Br13  1  0.75000000  0.18543100  0.19234900  1
  Br  Br14  1  0.25000000  0.68543100  0.30765100  1
  Br  Br15  1  0.25000000  0.05823100  0.36849800  1
  Br  Br16  1  0.75000000  0.94176900  0.63150200  1
  Br  Br17  1  0.75000000  0.31456900  0.69234900  1
  Br  Br18  1  0.25000000  0.81456900  0.80765100  1
  Br  Br19  1  0.25000000  0.44176900  0.86849800  1
  O  O20  1  0.00037500  0.87698700  0.07351400  1
  O  O21  1  0.49962500  0.87698700  0.07351400  1
  O  O22  1  0.99962500  0.37698700  0.42648600  1
  O  O23  1  0.50037500  0.37698700  0.42648600  1
  O  O24  1  0.00037500  0.62301300  0.57351400  1
  O  O25  1  0.49962500  0.62301300  0.57351400  1
  O  O26  1  0.50037500  0.12301300  0.92648600  1
  O  O27  1  0.99962500  0.12301300  0.92648600  1
