# generated using pymatgen
data_Li2TiFeO4
_symmetry_space_group_name_H-M   'P 1'
_cell_length_a   5.96389112
_cell_length_b   6.02711688
_cell_length_c   8.58329987
_cell_angle_alpha   90.00000000
_cell_angle_beta   90.00000000
_cell_angle_gamma   90.00000000
_symmetry_Int_Tables_number   1
_chemical_formula_structural   Li2TiFeO4
_chemical_formula_sum   'Li8 Ti4 Fe4 O16'
_cell_volume   308.52730497
_cell_formula_units_Z   4
loop_
 _symmetry_equiv_pos_site_id
 _symmetry_equiv_pos_as_xyz
  1  'x, y, z'
loop_
 _atom_site_type_symbol
 _atom_site_label
 _atom_site_symmetry_multiplicity
 _atom_site_fract_x
 _atom_site_fract_y
 _atom_site_fract_z
 _atom_site_occupancy
  Li  Li0  1  0.00000000  0.25338050  0.49661300  1
  Li  Li1  1  0.00000000  0.74661950  0.49661300  1
  Li  Li2  1  0.24821400  0.00000000  0.74300900  1
  Li  Li3  1  0.75178600  0.00000000  0.74300900  1
  Li  Li4  1  0.50000000  0.75338050  0.99661300  1
  Li  Li5  1  0.50000000  0.24661950  0.99661300  1
  Li  Li6  1  0.74821400  0.50000000  0.24300900  1
  Li  Li7  1  0.25178600  0.50000000  0.24300900  1
  Ti  Ti8  1  0.25021800  0.50000000  0.74807100  1
  Ti  Ti9  1  0.74978200  0.50000000  0.74807100  1
  Ti  Ti10  1  0.75021800  0.00000000  0.24807100  1
  Ti  Ti11  1  0.24978200  0.00000000  0.24807100  1
  Fe  Fe12  1  0.50000000  0.25036350  0.49744900  1
  Fe  Fe13  1  0.50000000  0.74963650  0.49744900  1
  Fe  Fe14  1  0.00000000  0.75036350  0.99744900  1
  Fe  Fe15  1  0.00000000  0.24963650  0.99744900  1
  O  O16  1  0.26042800  0.00000000  0.47850200  1
  O  O17  1  0.73957200  0.00000000  0.47850200  1
  O  O18  1  0.24919700  0.50000000  0.52056700  1
  O  O19  1  0.75080300  0.50000000  0.52056700  1
  O  O20  1  0.00000000  0.22595950  0.25178400  1
  O  O21  1  0.00000000  0.77404050  0.25178400  1
  O  O22  1  0.00000000  0.72643225  0.74398675  1
  O  O23  1  0.00000000  0.27356775  0.74398675  1
  O  O24  1  0.76042800  0.50000000  0.97850200  1
  O  O25  1  0.23957200  0.50000000  0.97850200  1
  O  O26  1  0.74919700  0.00000000  0.02056700  1
  O  O27  1  0.25080300  0.00000000  0.02056700  1
  O  O28  1  0.50000000  0.72595950  0.75178400  1
  O  O29  1  0.50000000  0.27404050  0.75178400  1
  O  O30  1  0.50000000  0.22643225  0.24398675  1
  O  O31  1  0.50000000  0.77356775  0.24398675  1
