# generated using pymatgen
data_Y2HfO5
_symmetry_space_group_name_H-M   'P 1'
_cell_length_a   11.80963600
_cell_length_b   5.52745400
_cell_length_c   7.69685315
_cell_angle_alpha   90.00000000
_cell_angle_beta   113.10263694
_cell_angle_gamma   90.00000000
_symmetry_Int_Tables_number   1
_chemical_formula_structural   Y2HfO5
_chemical_formula_sum   'Y8 Hf4 O20'
_cell_volume   462.13608270
_cell_formula_units_Z   4
loop_
 _symmetry_equiv_pos_site_id
 _symmetry_equiv_pos_as_xyz
  1  'x, y, z'
loop_
 _atom_site_type_symbol
 _atom_site_label
 _atom_site_symmetry_multiplicity
 _atom_site_fract_x
 _atom_site_fract_y
 _atom_site_fract_z
 _atom_site_occupancy
  Y  Y0  1  0.13907100  0.49571900  0.74846300  1
  Y  Y1  1  0.13907100  0.50428100  0.24846300  1
  Y  Y2  1  0.36092900  0.99571900  0.75153700  1
  Y  Y3  1  0.36092900  0.00428100  0.25153700  1
  Y  Y4  1  0.63907100  0.99571900  0.74846300  1
  Y  Y5  1  0.63907100  0.00428100  0.24846300  1
  Y  Y6  1  0.86092900  0.49571900  0.75153700  1
  Y  Y7  1  0.86092900  0.50428100  0.25153700  1
  Hf  Hf8  1  0.00000000  0.00000000  0.50000000  1
  Hf  Hf9  1  0.00000000  0.00000000  0.00000000  1
  Hf  Hf10  1  0.50000000  0.50000000  0.50000000  1
  Hf  Hf11  1  0.50000000  0.50000000  0.00000000  1
  O  O12  1  0.07418300  0.67485000  0.95583900  1
  O  O13  1  0.07418300  0.32515000  0.45583900  1
  O  O14  1  0.17380150  0.84918750  0.64522600  1
  O  O15  1  0.32619850  0.34918750  0.85477400  1
  O  O16  1  0.17380150  0.15081250  0.14522600  1
  O  O17  1  0.32619850  0.65081250  0.35477400  1
  O  O18  1  0.42581700  0.17485000  0.54416100  1
  O  O19  1  0.00000000  0.17553400  0.75000000  1
  O  O20  1  0.42581700  0.82515000  0.04416100  1
  O  O21  1  0.00000000  0.82446600  0.25000000  1
  O  O22  1  0.57418300  0.17485000  0.95583900  1
  O  O23  1  0.57418300  0.82515000  0.45583900  1
  O  O24  1  0.67380150  0.34918750  0.64522600  1
  O  O25  1  0.82619850  0.84918750  0.85477400  1
  O  O26  1  0.67380150  0.65081250  0.14522600  1
  O  O27  1  0.82619850  0.15081250  0.35477400  1
  O  O28  1  0.92581700  0.67485000  0.54416100  1
  O  O29  1  0.50000000  0.67553400  0.75000000  1
  O  O30  1  0.92581700  0.32515000  0.04416100  1
  O  O31  1  0.50000000  0.32446600  0.25000000  1
