# generated using pymatgen
data_UH12S2O15
_symmetry_space_group_name_H-M   'P 1'
_cell_length_a   11.52429200
_cell_length_b   7.79984400
_cell_length_c   14.85050497
_cell_angle_alpha   90.00000000
_cell_angle_beta   105.45116825
_cell_angle_gamma   90.00000000
_symmetry_Int_Tables_number   1
_chemical_formula_structural   UH12S2O15
_chemical_formula_sum   'U4 H48 S8 O60'
_cell_volume   1286.63211397
_cell_formula_units_Z   4
loop_
 _symmetry_equiv_pos_site_id
 _symmetry_equiv_pos_as_xyz
  1  'x, y, z'
loop_
 _atom_site_type_symbol
 _atom_site_label
 _atom_site_symmetry_multiplicity
 _atom_site_fract_x
 _atom_site_fract_y
 _atom_site_fract_z
 _atom_site_occupancy
  U  U0  1  0.00000000  0.77063100  0.75000000  1
  U  U1  1  0.00000000  0.22936900  0.25000000  1
  U  U2  1  0.50000000  0.27063100  0.75000000  1
  U  U3  1  0.50000000  0.72936900  0.25000000  1
  H  H4  1  0.06820250  0.38773350  0.78325300  1
  H  H5  1  0.93179750  0.38773350  0.71674700  1
  H  H6  1  0.93179750  0.61226650  0.21674700  1
  H  H7  1  0.06820250  0.61226650  0.28325300  1
  H  H8  1  0.28342050  0.41211150  0.91470600  1
  H  H9  1  0.71657950  0.41211150  0.58529400  1
  H  H10  1  0.71657950  0.58788850  0.08529400  1
  H  H11  1  0.28342050  0.58788850  0.41470600  1
  H  H12  1  0.30017000  0.49217900  0.01652400  1
  H  H13  1  0.69983000  0.49217900  0.48347600  1
  H  H14  1  0.69983000  0.50782100  0.98347600  1
  H  H15  1  0.30017000  0.50782100  0.51652400  1
  H  H16  1  0.87589750  0.34610450  0.90605700  1
  H  H17  1  0.12410250  0.34610450  0.59394300  1
  H  H18  1  0.12410250  0.65389550  0.09394300  1
  H  H19  1  0.87589750  0.65389550  0.40605700  1
  H  H20  1  0.88224800  0.12271700  0.94106300  1
  H  H21  1  0.11775200  0.12271700  0.55893700  1
  H  H22  1  0.11775200  0.87728300  0.05893700  1
  H  H23  1  0.88224800  0.87728300  0.44106300  1
  H  H24  1  0.99543300  0.26753300  0.97924600  1
  H  H25  1  0.00456700  0.26753300  0.52075400  1
  H  H26  1  0.00456700  0.73246700  0.02075400  1
  H  H27  1  0.99543300  0.73246700  0.47924600  1
  H  H28  1  0.56820250  0.88773350  0.78325300  1
  H  H29  1  0.43179750  0.88773350  0.71674700  1
  H  H30  1  0.43179750  0.11226650  0.21674700  1
  H  H31  1  0.56820250  0.11226650  0.28325300  1
  H  H32  1  0.78342050  0.91211150  0.91470600  1
  H  H33  1  0.21657950  0.91211150  0.58529400  1
  H  H34  1  0.21657950  0.08788850  0.08529400  1
  H  H35  1  0.78342050  0.08788850  0.41470600  1
  H  H36  1  0.80017000  0.99217900  0.01652400  1
  H  H37  1  0.19983000  0.99217900  0.48347600  1
  H  H38  1  0.19983000  0.00782100  0.98347600  1
  H  H39  1  0.80017000  0.00782100  0.51652400  1
  H  H40  1  0.37589750  0.84610450  0.90605700  1
  H  H41  1  0.62410250  0.84610450  0.59394300  1
  H  H42  1  0.62410250  0.15389550  0.09394300  1
  H  H43  1  0.37589750  0.15389550  0.40605700  1
  H  H44  1  0.38224800  0.62271700  0.94106300  1
  H  H45  1  0.61775200  0.62271700  0.55893700  1
  H  H46  1  0.61775200  0.37728300  0.05893700  1
  H  H47  1  0.38224800  0.37728300  0.44106300  1
  H  H48  1  0.49543300  0.76753300  0.97924600  1
  H  H49  1  0.50456700  0.76753300  0.52075400  1
  H  H50  1  0.50456700  0.23246700  0.02075400  1
  H  H51  1  0.49543300  0.23246700  0.47924600  1
  S  S52  1  0.27122950  0.61533450  0.68899700  1
  S  S53  1  0.72877050  0.61533450  0.81100300  1
  S  S54  1  0.72877050  0.38466550  0.31100300  1
  S  S55  1  0.27122950  0.38466550  0.18899700  1
  S  S56  1  0.77122950  0.11533450  0.68899700  1
  S  S57  1  0.22877050  0.11533450  0.81100300  1
  S  S58  1  0.22877050  0.88466550  0.31100300  1
  S  S59  1  0.77122950  0.88466550  0.18899700  1
  O  O60  1  0.04226850  0.76955150  0.87649200  1
  O  O61  1  0.95773150  0.76955150  0.62350800  1
  O  O62  1  0.95773150  0.23044850  0.12350800  1
  O  O63  1  0.04226850  0.23044850  0.37649200  1
  O  O64  1  0.19452050  0.66239250  0.75235900  1
  O  O65  1  0.80547950  0.66239250  0.74764100  1
  O  O66  1  0.80547950  0.33760750  0.24764100  1
  O  O67  1  0.19452050  0.33760750  0.25235900  1
  O  O68  1  0.37445100  0.51488800  0.74651100  1
  O  O69  1  0.62554900  0.51488800  0.75348900  1
  O  O70  1  0.62554900  0.48511200  0.25348900  1
  O  O71  1  0.37445100  0.48511200  0.24651100  1
  O  O72  1  0.00000000  0.46218600  0.75000000  1
  O  O73  1  0.00000000  0.53781400  0.25000000  1
  O  O74  1  0.18449850  0.27360550  0.84616900  1
  O  O75  1  0.81550150  0.27360550  0.65383100  1
  O  O76  1  0.81550150  0.72639450  0.15383100  1
  O  O77  1  0.18449850  0.72639450  0.34616900  1
  O  O78  1  0.79799650  0.51389150  0.89279300  1
  O  O79  1  0.20200350  0.51389150  0.60720700  1
  O  O80  1  0.20200350  0.48610850  0.10720700  1
  O  O81  1  0.79799650  0.48610850  0.39279300  1
  O  O82  1  0.33921600  0.48049000  0.96507600  1
  O  O83  1  0.66078400  0.48049000  0.53492400  1
  O  O84  1  0.66078400  0.51951000  0.03492400  1
  O  O85  1  0.33921600  0.51951000  0.46507600  1
  O  O86  1  0.93028200  0.24119000  0.92383900  1
  O  O87  1  0.06971800  0.24119000  0.57616100  1
  O  O88  1  0.06971800  0.75881000  0.07616100  1
  O  O89  1  0.93028200  0.75881000  0.42383900  1
  O  O90  1  0.54226850  0.26955150  0.87649200  1
  O  O91  1  0.45773150  0.26955150  0.62350800  1
  O  O92  1  0.45773150  0.73044850  0.12350800  1
  O  O93  1  0.54226850  0.73044850  0.37649200  1
  O  O94  1  0.69452050  0.16239250  0.75235900  1
  O  O95  1  0.30547950  0.16239250  0.74764100  1
  O  O96  1  0.30547950  0.83760750  0.24764100  1
  O  O97  1  0.69452050  0.83760750  0.25235900  1
  O  O98  1  0.87445100  0.01488800  0.74651100  1
  O  O99  1  0.12554900  0.01488800  0.75348900  1
  O  O100  1  0.12554900  0.98511200  0.25348900  1
  O  O101  1  0.87445100  0.98511200  0.24651100  1
  O  O102  1  0.50000000  0.96218600  0.75000000  1
  O  O103  1  0.50000000  0.03781400  0.25000000  1
  O  O104  1  0.68449850  0.77360550  0.84616900  1
  O  O105  1  0.31550150  0.77360550  0.65383100  1
  O  O106  1  0.31550150  0.22639450  0.15383100  1
  O  O107  1  0.68449850  0.22639450  0.34616900  1
  O  O108  1  0.29799650  0.01389150  0.89279300  1
  O  O109  1  0.70200350  0.01389150  0.60720700  1
  O  O110  1  0.70200350  0.98610850  0.10720700  1
  O  O111  1  0.29799650  0.98610850  0.39279300  1
  O  O112  1  0.83921600  0.98049000  0.96507600  1
  O  O113  1  0.16078400  0.98049000  0.53492400  1
  O  O114  1  0.16078400  0.01951000  0.03492400  1
  O  O115  1  0.83921600  0.01951000  0.46507600  1
  O  O116  1  0.43028200  0.74119000  0.92383900  1
  O  O117  1  0.56971800  0.74119000  0.57616100  1
  O  O118  1  0.56971800  0.25881000  0.07616100  1
  O  O119  1  0.43028200  0.25881000  0.42383900  1
