# generated using pymatgen
data_Li4MnV3(P2O7)4
_symmetry_space_group_name_H-M   'P 1'
_cell_length_a   7.16138404
_cell_length_b   9.59318331
_cell_length_c   9.63854451
_cell_angle_alpha   119.11758531
_cell_angle_beta   100.23919051
_cell_angle_gamma   100.87948291
_symmetry_Int_Tables_number   1
_chemical_formula_structural   Li4MnV3(P2O7)4
_chemical_formula_sum   'Li4 Mn1 V3 P8 O28'
_cell_volume   539.31224628
_cell_formula_units_Z   1
loop_
 _symmetry_equiv_pos_site_id
 _symmetry_equiv_pos_as_xyz
  1  'x, y, z'
loop_
 _atom_site_type_symbol
 _atom_site_label
 _atom_site_symmetry_multiplicity
 _atom_site_fract_x
 _atom_site_fract_y
 _atom_site_fract_z
 _atom_site_occupancy
  Li  Li0  1  0.32467055  0.36078908  0.56987467  1
  Li  Li1  1  0.67451411  0.86246747  0.81924096  1
  Li  Li2  1  0.32486110  0.36125509  0.07113399  1
  Li  Li3  1  0.67475302  0.86179878  0.31778100  1
  Mn  Mn4  1  0.26796118  0.99885999  0.74225986  1
  V  V5  1  0.27158501  0.99982727  0.24351976  1
  V  V6  1  0.72757532  0.50008719  0.00567453  1
  V  V7  1  0.72797361  0.49891899  0.50762327  1
  P  P8  1  0.52285109  0.17902439  0.47171683  1
  P  P9  1  0.52148842  0.17895977  0.97060986  1
  P  P10  1  0.08683967  0.78460415  0.54487253  1
  P  P11  1  0.08773130  0.78303887  0.04467406  1
  P  P12  1  0.91367427  0.28715766  0.41854044  1
  P  P13  1  0.91391989  0.28383242  0.92133072  1
  P  P14  1  0.48184235  0.68036058  0.10002851  1
  P  P15  1  0.47798354  0.68087257  0.59865040  1
  O  O16  1  0.08433316  0.93377940  0.87608303  1
  O  O17  1  0.39188214  0.17643961  0.80663636  1
  O  O18  1  0.50505309  0.84212457  0.95474880  1
  O  O19  1  0.11468646  0.20420881  0.51781965  1
  O  O20  1  0.14489116  0.82420641  0.68909926  1
  O  O21  1  0.48131601  0.03608061  0.62837914  1
  O  O22  1  0.50645363  0.34220624  0.45840078  1
  O  O23  1  0.50593953  0.34252084  0.95725077  1
  O  O24  1  0.60504418  0.67808276  0.76494419  1
  O  O25  1  0.60461889  0.67482128  0.26885699  1
  O  O26  1  0.91653385  0.43373763  0.94065178  1
  O  O27  1  0.91360827  0.43626749  0.43871258  1
  O  O28  1  0.75330449  0.15373411  0.50101112  1
  O  O29  1  0.24669471  0.65369921  0.59455276  1
  O  O30  1  0.24884481  0.65450585  0.09350480  1
  O  O31  1  0.08528135  0.93387236  0.37769349  1
  O  O32  1  0.39540672  0.17673983  0.30746566  1
  O  O33  1  0.49403195  0.84372826  0.44889672  1
  O  O34  1  0.51727717  0.53837325  0.58317079  1
  O  O35  1  0.51755459  0.53653161  0.08430445  1
  O  O36  1  0.85107349  0.32418604  0.73877329  1
  O  O37  1  0.84670570  0.32627565  0.23558232  1
  O  O38  1  0.88713222  0.69474789  0.02981885  1
  O  O39  1  0.88587857  0.69685686  0.52801193  1
  O  O40  1  0.11374204  0.19660518  0.02513858  1
  O  O41  1  0.14858691  0.82455248  0.18687880  1
  O  O42  1  0.48167346  0.03803048  0.12847581  1
  O  O43  1  0.75222502  0.15238694  0.00202695  1
