# generated using pymatgen
data_LiFeF5
_symmetry_space_group_name_H-M   'P 1'
_cell_length_a   14.47919200
_cell_length_b   14.47919200
_cell_length_c   6.66935800
_cell_angle_alpha   90.00000000
_cell_angle_beta   90.00000000
_cell_angle_gamma   90.00000000
_symmetry_Int_Tables_number   1
_chemical_formula_structural   LiFeF5
_chemical_formula_sum   'Li16 Fe16 F80'
_cell_volume   1398.21090311
_cell_formula_units_Z   16
loop_
 _symmetry_equiv_pos_site_id
 _symmetry_equiv_pos_as_xyz
  1  'x, y, z'
loop_
 _atom_site_type_symbol
 _atom_site_label
 _atom_site_symmetry_multiplicity
 _atom_site_fract_x
 _atom_site_fract_y
 _atom_site_fract_z
 _atom_site_occupancy
  Li  Li0  1  0.63047900  0.41249200  0.84675500  1
  Li  Li1  1  0.13047900  0.41249200  0.40324500  1
  Li  Li2  1  0.08750800  0.63047900  0.09675500  1
  Li  Li3  1  0.08750800  0.13047900  0.65324500  1
  Li  Li4  1  0.91249200  0.86952100  0.65324500  1
  Li  Li5  1  0.91249200  0.36952100  0.09675500  1
  Li  Li6  1  0.86952100  0.58750800  0.40324500  1
  Li  Li7  1  0.36952100  0.58750800  0.84675500  1
  Li  Li8  1  0.13047900  0.91249200  0.34675500  1
  Li  Li9  1  0.63047900  0.91249200  0.90324500  1
  Li  Li10  1  0.58750800  0.13047900  0.59675500  1
  Li  Li11  1  0.58750800  0.63047900  0.15324500  1
  Li  Li12  1  0.41249200  0.36952100  0.15324500  1
  Li  Li13  1  0.41249200  0.86952100  0.59675500  1
  Li  Li14  1  0.36952100  0.08750800  0.90324500  1
  Li  Li15  1  0.86952100  0.08750800  0.34675500  1
  Fe  Fe16  1  0.90713350  0.29979450  0.60595650  1
  Fe  Fe17  1  0.29979450  0.59286650  0.35595650  1
  Fe  Fe18  1  0.70020550  0.40713350  0.35595650  1
  Fe  Fe19  1  0.09286650  0.70020550  0.60595650  1
  Fe  Fe20  1  0.90713350  0.79979450  0.14404350  1
  Fe  Fe21  1  0.79979450  0.59286650  0.89404350  1
  Fe  Fe22  1  0.20020550  0.40713350  0.89404350  1
  Fe  Fe23  1  0.09286650  0.20020550  0.14404350  1
  Fe  Fe24  1  0.40713350  0.79979450  0.10595650  1
  Fe  Fe25  1  0.79979450  0.09286650  0.85595650  1
  Fe  Fe26  1  0.20020550  0.90713350  0.85595650  1
  Fe  Fe27  1  0.59286650  0.20020550  0.10595650  1
  Fe  Fe28  1  0.40713350  0.29979450  0.64404350  1
  Fe  Fe29  1  0.29979450  0.09286650  0.39404350  1
  Fe  Fe30  1  0.70020550  0.90713350  0.39404350  1
  Fe  Fe31  1  0.59286650  0.70020550  0.64404350  1
  F  F32  1  0.87619100  0.21719000  0.41449100  1
  F  F33  1  0.84825150  0.22566950  0.80089650  1
  F  F34  1  0.77433050  0.34825150  0.55089650  1
  F  F35  1  0.78281000  0.37619100  0.16449100  1
  F  F36  1  0.21719000  0.62380900  0.16449100  1
  F  F37  1  0.22566950  0.65174850  0.55089650  1
  F  F38  1  0.24105300  0.48107400  0.40421100  1
  F  F39  1  0.74105300  0.48107400  0.84578900  1
  F  F40  1  0.15174850  0.77433050  0.80089650  1
  F  F41  1  0.07934050  0.61385050  0.79827950  1
  F  F42  1  0.07934050  0.11385050  0.95172050  1
  F  F43  1  0.11692000  0.45110900  0.08437700  1
  F  F44  1  0.61692000  0.45110900  0.16562300  1
  F  F45  1  0.12380900  0.78281000  0.41449100  1
  F  F46  1  0.11385050  0.42065950  0.70172050  1
  F  F47  1  0.61385050  0.42065950  0.54827950  1
  F  F48  1  0.04889100  0.11692000  0.33437700  1
  F  F49  1  0.04889100  0.61692000  0.41562300  1
  F  F50  1  0.01892600  0.74105300  0.09578900  1
  F  F51  1  0.01892600  0.24105300  0.65421100  1
  F  F52  1  0.98107400  0.25894700  0.09578900  1
  F  F53  1  0.98107400  0.75894700  0.65421100  1
  F  F54  1  0.95110900  0.38308000  0.41562300  1
  F  F55  1  0.95110900  0.88308000  0.33437700  1
  F  F56  1  0.88614950  0.57934050  0.70172050  1
  F  F57  1  0.38614950  0.57934050  0.54827950  1
  F  F58  1  0.87619100  0.71719000  0.33550900  1
  F  F59  1  0.88308000  0.54889100  0.08437700  1
  F  F60  1  0.38308000  0.54889100  0.16562300  1
  F  F61  1  0.92065950  0.38614950  0.79827950  1
  F  F62  1  0.92065950  0.88614950  0.95172050  1
  F  F63  1  0.84825150  0.72566950  0.94910350  1
  F  F64  1  0.75894700  0.51892600  0.40421100  1
  F  F65  1  0.25894700  0.51892600  0.84578900  1
  F  F66  1  0.27433050  0.34825150  0.69910350  1
  F  F67  1  0.28281000  0.37619100  0.08550900  1
  F  F68  1  0.71719000  0.62380900  0.08550900  1
  F  F69  1  0.72566950  0.65174850  0.69910350  1
  F  F70  1  0.15174850  0.27433050  0.94910350  1
  F  F71  1  0.12380900  0.28281000  0.33550900  1
  F  F72  1  0.37619100  0.71719000  0.91449100  1
  F  F73  1  0.34825150  0.72566950  0.30089650  1
  F  F74  1  0.27433050  0.84825150  0.05089650  1
  F  F75  1  0.28281000  0.87619100  0.66449100  1
  F  F76  1  0.71719000  0.12380900  0.66449100  1
  F  F77  1  0.72566950  0.15174850  0.05089650  1
  F  F78  1  0.74105300  0.98107400  0.90421100  1
  F  F79  1  0.24105300  0.98107400  0.34578900  1
  F  F80  1  0.65174850  0.27433050  0.30089650  1
  F  F81  1  0.57934050  0.11385050  0.29827950  1
  F  F82  1  0.57934050  0.61385050  0.45172050  1
  F  F83  1  0.61692000  0.95110900  0.58437700  1
  F  F84  1  0.11692000  0.95110900  0.66562300  1
  F  F85  1  0.62380900  0.28281000  0.91449100  1
  F  F86  1  0.61385050  0.92065950  0.20172050  1
  F  F87  1  0.11385050  0.92065950  0.04827950  1
  F  F88  1  0.54889100  0.61692000  0.83437700  1
  F  F89  1  0.54889100  0.11692000  0.91562300  1
  F  F90  1  0.51892600  0.24105300  0.59578900  1
  F  F91  1  0.51892600  0.74105300  0.15421100  1
  F  F92  1  0.48107400  0.75894700  0.59578900  1
  F  F93  1  0.48107400  0.25894700  0.15421100  1
  F  F94  1  0.45110900  0.88308000  0.91562300  1
  F  F95  1  0.45110900  0.38308000  0.83437700  1
  F  F96  1  0.38614950  0.07934050  0.20172050  1
  F  F97  1  0.88614950  0.07934050  0.04827950  1
  F  F98  1  0.37619100  0.21719000  0.83550900  1
  F  F99  1  0.38308000  0.04889100  0.58437700  1
  F  F100  1  0.88308000  0.04889100  0.66562300  1
  F  F101  1  0.42065950  0.88614950  0.29827950  1
  F  F102  1  0.42065950  0.38614950  0.45172050  1
  F  F103  1  0.34825150  0.22566950  0.44910350  1
  F  F104  1  0.25894700  0.01892600  0.90421100  1
  F  F105  1  0.75894700  0.01892600  0.34578900  1
  F  F106  1  0.77433050  0.84825150  0.19910350  1
  F  F107  1  0.78281000  0.87619100  0.58550900  1
  F  F108  1  0.21719000  0.12380900  0.58550900  1
  F  F109  1  0.22566950  0.15174850  0.19910350  1
  F  F110  1  0.65174850  0.77433050  0.44910350  1
  F  F111  1  0.62380900  0.78281000  0.83550900  1
