# generated using pymatgen
data_Ba2Ti11O24
_symmetry_space_group_name_H-M   'P 1'
_cell_length_a   7.32914100
_cell_length_b   7.40645532
_cell_length_c   8.97652966
_cell_angle_alpha   101.90005984
_cell_angle_beta   102.08977593
_cell_angle_gamma   87.55033854
_symmetry_Int_Tables_number   1
_chemical_formula_structural   Ba2Ti11O24
_chemical_formula_sum   'Ba2 Ti11 O24'
_cell_volume   466.22528564
_cell_formula_units_Z   1
loop_
 _symmetry_equiv_pos_site_id
 _symmetry_equiv_pos_as_xyz
  1  'x, y, z'
loop_
 _atom_site_type_symbol
 _atom_site_label
 _atom_site_symmetry_multiplicity
 _atom_site_fract_x
 _atom_site_fract_y
 _atom_site_fract_z
 _atom_site_occupancy
  Ba  Ba0  1  0.00295900  0.99988700  0.22449100  1
  Ba  Ba1  1  0.01822400  0.00550900  0.78576100  1
  Ti  Ti2  1  0.47321900  0.18376500  0.62180900  1
  Ti  Ti3  1  0.47718400  0.18765800  0.26592300  1
  Ti  Ti4  1  0.19062100  0.50889800  0.10997500  1
  Ti  Ti5  1  0.17716600  0.53675700  0.45423100  1
  Ti  Ti6  1  0.18849200  0.50954200  0.78908100  1
  Ti  Ti7  1  0.80691200  0.47935900  0.21223300  1
  Ti  Ti8  1  0.80203900  0.48752600  0.88255700  1
  Ti  Ti9  1  0.80894300  0.47128700  0.54617200  1
  Ti  Ti10  1  0.52146500  0.83508700  0.73197300  1
  Ti  Ti11  1  0.50587500  0.83840900  0.05148100  1
  Ti  Ti12  1  0.52018400  0.81938700  0.39004400  1
  O  O13  1  0.33244500  0.02904300  0.08271600  1
  O  O14  1  0.36244100  0.04369300  0.40085800  1
  O  O15  1  0.34579500  0.03099000  0.70855300  1
  O  O16  1  0.28677100  0.37132900  0.27720900  1
  O  O17  1  0.28381300  0.37888600  0.94249000  1
  O  O18  1  0.29371000  0.37988300  0.61185000  1
  O  O19  1  0.04822600  0.64534300  0.28340800  1
  O  O20  1  0.04940600  0.64734700  0.61459400  1
  O  O21  1  0.04870900  0.64904400  0.95072400  1
  O  O22  1  0.62317400  0.29196800  0.48360600  1
  O  O23  1  0.64075100  0.29593600  0.80025400  1
  O  O24  1  0.64026300  0.28959200  0.17482800  1
  O  O25  1  0.37809900  0.70102400  0.18555900  1
  O  O26  1  0.38393400  0.70166300  0.50966900  1
  O  O27  1  0.36840600  0.71492400  0.84458400  1
  O  O28  1  0.95121800  0.35740200  0.05030600  1
  O  O29  1  0.95654100  0.35937800  0.38751300  1
  O  O30  1  0.95726400  0.36022500  0.71667900  1
  O  O31  1  0.71033400  0.62596700  0.71738800  1
  O  O32  1  0.70107100  0.61950400  0.05636500  1
  O  O33  1  0.71229800  0.62804800  0.39088300  1
  O  O34  1  0.65607200  0.92904400  0.93433300  1
  O  O35  1  0.64473900  0.95041300  0.26211700  1
  O  O36  1  0.64918200  0.95277700  0.60352400  1
