# generated using pymatgen
data_Na4Ti7O16
_symmetry_space_group_name_H-M   'P 1'
_cell_length_a   5.51814500
_cell_length_b   6.03373400
_cell_length_c   9.58328672
_cell_angle_alpha   90.00000000
_cell_angle_beta   91.22903790
_cell_angle_gamma   90.00000000
_symmetry_Int_Tables_number   1
_chemical_formula_structural   Na4Ti7O16
_chemical_formula_sum   'Na4 Ti7 O16'
_cell_volume   319.00230822
_cell_formula_units_Z   1
loop_
 _symmetry_equiv_pos_site_id
 _symmetry_equiv_pos_as_xyz
  1  'x, y, z'
loop_
 _atom_site_type_symbol
 _atom_site_label
 _atom_site_symmetry_multiplicity
 _atom_site_fract_x
 _atom_site_fract_y
 _atom_site_fract_z
 _atom_site_occupancy
  Na  Na0  1  0.56647000  0.50000000  0.03992100  1
  Na  Na1  1  0.52674200  0.50000000  0.34533400  1
  Na  Na2  1  0.04447400  0.74339400  0.45562000  1
  Na  Na3  1  0.04447400  0.25660600  0.45562000  1
  Ti  Ti4  1  0.95767200  0.00000000  0.86407100  1
  Ti  Ti5  1  0.99411900  0.50000000  0.84057900  1
  Ti  Ti6  1  0.54253600  0.00000000  0.34918300  1
  Ti  Ti7  1  0.48158100  0.75160300  0.63950000  1
  Ti  Ti8  1  0.48158100  0.24839700  0.63950000  1
  Ti  Ti9  1  0.04803900  0.74709000  0.13769100  1
  Ti  Ti10  1  0.04803900  0.25291000  0.13769100  1
  O  O11  1  0.82546100  0.00000000  0.23412300  1
  O  O12  1  0.88037300  0.50000000  0.22566300  1
  O  O13  1  0.82894800  0.74685300  0.95936200  1
  O  O14  1  0.82894800  0.25314700  0.95936200  1
  O  O15  1  0.66159800  0.22414600  0.47610400  1
  O  O16  1  0.66159800  0.77585400  0.47610400  1
  O  O17  1  0.68565300  0.50000000  0.72750300  1
  O  O18  1  0.66190900  0.00000000  0.73601700  1
  O  O19  1  0.30542800  0.78231200  0.26447400  1
  O  O20  1  0.30542800  0.21768800  0.26447400  1
  O  O21  1  0.30395500  0.00000000  0.54758300  1
  O  O22  1  0.31098200  0.50000000  0.56084600  1
  O  O23  1  0.18467900  0.50000000  0.02988500  1
  O  O24  1  0.17214000  0.00000000  0.03083300  1
  O  O25  1  0.16064400  0.75115300  0.77204300  1
  O  O26  1  0.16064400  0.24884700  0.77204300  1
