# generated using pymatgen
data_Ba(NaSi2)2
_symmetry_space_group_name_H-M   'P 1'
_cell_length_a   8.59109000
_cell_length_b   9.57403800
_cell_length_c   18.06936600
_cell_angle_alpha   90.00000000
_cell_angle_beta   90.00000000
_cell_angle_gamma   90.00000000
_symmetry_Int_Tables_number   1
_chemical_formula_structural   Ba(NaSi2)2
_chemical_formula_sum   'Ba8 Na16 Si32'
_cell_volume   1486.23105033
_cell_formula_units_Z   8
loop_
 _symmetry_equiv_pos_site_id
 _symmetry_equiv_pos_as_xyz
  1  'x, y, z'
loop_
 _atom_site_type_symbol
 _atom_site_label
 _atom_site_symmetry_multiplicity
 _atom_site_fract_x
 _atom_site_fract_y
 _atom_site_fract_z
 _atom_site_occupancy
  Ba  Ba0  1  0.00020700  0.00000000  0.00000000  1
  Ba  Ba1  1  0.66946900  0.25000000  0.16656200  1
  Ba  Ba2  1  0.16946900  0.25000000  0.33343800  1
  Ba  Ba3  1  0.00020700  0.50000000  0.00000000  1
  Ba  Ba4  1  0.50020700  0.50000000  0.50000000  1
  Ba  Ba5  1  0.16946900  0.75000000  0.66656200  1
  Ba  Ba6  1  0.66946900  0.75000000  0.83343800  1
  Ba  Ba7  1  0.50020700  0.00000000  0.50000000  1
  Na  Na8  1  0.49678600  0.50000000  0.00000000  1
  Na  Na9  1  0.49678600  0.00000000  0.00000000  1
  Na  Na10  1  0.49792700  0.53256900  0.27378400  1
  Na  Na11  1  0.99792700  0.53256900  0.22621600  1
  Na  Na12  1  0.82578600  0.75000000  0.37076000  1
  Na  Na13  1  0.32578600  0.75000000  0.12924000  1
  Na  Na14  1  0.99792700  0.96743100  0.22621600  1
  Na  Na15  1  0.49792700  0.96743100  0.27378400  1
  Na  Na16  1  0.99678600  0.00000000  0.50000000  1
  Na  Na17  1  0.99678600  0.50000000  0.50000000  1
  Na  Na18  1  0.99792700  0.03256900  0.77378400  1
  Na  Na19  1  0.49792700  0.03256900  0.72621600  1
  Na  Na20  1  0.32578600  0.25000000  0.87076000  1
  Na  Na21  1  0.82578600  0.25000000  0.62924000  1
  Na  Na22  1  0.49792700  0.46743100  0.72621600  1
  Na  Na23  1  0.99792700  0.46743100  0.77378400  1
  Si  Si24  1  0.06163550  0.25000000  0.13518150  1
  Si  Si25  1  0.29689250  0.37892850  0.15897250  1
  Si  Si26  1  0.79689250  0.37892850  0.34102750  1
  Si  Si27  1  0.79689250  0.12107150  0.34102750  1
  Si  Si28  1  0.18939450  0.62211750  0.35883150  1
  Si  Si29  1  0.27535200  0.25000000  0.04539700  1
  Si  Si30  1  0.22201200  0.75000000  0.47282500  1
  Si  Si31  1  0.42619600  0.75000000  0.38087900  1
  Si  Si32  1  0.77535200  0.25000000  0.45460300  1
  Si  Si33  1  0.72201200  0.75000000  0.02717500  1
  Si  Si34  1  0.92619600  0.75000000  0.11912100  1
  Si  Si35  1  0.18939450  0.87788250  0.35883150  1
  Si  Si36  1  0.68939450  0.87788250  0.14116850  1
  Si  Si37  1  0.29689250  0.12107150  0.15897250  1
  Si  Si38  1  0.68939450  0.62211750  0.14116850  1
  Si  Si39  1  0.56163550  0.25000000  0.36481850  1
  Si  Si40  1  0.56163550  0.75000000  0.63518150  1
  Si  Si41  1  0.79689250  0.87892850  0.65897250  1
  Si  Si42  1  0.29689250  0.87892850  0.84102750  1
  Si  Si43  1  0.29689250  0.62107150  0.84102750  1
  Si  Si44  1  0.68939450  0.12211750  0.85883150  1
  Si  Si45  1  0.77535200  0.75000000  0.54539700  1
  Si  Si46  1  0.72201200  0.25000000  0.97282500  1
  Si  Si47  1  0.92619600  0.25000000  0.88087900  1
  Si  Si48  1  0.27535200  0.75000000  0.95460300  1
  Si  Si49  1  0.22201200  0.25000000  0.52717500  1
  Si  Si50  1  0.42619600  0.25000000  0.61912100  1
  Si  Si51  1  0.68939450  0.37788250  0.85883150  1
  Si  Si52  1  0.18939450  0.37788250  0.64116850  1
  Si  Si53  1  0.79689250  0.62107150  0.65897250  1
  Si  Si54  1  0.18939450  0.12211750  0.64116850  1
  Si  Si55  1  0.06163550  0.75000000  0.86481850  1
