# generated using pymatgen
data_Li2VF6
_symmetry_space_group_name_H-M   'P 1'
_cell_length_a   9.28639200
_cell_length_b   5.50032800
_cell_length_c   9.94546386
_cell_angle_alpha   90.00000000
_cell_angle_beta   92.17755856
_cell_angle_gamma   90.00000000
_symmetry_Int_Tables_number   1
_chemical_formula_structural   Li2VF6
_chemical_formula_sum   'Li8 V4 F24'
_cell_volume   507.62957490
_cell_formula_units_Z   4
loop_
 _symmetry_equiv_pos_site_id
 _symmetry_equiv_pos_as_xyz
  1  'x, y, z'
loop_
 _atom_site_type_symbol
 _atom_site_label
 _atom_site_symmetry_multiplicity
 _atom_site_fract_x
 _atom_site_fract_y
 _atom_site_fract_z
 _atom_site_occupancy
  Li  Li0  1  0.39227350  0.11616850  0.95727500  1
  Li  Li1  1  0.81760700  0.16446800  0.17048100  1
  Li  Li2  1  0.81760700  0.83553200  0.67048100  1
  Li  Li3  1  0.39227350  0.88383150  0.45727500  1
  Li  Li4  1  0.89227350  0.61616850  0.95727500  1
  Li  Li5  1  0.31760700  0.66446800  0.17048100  1
  Li  Li6  1  0.31760700  0.33553200  0.67048100  1
  Li  Li7  1  0.89227350  0.38383150  0.45727500  1
  V  V8  1  0.64983900  0.32035500  0.84629200  1
  V  V9  1  0.64983900  0.67964500  0.34629200  1
  V  V10  1  0.14983900  0.82035500  0.84629200  1
  V  V11  1  0.14983900  0.17964500  0.34629200  1
  F  F12  1  0.57526750  0.01907950  0.90225400  1
  F  F13  1  0.28225250  0.16857850  0.50389600  1
  F  F14  1  0.77733300  0.15670700  0.74014900  1
  F  F15  1  0.77733300  0.84329300  0.24014900  1
  F  F16  1  0.52013650  0.33588750  0.69770300  1
  F  F17  1  0.50680800  0.44912100  0.94618200  1
  F  F18  1  0.50680800  0.55087900  0.44618200  1
  F  F19  1  0.52013650  0.66411250  0.19770300  1
  F  F20  1  0.24736250  0.12243750  0.80657200  1
  F  F21  1  0.24736250  0.87756250  0.30657200  1
  F  F22  1  0.28225250  0.83142150  0.00389600  1
  F  F23  1  0.57526750  0.98092050  0.40225400  1
  F  F24  1  0.07526750  0.51907950  0.90225400  1
  F  F25  1  0.78225250  0.66857850  0.50389600  1
  F  F26  1  0.27733300  0.65670700  0.74014900  1
  F  F27  1  0.27733300  0.34329300  0.24014900  1
  F  F28  1  0.02013650  0.83588750  0.69770300  1
  F  F29  1  0.00680800  0.94912100  0.94618200  1
  F  F30  1  0.00680800  0.05087900  0.44618200  1
  F  F31  1  0.02013650  0.16411250  0.19770300  1
  F  F32  1  0.74736250  0.62243750  0.80657200  1
  F  F33  1  0.74736250  0.37756250  0.30657200  1
  F  F34  1  0.78225250  0.33142150  0.00389600  1
  F  F35  1  0.07526750  0.48092050  0.40225400  1
