# generated using pymatgen
data_CrAuS2
_symmetry_space_group_name_H-M   'P 1'
_cell_length_a   3.55507380
_cell_length_b   3.55507380
_cell_length_c   21.43726849
_cell_angle_alpha   90.00000000
_cell_angle_beta   90.00000000
_cell_angle_gamma   120.00000000
_symmetry_Int_Tables_number   1
_chemical_formula_structural   CrAuS2
_chemical_formula_sum   'Cr3 Au3 S6'
_cell_volume   234.63744530
_cell_formula_units_Z   3
loop_
 _symmetry_equiv_pos_site_id
 _symmetry_equiv_pos_as_xyz
  1  'x, y, z'
loop_
 _atom_site_type_symbol
 _atom_site_label
 _atom_site_symmetry_multiplicity
 _atom_site_fract_x
 _atom_site_fract_y
 _atom_site_fract_z
 _atom_site_occupancy
  Cr  Cr0  1  0.33333333  0.66666667  0.16666667  1
  Cr  Cr1  1  1.00000000  1.00000000  0.50000000  1
  Cr  Cr2  1  0.66666667  0.33333333  0.83333333  1
  Au  Au3  1  0.00000000  0.00000000  0.00000000  1
  Au  Au4  1  0.66666667  0.33333333  0.33333333  1
  Au  Au5  1  0.33333333  0.66666667  0.66666667  1
  S  S6  1  0.66666667  0.33333333  0.22489233  1
  S  S7  1  0.00000000  0.00000000  0.10844100  1
  S  S8  1  0.33333333  0.66666667  0.55822567  1
  S  S9  1  0.66666667  0.33333333  0.44177433  1
  S  S10  1  0.00000000  0.00000000  0.89155900  1
  S  S11  1  0.33333333  0.66666667  0.77510767  1
