# generated using pymatgen
data_NaSnPHO4F
_symmetry_space_group_name_H-M   'P 1'
_cell_length_a   4.86981600
_cell_length_b   5.32485100
_cell_length_c   19.13870100
_cell_angle_alpha   90.00000000
_cell_angle_beta   90.00000000
_cell_angle_gamma   90.00000000
_symmetry_Int_Tables_number   1
_chemical_formula_structural   NaSnPHO4F
_chemical_formula_sum   'Na4 Sn4 P4 H4 O16 F4'
_cell_volume   496.28650917
_cell_formula_units_Z   4
loop_
 _symmetry_equiv_pos_site_id
 _symmetry_equiv_pos_as_xyz
  1  'x, y, z'
loop_
 _atom_site_type_symbol
 _atom_site_label
 _atom_site_symmetry_multiplicity
 _atom_site_fract_x
 _atom_site_fract_y
 _atom_site_fract_z
 _atom_site_occupancy
  Na  Na0  1  0.23036500  0.75000000  0.00917900  1
  Na  Na1  1  0.26963500  0.25000000  0.50917900  1
  Na  Na2  1  0.73036500  0.75000000  0.49082100  1
  Na  Na3  1  0.76963500  0.25000000  0.99082100  1
  Sn  Sn4  1  0.22723500  0.25000000  0.13816400  1
  Sn  Sn5  1  0.27276500  0.75000000  0.63816400  1
  Sn  Sn6  1  0.72723500  0.25000000  0.36183600  1
  Sn  Sn7  1  0.77276500  0.75000000  0.86183600  1
  P  P8  1  0.20738100  0.25000000  0.87242600  1
  P  P9  1  0.29261900  0.75000000  0.37242600  1
  P  P10  1  0.70738100  0.25000000  0.62757400  1
  P  P11  1  0.79261900  0.75000000  0.12757400  1
  H  H12  1  0.07754600  0.75000000  0.22142900  1
  H  H13  1  0.42245400  0.25000000  0.72142900  1
  H  H14  1  0.57754600  0.75000000  0.27857100  1
  H  H15  1  0.92245400  0.25000000  0.77857100  1
  O  O16  1  0.01772200  0.25000000  0.62541700  1
  O  O17  1  0.07811600  0.01260900  0.90615700  1
  O  O18  1  0.07811600  0.48739100  0.90615700  1
  O  O19  1  0.12065300  0.25000000  0.78992000  1
  O  O20  1  0.37934700  0.75000000  0.28992000  1
  O  O21  1  0.42188400  0.51260900  0.40615700  1
  O  O22  1  0.42188400  0.98739100  0.40615700  1
  O  O23  1  0.48227800  0.75000000  0.12541700  1
  O  O24  1  0.51772200  0.25000000  0.87458300  1
  O  O25  1  0.57811600  0.01260900  0.59384300  1
  O  O26  1  0.57811600  0.48739100  0.59384300  1
  O  O27  1  0.62065300  0.25000000  0.71008000  1
  O  O28  1  0.87934700  0.75000000  0.21008000  1
  O  O29  1  0.92188400  0.51260900  0.09384300  1
  O  O30  1  0.92188400  0.98739100  0.09384300  1
  O  O31  1  0.98227800  0.75000000  0.37458300  1
  F  F32  1  0.15054300  0.75000000  0.53498500  1
  F  F33  1  0.34945700  0.25000000  0.03498500  1
  F  F34  1  0.65054300  0.75000000  0.96501500  1
  F  F35  1  0.84945700  0.25000000  0.46501500  1
