# generated using pymatgen
data_Li3MnFe2(BO3)3
_symmetry_space_group_name_H-M   'P 1'
_cell_length_a   8.26020800
_cell_length_b   3.14898000
_cell_length_c   14.30411954
_cell_angle_alpha   90.00000000
_cell_angle_beta   90.11243970
_cell_angle_gamma   90.00000000
_symmetry_Int_Tables_number   1
_chemical_formula_structural   Li3MnFe2(BO3)3
_chemical_formula_sum   'Li6 Mn2 Fe4 B6 O18'
_cell_volume   372.06702392
_cell_formula_units_Z   2
loop_
 _symmetry_equiv_pos_site_id
 _symmetry_equiv_pos_as_xyz
  1  'x, y, z'
loop_
 _atom_site_type_symbol
 _atom_site_label
 _atom_site_symmetry_multiplicity
 _atom_site_fract_x
 _atom_site_fract_y
 _atom_site_fract_z
 _atom_site_occupancy
  Li  Li0  1  0.29270800  0.50000000  0.99266200  1
  Li  Li1  1  0.33940800  0.50000000  0.35794400  1
  Li  Li2  1  0.36502500  0.50000000  0.64983800  1
  Li  Li3  1  0.79308600  0.50000000  0.49014800  1
  Li  Li4  1  0.84323000  0.50000000  0.85683100  1
  Li  Li5  1  0.86797400  0.50000000  0.15166400  1
  Mn  Mn6  1  0.63353400  0.00000000  0.00596600  1
  Mn  Mn7  1  0.69205200  0.00000000  0.67987900  1
  Fe  Fe8  1  0.13665400  0.00000000  0.50375500  1
  Fe  Fe9  1  0.17598600  0.00000000  0.81659400  1
  Fe  Fe10  1  0.18782900  0.00000000  0.18016200  1
  Fe  Fe11  1  0.67535100  0.00000000  0.31651100  1
  B  B12  1  0.00282500  0.50000000  0.66591900  1
  B  B13  1  0.00122700  0.00000000  0.99929200  1
  B  B14  1  0.99982200  0.50000000  0.33333400  1
  B  B15  1  0.49930400  0.50000000  0.16856600  1
  B  B16  1  0.49793100  0.00000000  0.49981200  1
  B  B17  1  0.49744600  0.50000000  0.83318500  1
  O  O18  1  0.01228800  0.50000000  0.43037800  1
  O  O19  1  0.01880000  0.50000000  0.76266000  1
  O  O20  1  0.13852000  0.50000000  0.60835100  1
  O  O21  1  0.13888300  0.50000000  0.27843800  1
  O  O22  1  0.15429000  0.00000000  0.95823100  1
  O  O23  1  0.34590000  0.50000000  0.12799900  1
  O  O24  1  0.34740000  0.50000000  0.78936300  1
  O  O25  1  0.35950300  0.00000000  0.44370200  1
  O  O26  1  0.48360400  0.00000000  0.59619400  1
  O  O27  1  0.50741800  0.50000000  0.93038500  1
  O  O28  1  0.51688300  0.50000000  0.26538900  1
  O  O29  1  0.63747400  0.50000000  0.11204900  1
  O  O30  1  0.63916000  0.50000000  0.78044000  1
  O  O31  1  0.65105100  0.00000000  0.45780900  1
  O  O32  1  0.84843100  0.50000000  0.62513500  1
  O  O33  1  0.84754000  0.50000000  0.29103700  1
  O  O34  1  0.86356300  0.00000000  0.94355100  1
  O  O35  1  0.98789900  0.00000000  0.09682700  1
