# generated using pymatgen
data_BaCaI4
_symmetry_space_group_name_H-M   'P 1'
_cell_length_a   10.83946400
_cell_length_b   10.86842200
_cell_length_c   20.81730195
_cell_angle_alpha   90.00000000
_cell_angle_beta   116.38839233
_cell_angle_gamma   90.00000000
_symmetry_Int_Tables_number   1
_chemical_formula_structural   BaCaI4
_chemical_formula_sum   'Ba8 Ca8 I32'
_cell_volume   2196.90199321
_cell_formula_units_Z   8
loop_
 _symmetry_equiv_pos_site_id
 _symmetry_equiv_pos_as_xyz
  1  'x, y, z'
loop_
 _atom_site_type_symbol
 _atom_site_label
 _atom_site_symmetry_multiplicity
 _atom_site_fract_x
 _atom_site_fract_y
 _atom_site_fract_z
 _atom_site_occupancy
  Ba  Ba0  1  0.24231000  0.52825700  0.34852700  1
  Ba  Ba1  1  0.68586300  0.79312500  0.35706100  1
  Ba  Ba2  1  0.75769000  0.02825700  0.15147300  1
  Ba  Ba3  1  0.31413700  0.29312500  0.14293900  1
  Ba  Ba4  1  0.68586300  0.70687500  0.85706100  1
  Ba  Ba5  1  0.24231000  0.97174300  0.84852700  1
  Ba  Ba6  1  0.31413700  0.20687500  0.64293900  1
  Ba  Ba7  1  0.75769000  0.47174300  0.65147300  1
  Ca  Ca8  1  0.27594100  0.04809100  0.41724900  1
  Ca  Ca9  1  0.84338100  0.33370600  0.41925500  1
  Ca  Ca10  1  0.72405900  0.54809100  0.08275100  1
  Ca  Ca11  1  0.15661900  0.83370600  0.08074500  1
  Ca  Ca12  1  0.84338100  0.16629400  0.91925500  1
  Ca  Ca13  1  0.27594100  0.45190900  0.91724900  1
  Ca  Ca14  1  0.15661900  0.66629400  0.58074500  1
  Ca  Ca15  1  0.72405900  0.95190900  0.58275100  1
  I  I16  1  0.77926400  0.06895600  0.45613200  1
  I  I17  1  0.13895400  0.27565900  0.44357400  1
  I  I18  1  0.46531100  0.82121900  0.44688800  1
  I  I19  1  0.98790900  0.60436100  0.40932600  1
  I  I20  1  0.59770800  0.50031700  0.39765700  1
  I  I21  1  0.00194500  0.93292500  0.31175300  1
  I  I22  1  0.32734700  0.21947600  0.31078800  1
  I  I23  1  0.68515600  0.24232100  0.26117700  1
  I  I24  1  0.31484400  0.74232100  0.23882300  1
  I  I25  1  0.67265300  0.71947600  0.18921200  1
  I  I26  1  0.99805500  0.43292500  0.18824700  1
  I  I27  1  0.40229200  0.00031700  0.10234300  1
  I  I28  1  0.01209100  0.10436100  0.09067400  1
  I  I29  1  0.86104600  0.77565900  0.05642600  1
  I  I30  1  0.53468900  0.32121900  0.05311200  1
  I  I31  1  0.22073600  0.56895600  0.04386800  1
  I  I32  1  0.77926400  0.43104400  0.95613200  1
  I  I33  1  0.46531100  0.67878100  0.94688800  1
  I  I34  1  0.13895400  0.22434100  0.94357400  1
  I  I35  1  0.98790900  0.89563900  0.90932600  1
  I  I36  1  0.59770800  0.99968300  0.89765700  1
  I  I37  1  0.00194500  0.56707500  0.81175300  1
  I  I38  1  0.32734700  0.28052400  0.81078800  1
  I  I39  1  0.68515600  0.25767900  0.76117700  1
  I  I40  1  0.31484400  0.75767900  0.73882300  1
  I  I41  1  0.67265300  0.78052400  0.68921200  1
  I  I42  1  0.99805500  0.06707500  0.68824700  1
  I  I43  1  0.40229200  0.49968300  0.60234300  1
  I  I44  1  0.01209100  0.39563900  0.59067400  1
  I  I45  1  0.53468900  0.17878100  0.55311200  1
  I  I46  1  0.86104600  0.72434100  0.55642600  1
  I  I47  1  0.22073600  0.93104400  0.54386800  1
