# generated using pymatgen
data_H7S(NO2)2
_symmetry_space_group_name_H-M   'P 1'
_cell_length_a   5.58845500
_cell_length_b   5.61476504
_cell_length_c   8.69511882
_cell_angle_alpha   72.22757154
_cell_angle_beta   75.09293700
_cell_angle_gamma   67.39536799
_symmetry_Int_Tables_number   1
_chemical_formula_structural   H7S(NO2)2
_chemical_formula_sum   'H14 S2 N4 O8'
_cell_volume   236.79672022
_cell_formula_units_Z   2
loop_
 _symmetry_equiv_pos_site_id
 _symmetry_equiv_pos_as_xyz
  1  'x, y, z'
loop_
 _atom_site_type_symbol
 _atom_site_label
 _atom_site_symmetry_multiplicity
 _atom_site_fract_x
 _atom_site_fract_y
 _atom_site_fract_z
 _atom_site_occupancy
  H  H0  1  0.79495500  0.82218500  0.96517100  1
  H  H1  1  0.20504500  0.17781500  0.03482900  1
  H  H2  1  0.99484000  0.75688900  0.10690400  1
  H  H3  1  0.00516000  0.24311100  0.89309600  1
  H  H4  1  0.66858300  0.94981200  0.13234800  1
  H  H5  1  0.33141700  0.05018800  0.86765200  1
  H  H6  1  0.75521200  0.62119400  0.14921200  1
  H  H7  1  0.24478800  0.37880600  0.85078800  1
  H  H8  1  0.79735900  0.23333000  0.43154900  1
  H  H9  1  0.20264100  0.76667000  0.56845100  1
  H  H10  1  0.82272200  0.10068400  0.63635300  1
  H  H11  1  0.17727800  0.89931600  0.36364700  1
  H  H12  1  0.06119400  0.22938600  0.50544500  1
  H  H13  1  0.93880600  0.77061400  0.49455500  1
  S  S14  1  0.59690500  0.62465200  0.72516500  1
  S  S15  1  0.40309500  0.37534800  0.27483500  1
  N  N16  1  0.92620400  0.12781700  0.51839900  1
  N  N17  1  0.07379600  0.87218300  0.48160100  1
  N  N18  1  0.80617100  0.79062500  0.08713900  1
  N  N19  1  0.19382900  0.20937500  0.91286100  1
  O  O20  1  0.69285100  0.66215900  0.54510800  1
  O  O21  1  0.30714900  0.33784100  0.45489200  1
  O  O22  1  0.71421500  0.34259900  0.81084400  1
  O  O23  1  0.28578500  0.65740100  0.18915600  1
  O  O24  1  0.30358200  0.69350600  0.75367300  1
  O  O25  1  0.69641800  0.30649400  0.24632700  1
  O  O26  1  0.66652700  0.80498000  0.78879900  1
  O  O27  1  0.33347300  0.19502000  0.21120100  1
