# generated using pymatgen
data_Li3Sb3P8O29
_symmetry_space_group_name_H-M   'P 1'
_cell_length_a   16.98281600
_cell_length_b   9.84211200
_cell_length_c   14.34933458
_cell_angle_alpha   90.00000000
_cell_angle_beta   90.27773280
_cell_angle_gamma   90.00000000
_symmetry_Int_Tables_number   1
_chemical_formula_structural   Li3Sb3P8O29
_chemical_formula_sum   'Li12 Sb12 P32 O116'
_cell_volume   2398.41685165
_cell_formula_units_Z   4
loop_
 _symmetry_equiv_pos_site_id
 _symmetry_equiv_pos_as_xyz
  1  'x, y, z'
loop_
 _atom_site_type_symbol
 _atom_site_label
 _atom_site_symmetry_multiplicity
 _atom_site_fract_x
 _atom_site_fract_y
 _atom_site_fract_z
 _atom_site_occupancy
  Li  Li0  1  0.49094800  0.45623600  0.49652400  1
  Li  Li1  1  0.49094800  0.54376400  0.99652400  1
  Li  Li2  1  0.38587500  0.28950200  0.05123300  1
  Li  Li3  1  0.38587500  0.71049800  0.55123300  1
  Li  Li4  1  0.16402250  0.06211850  0.55181100  1
  Li  Li5  1  0.16402250  0.93788150  0.05181100  1
  Li  Li6  1  0.99094800  0.95623600  0.49652400  1
  Li  Li7  1  0.99094800  0.04376400  0.99652400  1
  Li  Li8  1  0.88587500  0.78950200  0.05123300  1
  Li  Li9  1  0.88587500  0.21049800  0.55123300  1
  Li  Li10  1  0.66402250  0.56211850  0.55181100  1
  Li  Li11  1  0.66402250  0.43788150  0.05181100  1
  Sb  Sb12  1  0.50101900  0.06257600  0.74940300  1
  Sb  Sb13  1  0.50101900  0.93742400  0.24940300  1
  Sb  Sb14  1  0.78203950  0.78389950  0.25340200  1
  Sb  Sb15  1  0.71737200  0.72134400  0.74937000  1
  Sb  Sb16  1  0.78203950  0.21610050  0.75340200  1
  Sb  Sb17  1  0.71737200  0.27865600  0.24937000  1
  Sb  Sb18  1  0.00101900  0.56257600  0.74940300  1
  Sb  Sb19  1  0.00101900  0.43742400  0.24940300  1
  Sb  Sb20  1  0.28203950  0.28389950  0.25340200  1
  Sb  Sb21  1  0.21737200  0.22134400  0.74937000  1
  Sb  Sb22  1  0.28203950  0.71610050  0.75340200  1
  Sb  Sb23  1  0.21737200  0.77865600  0.24937000  1
  P  P24  1  0.45947850  0.23568150  0.34584400  1
  P  P25  1  0.38850900  0.30158000  0.84248000  1
  P  P26  1  0.45947850  0.76431850  0.84584400  1
  P  P27  1  0.33237150  0.00161650  0.12812400  1
  P  P28  1  0.33237150  0.99838350  0.62812400  1
  P  P29  1  0.38850900  0.69842000  0.34248000  1
  P  P30  1  0.84830900  0.06822500  0.15712800  1
  P  P31  1  0.15577000  0.06790600  0.34451300  1
  P  P32  1  0.84830900  0.93177500  0.65712800  1
  P  P33  1  0.15577000  0.93209400  0.84451300  1
  P  P34  1  0.61050300  0.30430300  0.66111200  1
  P  P35  1  0.66649050  0.00020150  0.87220000  1
  P  P36  1  0.66649050  0.99979850  0.37220000  1
  P  P37  1  0.53996300  0.23621900  0.15795700  1
  P  P38  1  0.61050300  0.69569700  0.16111200  1
  P  P39  1  0.53996300  0.76378100  0.65795700  1
  P  P40  1  0.95947850  0.73568150  0.34584400  1
  P  P41  1  0.88850900  0.80158000  0.84248000  1
  P  P42  1  0.95947850  0.26431850  0.84584400  1
  P  P43  1  0.83237150  0.50161650  0.12812400  1
  P  P44  1  0.83237150  0.49838350  0.62812400  1
  P  P45  1  0.88850900  0.19842000  0.34248000  1
  P  P46  1  0.34830900  0.56822500  0.15712800  1
  P  P47  1  0.65577000  0.56790600  0.34451300  1
  P  P48  1  0.34830900  0.43177500  0.65712800  1
  P  P49  1  0.65577000  0.43209400  0.84451300  1
  P  P50  1  0.11050300  0.80430300  0.66111200  1
  P  P51  1  0.16649050  0.50020150  0.87220000  1
  P  P52  1  0.16649050  0.49979850  0.37220000  1
  P  P53  1  0.03996300  0.73621900  0.15795700  1
  P  P54  1  0.11050300  0.19569700  0.16111200  1
  P  P55  1  0.03996300  0.26378100  0.65795700  1
  O  O56  1  0.50276150  0.29095650  0.25278600  1
  O  O57  1  0.49582850  0.29099050  0.07714900  1
  O  O58  1  0.45976600  0.20388300  0.83382300  1
  O  O59  1  0.89266800  0.90299800  0.75512700  1
  O  O60  1  0.89862600  0.90166500  0.57667400  1
  O  O61  1  0.37331300  0.29048600  0.33895100  1
  O  O62  1  0.45750450  0.07739450  0.33661800  1
  O  O63  1  0.40158550  0.07921350  0.67506100  1
  O  O64  1  0.45750450  0.92260550  0.83661800  1
  O  O65  1  0.49582850  0.70900950  0.57714900  1
  O  O66  1  0.50276150  0.70904350  0.75278600  1
  O  O67  1  0.45976600  0.79611700  0.33382300  1
  O  O68  1  0.33798850  0.15140350  0.16988100  1
  O  O69  1  0.31142950  0.21541150  0.83176200  1
  O  O70  1  0.40158550  0.92078650  0.17506100  1
  O  O71  1  0.33032300  0.00769700  0.02517100  1
  O  O72  1  0.33032300  0.99230300  0.52517100  1
  O  O73  1  0.33798850  0.84859650  0.66988100  1
  O  O74  1  0.23772550  0.13859250  0.33340800  1
  O  O75  1  0.25338250  0.06649650  0.66635900  1
  O  O76  1  0.37331300  0.70951400  0.83895100  1
  O  O77  1  0.89266800  0.09700200  0.25512700  1
  O  O78  1  0.89862600  0.09833500  0.07667400  1
  O  O79  1  0.39319200  0.62159100  0.43122600  1
  O  O80  1  0.31142950  0.78458850  0.33176200  1
  O  O81  1  0.25338250  0.93350350  0.16635900  1
  O  O82  1  0.83105650  0.08942150  0.66004800  1
  O  O83  1  0.23772550  0.86140750  0.83340800  1
  O  O84  1  0.16849550  0.08790050  0.83423500  1
  O  O85  1  0.39319200  0.37840900  0.93122600  1
  O  O86  1  0.10560500  0.09815600  0.08228600  1
  O  O87  1  0.60166400  0.61379600  0.25842400  1
  O  O88  1  0.83105650  0.91057850  0.16004800  1
  O  O89  1  0.76762100  0.14493900  0.16246100  1
  O  O90  1  0.16849550  0.91209950  0.33423500  1
  O  O91  1  0.74456900  0.06095700  0.82719400  1
  O  O92  1  0.68942150  0.22351350  0.66711000  1
  O  O93  1  0.10560500  0.90184400  0.58228600  1
  O  O94  1  0.11597900  0.90179000  0.93380900  1
  O  O95  1  0.60166400  0.38620400  0.75842400  1
  O  O96  1  0.62703600  0.29151500  0.15729200  1
  O  O97  1  0.74456900  0.93904300  0.32719400  1
  O  O98  1  0.76762100  0.85506100  0.66246100  1
  O  O99  1  0.65914500  0.14694300  0.32604600  1
  O  O100  1  0.66700350  0.00025850  0.97459100  1
  O  O101  1  0.66700350  0.99974150  0.47459100  1
  O  O102  1  0.59713350  0.08516750  0.82617500  1
  O  O103  1  0.68942150  0.77648650  0.16711000  1
  O  O104  1  0.65914500  0.85305700  0.82604600  1
  O  O105  1  0.54113900  0.20172600  0.66009200  1
  O  O106  1  0.49990400  0.29192800  0.42799900  1
  O  O107  1  0.54452400  0.07819100  0.16388500  1
  O  O108  1  0.59713350  0.91483250  0.32617500  1
  O  O109  1  0.54452400  0.92180900  0.66388500  1
  O  O110  1  0.62703600  0.70848500  0.65729200  1
  O  O111  1  0.11597900  0.09821000  0.43380900  1
  O  O112  1  0.54113900  0.79827400  0.16009200  1
  O  O113  1  0.49990400  0.70807200  0.92799900  1
  O  O114  1  0.00276150  0.79095650  0.25278600  1
  O  O115  1  0.99582850  0.79099050  0.07714900  1
  O  O116  1  0.95976600  0.70388300  0.83382300  1
  O  O117  1  0.39266800  0.40299800  0.75512700  1
  O  O118  1  0.39862600  0.40166500  0.57667400  1
  O  O119  1  0.87331300  0.79048600  0.33895100  1
  O  O120  1  0.95750450  0.57739450  0.33661800  1
  O  O121  1  0.90158550  0.57921350  0.67506100  1
  O  O122  1  0.95750450  0.42260550  0.83661800  1
  O  O123  1  0.99582850  0.20900950  0.57714900  1
  O  O124  1  0.00276150  0.20904350  0.75278600  1
  O  O125  1  0.95976600  0.29611700  0.33382300  1
  O  O126  1  0.83798850  0.65140350  0.16988100  1
  O  O127  1  0.81142950  0.71541150  0.83176200  1
  O  O128  1  0.90158550  0.42078650  0.17506100  1
  O  O129  1  0.83032300  0.50769700  0.02517100  1
  O  O130  1  0.83032300  0.49230300  0.52517100  1
  O  O131  1  0.83798850  0.34859650  0.66988100  1
  O  O132  1  0.73772550  0.63859250  0.33340800  1
  O  O133  1  0.75338250  0.56649650  0.66635900  1
  O  O134  1  0.87331300  0.20951400  0.83895100  1
  O  O135  1  0.39266800  0.59700200  0.25512700  1
  O  O136  1  0.39862600  0.59833500  0.07667400  1
  O  O137  1  0.89319200  0.12159100  0.43122600  1
  O  O138  1  0.81142950  0.28458850  0.33176200  1
  O  O139  1  0.75338250  0.43350350  0.16635900  1
  O  O140  1  0.33105650  0.58942150  0.66004800  1
  O  O141  1  0.73772550  0.36140750  0.83340800  1
  O  O142  1  0.66849550  0.58790050  0.83423500  1
  O  O143  1  0.89319200  0.87840900  0.93122600  1
  O  O144  1  0.60560500  0.59815600  0.08228600  1
  O  O145  1  0.10166400  0.11379600  0.25842400  1
  O  O146  1  0.33105650  0.41057850  0.16004800  1
  O  O147  1  0.26762100  0.64493900  0.16246100  1
  O  O148  1  0.66849550  0.41209950  0.33423500  1
  O  O149  1  0.24456900  0.56095700  0.82719400  1
  O  O150  1  0.18942150  0.72351350  0.66711000  1
  O  O151  1  0.60560500  0.40184400  0.58228600  1
  O  O152  1  0.61597900  0.40179000  0.93380900  1
  O  O153  1  0.10166400  0.88620400  0.75842400  1
  O  O154  1  0.12703600  0.79151500  0.15729200  1
  O  O155  1  0.24456900  0.43904300  0.32719400  1
  O  O156  1  0.26762100  0.35506100  0.66246100  1
  O  O157  1  0.15914500  0.64694300  0.32604600  1
  O  O158  1  0.16700350  0.50025850  0.97459100  1
  O  O159  1  0.16700350  0.49974150  0.47459100  1
  O  O160  1  0.09713350  0.58516750  0.82617500  1
  O  O161  1  0.18942150  0.27648650  0.16711000  1
  O  O162  1  0.15914500  0.35305700  0.82604600  1
  O  O163  1  0.04113900  0.70172600  0.66009200  1
  O  O164  1  0.99990400  0.79192800  0.42799900  1
  O  O165  1  0.04452400  0.57819100  0.16388500  1
  O  O166  1  0.09713350  0.41483250  0.32617500  1
  O  O167  1  0.04452400  0.42180900  0.66388500  1
  O  O168  1  0.12703600  0.20848500  0.65729200  1
  O  O169  1  0.61597900  0.59821000  0.43380900  1
  O  O170  1  0.04113900  0.29827400  0.16009200  1
  O  O171  1  0.99990400  0.20807200  0.92799900  1
