# generated using pymatgen
data_Ho2P4O13
_symmetry_space_group_name_H-M   'P 1'
_cell_length_a   7.05247000
_cell_length_b   17.57037400
_cell_length_c   8.60552200
_cell_angle_alpha   90.00000000
_cell_angle_beta   90.00000000
_cell_angle_gamma   90.00000000
_symmetry_Int_Tables_number   1
_chemical_formula_structural   Ho2P4O13
_chemical_formula_sum   'Ho8 P16 O52'
_cell_volume   1066.34926157
_cell_formula_units_Z   4
loop_
 _symmetry_equiv_pos_site_id
 _symmetry_equiv_pos_as_xyz
  1  'x, y, z'
loop_
 _atom_site_type_symbol
 _atom_site_label
 _atom_site_symmetry_multiplicity
 _atom_site_fract_x
 _atom_site_fract_y
 _atom_site_fract_z
 _atom_site_occupancy
  Ho  Ho0  1  0.75364600  0.64699000  0.85275800  1
  Ho  Ho1  1  0.24635400  0.64699000  0.64724200  1
  Ho  Ho2  1  0.25364600  0.85301000  0.14724200  1
  Ho  Ho3  1  0.74635400  0.85301000  0.35275800  1
  Ho  Ho4  1  0.25364600  0.14699000  0.85275800  1
  Ho  Ho5  1  0.74635400  0.14699000  0.64724200  1
  Ho  Ho6  1  0.75364600  0.35301000  0.14724200  1
  Ho  Ho7  1  0.24635400  0.35301000  0.35275800  1
  P  P8  1  0.24454400  0.65993300  0.00257200  1
  P  P9  1  0.75545600  0.65993300  0.49742800  1
  P  P10  1  0.27837000  0.55815500  0.27454500  1
  P  P11  1  0.72163000  0.55815500  0.22545500  1
  P  P12  1  0.22163000  0.94184500  0.77454500  1
  P  P13  1  0.77837000  0.94184500  0.72545500  1
  P  P14  1  0.74454400  0.84006700  0.99742800  1
  P  P15  1  0.25545600  0.84006700  0.50257200  1
  P  P16  1  0.74454400  0.15993300  0.00257200  1
  P  P17  1  0.25545600  0.15993300  0.49742800  1
  P  P18  1  0.77837000  0.05815500  0.27454500  1
  P  P19  1  0.22163000  0.05815500  0.22545500  1
  P  P20  1  0.72163000  0.44184500  0.77454500  1
  P  P21  1  0.27837000  0.44184500  0.72545500  1
  P  P22  1  0.24454400  0.34006700  0.99742800  1
  P  P23  1  0.75545600  0.34006700  0.50257200  1
  O  O24  1  0.00000000  0.93818500  0.75000000  1
  O  O25  1  0.92296050  0.85465650  0.09842500  1
  O  O26  1  0.07703950  0.85465650  0.40157500  1
  O  O27  1  0.25525050  0.72815750  0.10853000  1
  O  O28  1  0.74474950  0.72815750  0.39147000  1
  O  O29  1  0.07918000  0.66077500  0.88592000  1
  O  O30  1  0.92082000  0.66077500  0.61408000  1
  O  O31  1  0.77290100  0.61424300  0.10112400  1
  O  O32  1  0.22709900  0.61424300  0.39887600  1
  O  O33  1  0.20214150  0.58517450  0.10848300  1
  O  O34  1  0.79785850  0.58517450  0.39151700  1
  O  O35  1  0.22025500  0.52315400  0.70356300  1
  O  O36  1  0.77974500  0.52315400  0.79643700  1
  O  O37  1  0.72025500  0.97684600  0.29643700  1
  O  O38  1  0.27974500  0.97684600  0.20356300  1
  O  O39  1  0.70214150  0.91482550  0.89151700  1
  O  O40  1  0.29785850  0.91482550  0.60848300  1
  O  O41  1  0.72709900  0.88575700  0.60112400  1
  O  O42  1  0.27290100  0.88575700  0.89887600  1
  O  O43  1  0.57918000  0.83922500  0.11408000  1
  O  O44  1  0.42082000  0.83922500  0.38592000  1
  O  O45  1  0.24474950  0.77184250  0.60853000  1
  O  O46  1  0.75525050  0.77184250  0.89147000  1
  O  O47  1  0.57703950  0.64534350  0.59842500  1
  O  O48  1  0.42296050  0.64534350  0.90157500  1
  O  O49  1  0.50000000  0.56181500  0.25000000  1
  O  O50  1  0.50000000  0.43818500  0.75000000  1
  O  O51  1  0.42296050  0.35465650  0.09842500  1
  O  O52  1  0.57703950  0.35465650  0.40157500  1
  O  O53  1  0.75525050  0.22815750  0.10853000  1
  O  O54  1  0.24474950  0.22815750  0.39147000  1
  O  O55  1  0.57918000  0.16077500  0.88592000  1
  O  O56  1  0.42082000  0.16077500  0.61408000  1
  O  O57  1  0.27290100  0.11424300  0.10112400  1
  O  O58  1  0.72709900  0.11424300  0.39887600  1
  O  O59  1  0.70214150  0.08517450  0.10848300  1
  O  O60  1  0.29785850  0.08517450  0.39151700  1
  O  O61  1  0.72025500  0.02315400  0.70356300  1
  O  O62  1  0.27974500  0.02315400  0.79643700  1
  O  O63  1  0.22025500  0.47684600  0.29643700  1
  O  O64  1  0.77974500  0.47684600  0.20356300  1
  O  O65  1  0.20214150  0.41482550  0.89151700  1
  O  O66  1  0.79785850  0.41482550  0.60848300  1
  O  O67  1  0.22709900  0.38575700  0.60112400  1
  O  O68  1  0.77290100  0.38575700  0.89887600  1
  O  O69  1  0.07918000  0.33922500  0.11408000  1
  O  O70  1  0.92082000  0.33922500  0.38592000  1
  O  O71  1  0.74474950  0.27184250  0.60853000  1
  O  O72  1  0.25525050  0.27184250  0.89147000  1
  O  O73  1  0.07703950  0.14534350  0.59842500  1
  O  O74  1  0.92296050  0.14534350  0.90157500  1
  O  O75  1  0.00000000  0.06181500  0.25000000  1
