# generated using pymatgen
data_Rb3DyO3
_symmetry_space_group_name_H-M   'P 1'
_cell_length_a   7.76549200
_cell_length_b   12.51084200
_cell_length_c   7.30353945
_cell_angle_alpha   90.00000000
_cell_angle_beta   99.00565298
_cell_angle_gamma   90.00000000
_symmetry_Int_Tables_number   1
_chemical_formula_structural   Rb3DyO3
_chemical_formula_sum   'Rb12 Dy4 O12'
_cell_volume   700.81281355
_cell_formula_units_Z   4
loop_
 _symmetry_equiv_pos_site_id
 _symmetry_equiv_pos_as_xyz
  1  'x, y, z'
loop_
 _atom_site_type_symbol
 _atom_site_label
 _atom_site_symmetry_multiplicity
 _atom_site_fract_x
 _atom_site_fract_y
 _atom_site_fract_z
 _atom_site_occupancy
  Rb  Rb0  1  0.36337700  0.00000000  0.64315800  1
  Rb  Rb1  1  0.50000000  0.29405600  0.50000000  1
  Rb  Rb2  1  0.50000000  0.70594400  0.50000000  1
  Rb  Rb3  1  0.50000000  0.75998700  0.00000000  1
  Rb  Rb4  1  0.50000000  0.24001300  0.00000000  1
  Rb  Rb5  1  0.63662300  0.00000000  0.35684200  1
  Rb  Rb6  1  0.86337700  0.50000000  0.64315800  1
  Rb  Rb7  1  0.00000000  0.79405600  0.50000000  1
  Rb  Rb8  1  0.00000000  0.20594400  0.50000000  1
  Rb  Rb9  1  0.00000000  0.25998700  0.00000000  1
  Rb  Rb10  1  0.00000000  0.74001300  0.00000000  1
  Rb  Rb11  1  0.13662300  0.50000000  0.35684200  1
  Dy  Dy12  1  0.17778100  0.00000000  0.14959600  1
  Dy  Dy13  1  0.82221900  0.00000000  0.85040400  1
  Dy  Dy14  1  0.67778100  0.50000000  0.14959600  1
  Dy  Dy15  1  0.32221900  0.50000000  0.85040400  1
  O  O16  1  0.10293500  0.00000000  0.84443000  1
  O  O17  1  0.30783600  0.86107300  0.26907000  1
  O  O18  1  0.30783600  0.13892700  0.26907000  1
  O  O19  1  0.69216400  0.13892700  0.73093000  1
  O  O20  1  0.69216400  0.86107300  0.73093000  1
  O  O21  1  0.89706500  0.00000000  0.15557000  1
  O  O22  1  0.60293500  0.50000000  0.84443000  1
  O  O23  1  0.80783600  0.36107300  0.26907000  1
  O  O24  1  0.80783600  0.63892700  0.26907000  1
  O  O25  1  0.19216400  0.63892700  0.73093000  1
  O  O26  1  0.19216400  0.36107300  0.73093000  1
  O  O27  1  0.39706500  0.50000000  0.15557000  1
