# generated using pymatgen
data_Li3BiS3
_symmetry_space_group_name_H-M   'P 1'
_cell_length_a   10.92606521
_cell_length_b   10.92606521
_cell_length_c   8.20762193
_cell_angle_alpha   90.00000000
_cell_angle_beta   90.00000000
_cell_angle_gamma   120.00000000
_symmetry_Int_Tables_number   1
_chemical_formula_structural   Li3BiS3
_chemical_formula_sum   'Li18 Bi6 S18'
_cell_volume   848.54631331
_cell_formula_units_Z   6
loop_
 _symmetry_equiv_pos_site_id
 _symmetry_equiv_pos_as_xyz
  1  'x, y, z'
loop_
 _atom_site_type_symbol
 _atom_site_label
 _atom_site_symmetry_multiplicity
 _atom_site_fract_x
 _atom_site_fract_y
 _atom_site_fract_z
 _atom_site_occupancy
  Li  Li0  1  0.05153967  0.32473233  0.42304933  1
  Li  Li1  1  0.38487300  0.39347400  0.58971600  1
  Li  Li2  1  0.00860100  0.61512700  0.58971600  1
  Li  Li3  1  0.67526767  0.72680733  0.42304933  1
  Li  Li4  1  0.27319267  0.94846033  0.42304933  1
  Li  Li5  1  0.60652600  0.99139900  0.58971600  1
  Li  Li6  1  0.71820633  0.65806567  0.75638267  1
  Li  Li7  1  0.05153967  0.72680733  0.92304933  1
  Li  Li8  1  0.67526767  0.94846033  0.92304933  1
  Li  Li9  1  0.34193433  0.06014067  0.75638267  1
  Li  Li10  1  0.93985933  0.28179367  0.75638267  1
  Li  Li11  1  0.27319267  0.32473233  0.92304933  1
  Li  Li12  1  0.38487300  0.99139900  0.08971600  1
  Li  Li13  1  0.71820633  0.06014067  0.25638267  1
  Li  Li14  1  0.34193433  0.28179367  0.25638267  1
  Li  Li15  1  0.00860100  0.39347400  0.08971600  1
  Li  Li16  1  0.60652600  0.61512700  0.08971600  1
  Li  Li17  1  0.93985933  0.65806567  0.25638267  1
  Bi  Bi18  1  0.00000000  0.00000000  0.51509300  1
  Bi  Bi19  1  0.00000000  0.00000000  0.01509300  1
  Bi  Bi20  1  0.66666667  0.33333333  0.84842633  1
  Bi  Bi21  1  0.66666667  0.33333333  0.34842633  1
  Bi  Bi22  1  0.33333333  0.66666667  0.18175967  1
  Bi  Bi23  1  0.33333333  0.66666667  0.68175967  1
  S  S24  1  0.79324000  0.21945400  0.49989300  1
  S  S25  1  0.12657333  0.24045267  0.66655967  1
  S  S26  1  0.75954733  0.88612067  0.66655967  1
  S  S27  1  0.42621400  0.20676000  0.49989300  1
  S  S28  1  0.11387933  0.87342667  0.66655967  1
  S  S29  1  0.78054600  0.57378600  0.49989300  1
  S  S30  1  0.45990667  0.55278733  0.83322633  1
  S  S31  1  0.79324000  0.57378600  0.99989300  1
  S  S32  1  0.42621400  0.21945400  0.99989300  1
  S  S33  1  0.09288067  0.54009333  0.83322633  1
  S  S34  1  0.78054600  0.20676000  0.99989300  1
  S  S35  1  0.44721267  0.90711933  0.83322633  1
  S  S36  1  0.12657333  0.88612067  0.16655967  1
  S  S37  1  0.45990667  0.90711933  0.33322633  1
  S  S38  1  0.09288067  0.55278733  0.33322633  1
  S  S39  1  0.75954733  0.87342667  0.16655967  1
  S  S40  1  0.44721267  0.54009333  0.33322633  1
  S  S41  1  0.11387933  0.24045267  0.16655967  1
