# generated using pymatgen
data_Na3Mn2P2(CO7)2
_symmetry_space_group_name_H-M   'P 1'
_cell_length_a   5.22652100
_cell_length_b   9.03269667
_cell_length_c   13.16790812
_cell_angle_alpha   91.05701042
_cell_angle_beta   90.25411339
_cell_angle_gamma   91.87683066
_symmetry_Int_Tables_number   1
_chemical_formula_structural   Na3Mn2P2(CO7)2
_chemical_formula_sum   'Na6 Mn4 P4 C4 O28'
_cell_volume   621.20428072
_cell_formula_units_Z   2
loop_
 _symmetry_equiv_pos_site_id
 _symmetry_equiv_pos_as_xyz
  1  'x, y, z'
loop_
 _atom_site_type_symbol
 _atom_site_label
 _atom_site_symmetry_multiplicity
 _atom_site_fract_x
 _atom_site_fract_y
 _atom_site_fract_z
 _atom_site_occupancy
  Na  Na0  1  0.24424600  0.76421100  0.00186400  1
  Na  Na1  1  0.24722400  0.76417800  0.75581000  1
  Na  Na2  1  0.24147800  0.75509100  0.48162400  1
  Na  Na3  1  0.75852200  0.24490900  0.51837600  1
  Na  Na4  1  0.75277600  0.23582200  0.24419000  1
  Na  Na5  1  0.75575400  0.23578900  0.99813600  1
  Mn  Mn6  1  0.78425800  0.65074400  0.62542700  1
  Mn  Mn7  1  0.78478700  0.65351800  0.13072200  1
  Mn  Mn8  1  0.21521300  0.34648200  0.86927800  1
  Mn  Mn9  1  0.21574200  0.34925600  0.37457300  1
  P  P10  1  0.71941700  0.57282200  0.87794400  1
  P  P11  1  0.71595600  0.57266800  0.37413400  1
  P  P12  1  0.28404400  0.42733200  0.62586600  1
  P  P13  1  0.28058300  0.42717800  0.12205600  1
  C  C14  1  0.72947600  0.91932600  0.62578500  1
  C  C15  1  0.73152300  0.92084100  0.12516000  1
  C  C16  1  0.27052400  0.08067400  0.37421500  1
  C  C17  1  0.26847700  0.07915900  0.87484000  1
  O  O18  1  0.29756900  0.94320700  0.88015600  1
  O  O19  1  0.29852600  0.94656000  0.37642600  1
  O  O20  1  0.95271200  0.85354200  0.62820400  1
  O  O21  1  0.95396000  0.85782200  0.12764800  1
  O  O22  1  0.54146300  0.82171800  0.12855500  1
  O  O23  1  0.53731500  0.81819500  0.62537200  1
  O  O24  1  0.77918100  0.67262500  0.97322500  1
  O  O25  1  0.78730900  0.66845800  0.78583200  1
  O  O26  1  0.79149100  0.67191200  0.46649500  1
  O  O27  1  0.78177300  0.66585100  0.28050800  1
  O  O28  1  0.42345800  0.53321600  0.87621500  1
  O  O29  1  0.42349500  0.53221500  0.37967100  1
  O  O30  1  0.14012700  0.57575200  0.62592500  1
  O  O31  1  0.13229700  0.57224800  0.11960800  1
  O  O32  1  0.86770300  0.42775200  0.88039200  1
  O  O33  1  0.85987300  0.42424800  0.37407500  1
  O  O34  1  0.57650500  0.46778500  0.62032900  1
  O  O35  1  0.57654200  0.46678400  0.12378500  1
  O  O36  1  0.21822700  0.33414900  0.71949200  1
  O  O37  1  0.20850900  0.32808800  0.53350500  1
  O  O38  1  0.21269100  0.33154200  0.21416800  1
  O  O39  1  0.22081900  0.32737500  0.02677500  1
  O  O40  1  0.45853700  0.17828200  0.87144500  1
  O  O41  1  0.46268500  0.18180500  0.37462800  1
  O  O42  1  0.04604000  0.14217800  0.87235200  1
  O  O43  1  0.04728800  0.14645800  0.37179600  1
  O  O44  1  0.70147400  0.05344000  0.62357400  1
  O  O45  1  0.70243100  0.05679300  0.11984400  1
