# generated using pymatgen
data_K5Se3
_symmetry_space_group_name_H-M   'P 1'
_cell_length_a   13.04068000
_cell_length_b   13.04068000
_cell_length_c   6.19054400
_cell_angle_alpha   90.00000000
_cell_angle_beta   90.00000000
_cell_angle_gamma   90.00000000
_symmetry_Int_Tables_number   1
_chemical_formula_structural   K5Se3
_chemical_formula_sum   'K20 Se12'
_cell_volume   1052.75979508
_cell_formula_units_Z   4
loop_
 _symmetry_equiv_pos_site_id
 _symmetry_equiv_pos_as_xyz
  1  'x, y, z'
loop_
 _atom_site_type_symbol
 _atom_site_label
 _atom_site_symmetry_multiplicity
 _atom_site_fract_x
 _atom_site_fract_y
 _atom_site_fract_z
 _atom_site_occupancy
  K  K0  1  0.41053350  0.71555450  0.50000000  1
  K  K1  1  0.22505250  0.90861450  0.50000000  1
  K  K2  1  0.21555450  0.08946650  0.00000000  1
  K  K3  1  0.59138550  0.72505250  0.00000000  1
  K  K4  1  0.50000000  0.00000000  0.75000000  1
  K  K5  1  0.50000000  0.00000000  0.25000000  1
  K  K6  1  0.40861450  0.27494750  0.00000000  1
  K  K7  1  0.78444550  0.91053350  0.00000000  1
  K  K8  1  0.77494750  0.09138550  0.50000000  1
  K  K9  1  0.58946650  0.28444550  0.50000000  1
  K  K10  1  0.91053350  0.21555450  0.00000000  1
  K  K11  1  0.72505250  0.40861450  0.00000000  1
  K  K12  1  0.71555450  0.58946650  0.50000000  1
  K  K13  1  0.09138550  0.22505250  0.50000000  1
  K  K14  1  0.00000000  0.50000000  0.25000000  1
  K  K15  1  0.00000000  0.50000000  0.75000000  1
  K  K16  1  0.90861450  0.77494750  0.50000000  1
  K  K17  1  0.28444550  0.41053350  0.50000000  1
  K  K18  1  0.27494750  0.59138550  0.00000000  1
  K  K19  1  0.08946650  0.78444550  0.00000000  1
  Se  Se20  1  0.34400050  0.84715850  0.00000000  1
  Se  Se21  1  0.65284150  0.84400050  0.50000000  1
  Se  Se22  1  0.34715850  0.15599950  0.50000000  1
  Se  Se23  1  0.65599950  0.15284150  0.00000000  1
  Se  Se24  1  0.00000000  0.00000000  0.29733150  1
  Se  Se25  1  0.00000000  0.00000000  0.70266850  1
  Se  Se26  1  0.84400050  0.34715850  0.50000000  1
  Se  Se27  1  0.15284150  0.34400050  0.00000000  1
  Se  Se28  1  0.84715850  0.65599950  0.00000000  1
  Se  Se29  1  0.15599950  0.65284150  0.50000000  1
  Se  Se30  1  0.50000000  0.50000000  0.79733150  1
  Se  Se31  1  0.50000000  0.50000000  0.20266850  1
