# generated using pymatgen
data_PH6NO4
_symmetry_space_group_name_H-M   'P 1'
_cell_length_a   7.49865600
_cell_length_b   7.76249500
_cell_length_c   8.01087200
_cell_angle_alpha   90.00000000
_cell_angle_beta   90.00000000
_cell_angle_gamma   90.00000000
_symmetry_Int_Tables_number   1
_chemical_formula_structural   PH6NO4
_chemical_formula_sum   'P4 H24 N4 O16'
_cell_volume   466.29907807
_cell_formula_units_Z   4
loop_
 _symmetry_equiv_pos_site_id
 _symmetry_equiv_pos_as_xyz
  1  'x, y, z'
loop_
 _atom_site_type_symbol
 _atom_site_label
 _atom_site_symmetry_multiplicity
 _atom_site_fract_x
 _atom_site_fract_y
 _atom_site_fract_z
 _atom_site_occupancy
  P  P0  1  0.18786200  0.22908600  0.71708100  1
  P  P1  1  0.68786200  0.27091400  0.28291900  1
  P  P2  1  0.31213800  0.77091400  0.21708100  1
  P  P3  1  0.81213800  0.72908600  0.78291900  1
  H  H4  1  0.05290600  0.44340900  0.86319900  1
  H  H5  1  0.55290600  0.05659100  0.13680100  1
  H  H6  1  0.44709400  0.55659100  0.36319900  1
  H  H7  1  0.94709400  0.94340900  0.63680100  1
  H  H8  1  0.37937800  0.35085600  0.53975500  1
  H  H9  1  0.87937800  0.14914400  0.46024500  1
  H  H10  1  0.12062200  0.64914400  0.03975500  1
  H  H11  1  0.62062200  0.85085600  0.96024500  1
  H  H12  1  0.68842600  0.22571400  0.89017900  1
  H  H13  1  0.18842600  0.27428600  0.10982100  1
  H  H14  1  0.81157400  0.77428600  0.39017900  1
  H  H15  1  0.31157400  0.72571400  0.60982100  1
  H  H16  1  0.60797200  0.19213500  0.70035100  1
  H  H17  1  0.17085200  0.72316900  0.77670900  1
  H  H18  1  0.89202800  0.80786500  0.20035100  1
  H  H19  1  0.39202800  0.69213500  0.79964900  1
  H  H20  1  0.68639200  0.39423400  0.74981400  1
  H  H21  1  0.18639200  0.10576600  0.25018600  1
  H  H22  1  0.81360800  0.60576600  0.24981400  1
  H  H23  1  0.31360800  0.89423400  0.75018600  1
  H  H24  1  0.82914800  0.22316900  0.72329100  1
  H  H25  1  0.32914800  0.27683100  0.27670900  1
  H  H26  1  0.67085200  0.77683100  0.22329100  1
  H  H27  1  0.10797200  0.30786500  0.29964900  1
  N  N28  1  0.29711200  0.75903700  0.73387800  1
  N  N29  1  0.20288800  0.24096300  0.23387800  1
  N  N30  1  0.70288800  0.25903700  0.76612200  1
  N  N31  1  0.79711200  0.74096300  0.26612200  1
  O  O32  1  0.77291300  0.11864700  0.39096700  1
  O  O33  1  0.52629300  0.34738600  0.37619800  1
  O  O34  1  0.47370700  0.84738600  0.12380200  1
  O  O35  1  0.97370700  0.65261400  0.87619800  1
  O  O36  1  0.27291300  0.38135300  0.60903300  1
  O  O37  1  0.02629300  0.15261400  0.62380200  1
  O  O38  1  0.22708700  0.61864700  0.10903300  1
  O  O39  1  0.72708700  0.88135300  0.89096700  1
  O  O40  1  0.88541300  0.82959800  0.62196400  1
  O  O41  1  0.82751100  0.39698100  0.22737700  1
  O  O42  1  0.32751100  0.10301900  0.77262300  1
  O  O43  1  0.67248900  0.60301900  0.72737700  1
  O  O44  1  0.38541300  0.67040200  0.37803600  1
  O  O45  1  0.61458700  0.17040200  0.12196400  1
  O  O46  1  0.11458700  0.32959800  0.87803600  1
  O  O47  1  0.17248900  0.89698100  0.27262300  1
