# generated using pymatgen
data_LiNiH12(SO7)2
_symmetry_space_group_name_H-M   'P 1'
_cell_length_a   5.89845400
_cell_length_b   11.52373500
_cell_length_c   8.70726622
_cell_angle_alpha   90.00000000
_cell_angle_beta   103.80900985
_cell_angle_gamma   90.00000000
_symmetry_Int_Tables_number   1
_chemical_formula_structural   LiNiH12(SO7)2
_chemical_formula_sum   'Li2 Ni2 H24 S4 O28'
_cell_volume   574.74577430
_cell_formula_units_Z   2
loop_
 _symmetry_equiv_pos_site_id
 _symmetry_equiv_pos_as_xyz
  1  'x, y, z'
loop_
 _atom_site_type_symbol
 _atom_site_label
 _atom_site_symmetry_multiplicity
 _atom_site_fract_x
 _atom_site_fract_y
 _atom_site_fract_z
 _atom_site_occupancy
  Li  Li0  1  0.34671100  0.87583800  0.38515300  1
  Li  Li1  1  0.65328900  0.37583800  0.61484700  1
  Ni  Ni2  1  0.00249500  0.99892400  0.75035700  1
  Ni  Ni3  1  0.99750500  0.49892400  0.24964300  1
  H  H4  1  0.98378100  0.19206200  0.87794100  1
  H  H5  1  0.33025700  0.14509900  0.78314300  1
  H  H6  1  0.68391700  0.94183500  0.86574200  1
  H  H7  1  0.93433100  0.59968600  0.98092100  1
  H  H8  1  0.91060300  0.37308200  0.99246300  1
  H  H9  1  0.32783400  0.90815000  0.96395500  1
  H  H10  1  0.67216600  0.40815000  0.03604500  1
  H  H11  1  0.08939700  0.87308200  0.00753700  1
  H  H12  1  0.06566900  0.09968600  0.01907900  1
  H  H13  1  0.31608300  0.44183500  0.13425800  1
  H  H14  1  0.66974300  0.64509900  0.21685700  1
  H  H15  1  0.01621900  0.69206200  0.12205900  1
  H  H16  1  0.98067900  0.30573200  0.38620200  1
  H  H17  1  0.32501200  0.35340300  0.28431500  1
  H  H18  1  0.68103600  0.55211700  0.36327800  1
  H  H19  1  0.92169700  0.90256700  0.48038300  1
  H  H20  1  0.90980200  0.12857600  0.49641500  1
  H  H21  1  0.32562100  0.58406400  0.46363300  1
  H  H22  1  0.67437900  0.08406400  0.53636700  1
  H  H23  1  0.09019800  0.62857600  0.50358500  1
  H  H24  1  0.07830300  0.40256700  0.51961700  1
  H  H25  1  0.31896400  0.05211700  0.63672200  1
  H  H26  1  0.67498800  0.85340300  0.71568500  1
  H  H27  1  0.01932100  0.80573200  0.61379800  1
  S  S28  1  0.27359400  0.36559300  0.82436800  1
  S  S29  1  0.72640600  0.86559300  0.17563200  1
  S  S30  1  0.27313200  0.13429100  0.34141000  1
  S  S31  1  0.72686800  0.63429100  0.65859000  1
  O  O32  1  0.75295100  0.57932100  0.81365400  1
  O  O33  1  0.29127900  0.05976700  0.74653600  1
  O  O34  1  0.95882600  0.11100500  0.91121500  1
  O  O35  1  0.42394100  0.26132800  0.82365700  1
  O  O36  1  0.02912600  0.33051100  0.82998400  1
  O  O37  1  0.16327600  0.88398200  0.91754000  1
  O  O38  1  0.37873700  0.43691300  0.96567700  1
  O  O39  1  0.62126300  0.93691300  0.03432300  1
  O  O40  1  0.83672400  0.38398200  0.08246000  1
  O  O41  1  0.97087400  0.83051100  0.17001600  1
  O  O42  1  0.57605900  0.76132800  0.17634300  1
  O  O43  1  0.04117400  0.61100500  0.08878500  1
  O  O44  1  0.70872100  0.55976700  0.25346400  1
  O  O45  1  0.24704900  0.07932100  0.18634600  1
  O  O46  1  0.73317700  0.93212700  0.32244300  1
  O  O47  1  0.28784300  0.43613500  0.24447600  1
  O  O48  1  0.95457100  0.38793100  0.41840700  1
  O  O49  1  0.43300800  0.23627800  0.36527500  1
  O  O50  1  0.04302800  0.17156500  0.36749900  1
  O  O51  1  0.16805500  0.61491800  0.41432200  1
  O  O52  1  0.37674100  0.04302000  0.46483400  1
  O  O53  1  0.62325900  0.54302000  0.53516600  1
  O  O54  1  0.83194500  0.11491800  0.58567800  1
  O  O55  1  0.95697200  0.67156500  0.63250100  1
  O  O56  1  0.56699200  0.73627800  0.63472500  1
  O  O57  1  0.04542900  0.88793100  0.58159300  1
  O  O58  1  0.71215700  0.93613500  0.75552400  1
  O  O59  1  0.26682300  0.43212700  0.67755700  1
