# generated using pymatgen
data_VO2
_symmetry_space_group_name_H-M   'P 1'
_cell_length_a   7.74858300
_cell_length_b   8.57163400
_cell_length_c   8.65068300
_cell_angle_alpha   90.00000000
_cell_angle_beta   90.00000000
_cell_angle_gamma   90.00000000
_symmetry_Int_Tables_number   1
_chemical_formula_structural   VO2
_chemical_formula_sum   'V16 O32'
_cell_volume   574.56121483
_cell_formula_units_Z   16
loop_
 _symmetry_equiv_pos_site_id
 _symmetry_equiv_pos_as_xyz
  1  'x, y, z'
loop_
 _atom_site_type_symbol
 _atom_site_label
 _atom_site_symmetry_multiplicity
 _atom_site_fract_x
 _atom_site_fract_y
 _atom_site_fract_z
 _atom_site_occupancy
  V  V0  1  0.75000000  0.51257100  0.04997200  1
  V  V1  1  0.99843000  0.29875300  0.24319700  1
  V  V2  1  0.49843000  0.70124700  0.24319700  1
  V  V3  1  0.50000000  0.00000000  0.94303300  1
  V  V4  1  0.00157000  0.70124700  0.24319700  1
  V  V5  1  0.25000000  0.48742900  0.04997200  1
  V  V6  1  0.00000000  0.00000000  0.94303300  1
  V  V7  1  0.50157000  0.29875300  0.24319700  1
  V  V8  1  0.75000000  0.80083000  0.74071800  1
  V  V9  1  0.25000000  0.78693400  0.75308500  1
  V  V10  1  0.75000000  0.50270400  0.44287000  1
  V  V11  1  0.00000000  0.00000000  0.54061700  1
  V  V12  1  0.25000000  0.19917000  0.74071800  1
  V  V13  1  0.50000000  0.00000000  0.54061700  1
  V  V14  1  0.75000000  0.21306600  0.75308500  1
  V  V15  1  0.25000000  0.49729600  0.44287000  1
  O  O16  1  0.50000000  0.50000000  0.40025200  1
  O  O17  1  0.50617700  0.15132000  0.74774000  1
  O  O18  1  0.75000000  0.99620900  0.59622400  1
  O  O19  1  0.99382300  0.15132000  0.74774000  1
  O  O20  1  0.25000000  0.00379100  0.59622400  1
  O  O21  1  0.50000000  0.50000000  0.10191500  1
  O  O22  1  0.25000000  0.00563900  0.89381800  1
  O  O23  1  0.75000000  0.65225100  0.24738700  1
  O  O24  1  0.00617700  0.84868000  0.74774000  1
  O  O25  1  0.25000000  0.34774900  0.24738700  1
  O  O26  1  0.75000000  0.35104100  0.25099800  1
  O  O27  1  0.00000000  0.50000000  0.40025200  1
  O  O28  1  0.00000000  0.50000000  0.10191500  1
  O  O29  1  0.49382300  0.84868000  0.74774000  1
  O  O30  1  0.25000000  0.64895900  0.25099800  1
  O  O31  1  0.75000000  0.99436100  0.89381800  1
  O  O32  1  0.75000000  0.66036000  0.59830800  1
  O  O33  1  0.25000000  0.34452400  0.91361800  1
  O  O34  1  0.75000000  0.33444500  0.91038500  1
  O  O35  1  0.99938400  0.15565700  0.41793200  1
  O  O36  1  0.25000000  0.33964000  0.59830800  1
  O  O37  1  0.50114000  0.16113800  0.09983100  1
  O  O38  1  0.00114000  0.83886200  0.09983100  1
  O  O39  1  0.49886000  0.83886200  0.09983100  1
  O  O40  1  0.25000000  0.66555500  0.91038500  1
  O  O41  1  0.00061600  0.84434300  0.41793200  1
  O  O42  1  0.75000000  0.33416700  0.59993700  1
  O  O43  1  0.49938400  0.84434300  0.41793200  1
  O  O44  1  0.50061600  0.15565700  0.41793200  1
  O  O45  1  0.99886000  0.16113800  0.09983100  1
  O  O46  1  0.75000000  0.65547600  0.91361800  1
  O  O47  1  0.25000000  0.66583300  0.59993700  1
