# generated using pymatgen
data_Zr2N2O
_symmetry_space_group_name_H-M   'P 1'
_cell_length_a   8.86510835
_cell_length_b   8.87993581
_cell_length_c   8.88031520
_cell_angle_alpha   109.49253697
_cell_angle_beta   109.35391945
_cell_angle_gamma   109.51957562
_symmetry_Int_Tables_number   1
_chemical_formula_structural   Zr2N2O
_chemical_formula_sum   'Zr16 N16 O8'
_cell_volume   538.46143480
_cell_formula_units_Z   8
loop_
 _symmetry_equiv_pos_site_id
 _symmetry_equiv_pos_as_xyz
  1  'x, y, z'
loop_
 _atom_site_type_symbol
 _atom_site_label
 _atom_site_symmetry_multiplicity
 _atom_site_fract_x
 _atom_site_fract_y
 _atom_site_fract_z
 _atom_site_occupancy
  Zr  Zr0  1  0.00353692  0.00139002  0.49892645  1
  Zr  Zr1  1  0.75245590  0.78318401  0.95582269  1
  Zr  Zr2  1  0.96815329  0.24648403  0.78009343  1
  Zr  Zr3  1  0.53157281  0.74768778  0.70839567  1
  Zr  Zr4  1  0.71214416  0.45997068  0.75685014  1
  Zr  Zr5  1  0.21992434  0.96836998  0.75014069  1
  Zr  Zr6  1  0.74958765  0.28805879  0.46445933  1
  Zr  Zr7  1  0.00106155  0.48987428  0.01042484  1
  Zr  Zr8  1  0.49413284  0.49791335  0.49074910  1
  Zr  Zr9  1  0.49462243  0.01105232  0.99797475  1
  Zr  Zr10  1  0.25796086  0.71353879  0.53221237  1
  Zr  Zr11  1  0.28175864  0.53400044  0.25458914  1
  Zr  Zr12  1  0.78579221  0.03659889  0.24629528  1
  Zr  Zr13  1  0.04594922  0.75690954  0.21339330  1
  Zr  Zr14  1  0.46920395  0.25846017  0.28211166  1
  Zr  Zr15  1  0.23824495  0.20703649  0.04644170  1
  N  N16  1  0.76955513  0.72546560  0.74036048  1
  N  N17  1  0.98433470  0.95066255  0.27828797  1
  N  N18  1  0.27317745  0.73951894  0.77379460  1
  N  N19  1  0.53603611  0.77243971  0.45592901  1
  N  N20  1  0.74130550  0.22659305  0.72630048  1
  N  N21  1  0.54944318  0.53819093  0.22550884  1
  N  N22  1  0.26437023  0.77748148  0.27234157  1
  N  N23  1  0.04796263  0.27571509  0.98322378  1
  N  N24  1  0.27003522  0.00671406  0.95760209  1
  N  N25  1  0.46502395  0.22840332  0.54509003  1
  N  N26  1  0.22746134  0.45679582  0.53438465  1
  N  N27  1  0.72807803  0.25754660  0.22778385  1
  N  N28  1  0.51389352  0.24247590  0.02976741  1
  N  N29  1  0.01113239  0.04221793  0.73011971  1
  N  N30  1  0.03112029  0.49138240  0.23850988  1
  N  N31  1  0.22392462  0.26982396  0.26596396  1
  O  O32  1  0.96481537  0.51460801  0.76043441  1
  O  O33  1  0.49304925  0.76485046  0.96475763  1
  O  O34  1  0.76925350  0.54303193  0.46970534  1
  O  O35  1  0.72488318  0.98456329  0.04754924  1
  O  O36  1  0.23532466  0.96417850  0.48898350  1
  O  O37  1  0.95120320  0.72521816  0.01183222  1
  O  O38  1  0.45780093  0.46810084  0.77020993  1
  O  O39  1  0.76071190  0.03349194  0.51267988  1
