# generated using pymatgen
data_Li4Ti3Ni3(SbO8)2
_symmetry_space_group_name_H-M   'P 1'
_cell_length_a   10.38141400
_cell_length_b   5.96488600
_cell_length_c   9.70472983
_cell_angle_alpha   90.00000000
_cell_angle_beta   90.59644663
_cell_angle_gamma   90.00000000
_symmetry_Int_Tables_number   1
_chemical_formula_structural   Li4Ti3Ni3(SbO8)2
_chemical_formula_sum   'Li8 Ti6 Ni6 Sb4 O32'
_cell_volume   600.92265327
_cell_formula_units_Z   2
loop_
 _symmetry_equiv_pos_site_id
 _symmetry_equiv_pos_as_xyz
  1  'x, y, z'
loop_
 _atom_site_type_symbol
 _atom_site_label
 _atom_site_symmetry_multiplicity
 _atom_site_fract_x
 _atom_site_fract_y
 _atom_site_fract_z
 _atom_site_occupancy
  Li  Li0  1  0.66338400  0.00000000  0.89502800  1
  Li  Li1  1  0.99220500  0.00000000  0.98183700  1
  Li  Li2  1  0.99929800  0.00000000  0.49549300  1
  Li  Li3  1  0.83227300  0.50000000  0.40702300  1
  Li  Li4  1  0.16338400  0.50000000  0.89502800  1
  Li  Li5  1  0.49220500  0.50000000  0.98183700  1
  Li  Li6  1  0.49929800  0.50000000  0.49549300  1
  Li  Li7  1  0.33227300  0.00000000  0.40702300  1
  Ti  Ti8  1  0.58765750  0.24701350  0.21402900  1
  Ti  Ti9  1  0.58765750  0.75298650  0.21402900  1
  Ti  Ti10  1  0.67327600  0.50000000  0.71743600  1
  Ti  Ti11  1  0.08765750  0.74701350  0.21402900  1
  Ti  Ti12  1  0.08765750  0.25298650  0.21402900  1
  Ti  Ti13  1  0.17327600  0.00000000  0.71743600  1
  Ni  Ni14  1  0.82811000  0.00000000  0.21147500  1
  Ni  Ni15  1  0.91407100  0.74343800  0.71150200  1
  Ni  Ni16  1  0.91407100  0.25656200  0.71150200  1
  Ni  Ni17  1  0.32811000  0.50000000  0.21147500  1
  Ni  Ni18  1  0.41407100  0.24343800  0.71150200  1
  Ni  Ni19  1  0.41407100  0.75656200  0.71150200  1
  Sb  Sb20  1  0.67186000  0.00000000  0.49400900  1
  Sb  Sb21  1  0.84207100  0.50000000  0.98233900  1
  Sb  Sb22  1  0.17186000  0.50000000  0.49400900  1
  Sb  Sb23  1  0.34207100  0.00000000  0.98233900  1
  O  O24  1  0.58900650  0.24928350  0.59506900  1
  O  O25  1  0.52049300  0.00000000  0.33943300  1
  O  O26  1  0.65286000  0.00000000  0.10529100  1
  O  O27  1  0.50553600  0.50000000  0.30311200  1
  O  O28  1  0.50837500  0.50000000  0.79788400  1
  O  O29  1  0.58900650  0.75071650  0.59506900  1
  O  O30  1  0.73270600  0.22547400  0.34250500  1
  O  O31  1  0.73270600  0.77452600  0.34250500  1
  O  O32  1  0.67218300  0.50000000  0.10555000  1
  O  O33  1  0.83771600  0.00000000  0.58805000  1
  O  O34  1  0.75318100  0.71873900  0.85320000  1
  O  O35  1  0.75318100  0.28126100  0.85320000  1
  O  O36  1  0.81917100  0.50000000  0.60375400  1
  O  O37  1  0.92196300  0.74735800  0.09946700  1
  O  O38  1  0.98367100  0.50000000  0.84861200  1
  O  O39  1  0.92196300  0.25264200  0.09946700  1
  O  O40  1  0.08900650  0.74928350  0.59506900  1
  O  O41  1  0.02049300  0.50000000  0.33943300  1
  O  O42  1  0.15286000  0.50000000  0.10529100  1
  O  O43  1  0.00553600  0.00000000  0.30311200  1
  O  O44  1  0.00837500  0.00000000  0.79788400  1
  O  O45  1  0.08900650  0.25071650  0.59506900  1
  O  O46  1  0.23270600  0.72547400  0.34250500  1
  O  O47  1  0.23270600  0.27452600  0.34250500  1
  O  O48  1  0.17218300  0.00000000  0.10555000  1
  O  O49  1  0.33771600  0.50000000  0.58805000  1
  O  O50  1  0.25318100  0.21873900  0.85320000  1
  O  O51  1  0.25318100  0.78126100  0.85320000  1
  O  O52  1  0.31917100  0.00000000  0.60375400  1
  O  O53  1  0.42196300  0.24735800  0.09946700  1
  O  O54  1  0.48367100  0.00000000  0.84861200  1
  O  O55  1  0.42196300  0.75264200  0.09946700  1
