# generated using pymatgen
data_DyErO3
_symmetry_space_group_name_H-M   'P 1'
_cell_length_a   6.41186184
_cell_length_b   6.41186184
_cell_length_c   12.70056700
_cell_angle_alpha   90.00000000
_cell_angle_beta   90.00000000
_cell_angle_gamma   120.00000000
_symmetry_Int_Tables_number   1
_chemical_formula_structural   DyErO3
_chemical_formula_sum   'Dy6 Er6 O18'
_cell_volume   452.19114412
_cell_formula_units_Z   6
loop_
 _symmetry_equiv_pos_site_id
 _symmetry_equiv_pos_as_xyz
  1  'x, y, z'
loop_
 _atom_site_type_symbol
 _atom_site_label
 _atom_site_symmetry_multiplicity
 _atom_site_fract_x
 _atom_site_fract_y
 _atom_site_fract_z
 _atom_site_occupancy
  Dy  Dy0  1  0.66666667  0.33333333  0.73431400  1
  Dy  Dy1  1  0.00000000  0.00000000  0.76496300  1
  Dy  Dy2  1  0.00000000  0.00000000  0.26496300  1
  Dy  Dy3  1  0.66666667  0.33333333  0.23431400  1
  Dy  Dy4  1  0.33333333  0.66666667  0.23431400  1
  Dy  Dy5  1  0.33333333  0.66666667  0.73431400  1
  Er  Er6  1  0.66731150  0.66731150  0.99682700  1
  Er  Er7  1  0.33268850  0.33268850  0.49682700  1
  Er  Er8  1  0.33268850  0.00000000  0.99682700  1
  Er  Er9  1  0.66731150  0.00000000  0.49682700  1
  Er  Er10  1  0.00000000  0.66731150  0.49682700  1
  Er  Er11  1  0.00000000  0.33268850  0.99682700  1
  O  O12  1  0.69437050  0.69437050  0.17007000  1
  O  O13  1  0.63499150  0.63499150  0.82494100  1
  O  O14  1  0.36500850  0.36500850  0.32494100  1
  O  O15  1  0.30562950  0.30562950  0.67007000  1
  O  O16  1  0.66666667  0.33333333  0.52054000  1
  O  O17  1  0.00000000  0.00000000  0.96110800  1
  O  O18  1  0.00000000  0.00000000  0.46110800  1
  O  O19  1  0.66666667  0.33333333  0.02054000  1
  O  O20  1  0.30562950  0.00000000  0.17007000  1
  O  O21  1  0.36500850  0.00000000  0.82494100  1
  O  O22  1  0.00000000  0.69437050  0.67007000  1
  O  O23  1  0.63499150  0.00000000  0.32494100  1
  O  O24  1  0.69437050  0.00000000  0.67007000  1
  O  O25  1  0.00000000  0.63499150  0.32494100  1
  O  O26  1  0.33333333  0.66666667  0.02054000  1
  O  O27  1  0.33333333  0.66666667  0.52054000  1
  O  O28  1  0.00000000  0.36500850  0.82494100  1
  O  O29  1  0.00000000  0.30562950  0.17007000  1
