# generated using pymatgen
data_Ba4Ce2O7
_symmetry_space_group_name_H-M   'P 1'
_cell_length_a   6.20828400
_cell_length_b   14.24165600
_cell_length_c   12.26184400
_cell_angle_alpha   90.00000000
_cell_angle_beta   90.00000000
_cell_angle_gamma   90.00000000
_symmetry_Int_Tables_number   1
_chemical_formula_structural   Ba4Ce2O7
_chemical_formula_sum   'Ba16 Ce8 O28'
_cell_volume   1084.14620422
_cell_formula_units_Z   4
loop_
 _symmetry_equiv_pos_site_id
 _symmetry_equiv_pos_as_xyz
  1  'x, y, z'
loop_
 _atom_site_type_symbol
 _atom_site_label
 _atom_site_symmetry_multiplicity
 _atom_site_fract_x
 _atom_site_fract_y
 _atom_site_fract_z
 _atom_site_occupancy
  Ba  Ba0  1  0.21697050  0.15432750  0.88029200  1
  Ba  Ba1  1  0.28302950  0.15432750  0.38029200  1
  Ba  Ba2  1  0.71697050  0.34567250  0.88029200  1
  Ba  Ba3  1  0.71697050  0.15432750  0.61970800  1
  Ba  Ba4  1  0.78302950  0.34567250  0.38029200  1
  Ba  Ba5  1  0.78302950  0.15432750  0.11970800  1
  Ba  Ba6  1  0.21697050  0.34567250  0.61970800  1
  Ba  Ba7  1  0.28302950  0.34567250  0.11970800  1
  Ba  Ba8  1  0.71697050  0.65432750  0.88029200  1
  Ba  Ba9  1  0.78302950  0.65432750  0.38029200  1
  Ba  Ba10  1  0.21697050  0.84567250  0.88029200  1
  Ba  Ba11  1  0.21697050  0.65432750  0.61970800  1
  Ba  Ba12  1  0.28302950  0.84567250  0.38029200  1
  Ba  Ba13  1  0.28302950  0.65432750  0.11970800  1
  Ba  Ba14  1  0.71697050  0.84567250  0.61970800  1
  Ba  Ba15  1  0.78302950  0.84567250  0.11970800  1
  Ce  Ce16  1  0.23131300  0.00000000  0.63086900  1
  Ce  Ce17  1  0.26868700  0.00000000  0.13086900  1
  Ce  Ce18  1  0.73131300  0.00000000  0.86913100  1
  Ce  Ce19  1  0.76868700  0.00000000  0.36913100  1
  Ce  Ce20  1  0.73131300  0.50000000  0.63086900  1
  Ce  Ce21  1  0.76868700  0.50000000  0.13086900  1
  Ce  Ce22  1  0.23131300  0.50000000  0.86913100  1
  Ce  Ce23  1  0.26868700  0.50000000  0.36913100  1
  O  O24  1  0.24169800  0.16181500  0.61772800  1
  O  O25  1  0.25830200  0.16181500  0.11772800  1
  O  O26  1  0.00000000  0.00000000  0.00000000  1
  O  O27  1  0.09860000  0.00000000  0.28949800  1
  O  O28  1  0.74169800  0.16181500  0.88227200  1
  O  O29  1  0.74169800  0.33818500  0.61772800  1
  O  O30  1  0.75830200  0.16181500  0.38227200  1
  O  O31  1  0.75830200  0.33818500  0.11772800  1
  O  O32  1  0.40140000  0.00000000  0.78949800  1
  O  O33  1  0.50000000  0.00000000  0.50000000  1
  O  O34  1  0.59860000  0.00000000  0.21050200  1
  O  O35  1  0.24169800  0.33818500  0.88227200  1
  O  O36  1  0.25830200  0.33818500  0.38227200  1
  O  O37  1  0.90140000  0.00000000  0.71050200  1
  O  O38  1  0.74169800  0.66181500  0.61772800  1
  O  O39  1  0.75830200  0.66181500  0.11772800  1
  O  O40  1  0.50000000  0.50000000  0.00000000  1
  O  O41  1  0.59860000  0.50000000  0.28949800  1
  O  O42  1  0.24169800  0.66181500  0.88227200  1
  O  O43  1  0.24169800  0.83818500  0.61772800  1
  O  O44  1  0.25830200  0.66181500  0.38227200  1
  O  O45  1  0.25830200  0.83818500  0.11772800  1
  O  O46  1  0.90140000  0.50000000  0.78949800  1
  O  O47  1  0.00000000  0.50000000  0.50000000  1
  O  O48  1  0.09860000  0.50000000  0.21050200  1
  O  O49  1  0.74169800  0.83818500  0.88227200  1
  O  O50  1  0.75830200  0.83818500  0.38227200  1
  O  O51  1  0.40140000  0.50000000  0.71050200  1
