# generated using pymatgen
data_Tl2Sn2S5
_symmetry_space_group_name_H-M   'P 1'
_cell_length_a   11.34637800
_cell_length_b   7.97572200
_cell_length_c   11.63268478
_cell_angle_alpha   90.00000000
_cell_angle_beta   108.33658155
_cell_angle_gamma   90.00000000
_symmetry_Int_Tables_number   1
_chemical_formula_structural   Tl2Sn2S5
_chemical_formula_sum   'Tl8 Sn8 S20'
_cell_volume   999.25492272
_cell_formula_units_Z   4
loop_
 _symmetry_equiv_pos_site_id
 _symmetry_equiv_pos_as_xyz
  1  'x, y, z'
loop_
 _atom_site_type_symbol
 _atom_site_label
 _atom_site_symmetry_multiplicity
 _atom_site_fract_x
 _atom_site_fract_y
 _atom_site_fract_z
 _atom_site_occupancy
  Tl  Tl0  1  0.78227850  0.67871350  0.18283900  1
  Tl  Tl1  1  0.21772150  0.67871350  0.31716100  1
  Tl  Tl2  1  0.21772150  0.32128650  0.81716100  1
  Tl  Tl3  1  0.78227850  0.32128650  0.68283900  1
  Tl  Tl4  1  0.28227850  0.17871350  0.18283900  1
  Tl  Tl5  1  0.71772150  0.17871350  0.31716100  1
  Tl  Tl6  1  0.71772150  0.82128650  0.81716100  1
  Tl  Tl7  1  0.28227850  0.82128650  0.68283900  1
  Sn  Sn8  1  0.09456550  0.15452350  0.44204400  1
  Sn  Sn9  1  0.90543450  0.15452350  0.05795600  1
  Sn  Sn10  1  0.90543450  0.84547650  0.55795600  1
  Sn  Sn11  1  0.09456550  0.84547650  0.94204400  1
  Sn  Sn12  1  0.59456550  0.65452350  0.44204400  1
  Sn  Sn13  1  0.40543450  0.65452350  0.05795600  1
  Sn  Sn14  1  0.40543450  0.34547650  0.55795600  1
  Sn  Sn15  1  0.59456550  0.34547650  0.94204400  1
  S  S16  1  0.00000000  0.68506100  0.75000000  1
  S  S17  1  0.00000000  0.31493900  0.25000000  1
  S  S18  1  0.98834300  0.86320500  0.38535900  1
  S  S19  1  0.01165700  0.86320500  0.11464100  1
  S  S20  1  0.01165700  0.13679500  0.61464100  1
  S  S21  1  0.98834300  0.13679500  0.88535900  1
  S  S22  1  0.19614250  0.44521550  0.53780200  1
  S  S23  1  0.80385750  0.44521550  0.96219800  1
  S  S24  1  0.19614250  0.55478450  0.03780200  1
  S  S25  1  0.80385750  0.55478450  0.46219800  1
  S  S26  1  0.50000000  0.18506100  0.75000000  1
  S  S27  1  0.50000000  0.81493900  0.25000000  1
  S  S28  1  0.48834300  0.36320500  0.38535900  1
  S  S29  1  0.51165700  0.36320500  0.11464100  1
  S  S30  1  0.51165700  0.63679500  0.61464100  1
  S  S31  1  0.48834300  0.63679500  0.88535900  1
  S  S32  1  0.69614250  0.94521550  0.53780200  1
  S  S33  1  0.30385750  0.94521550  0.96219800  1
  S  S34  1  0.69614250  0.05478450  0.03780200  1
  S  S35  1  0.30385750  0.05478450  0.46219800  1
