# generated using pymatgen
data_BiOF
_symmetry_space_group_name_H-M   'P 1'
_cell_length_a   7.87069600
_cell_length_b   9.17253400
_cell_length_c   11.27169000
_cell_angle_alpha   90.00000000
_cell_angle_beta   90.00000000
_cell_angle_gamma   90.00000000
_symmetry_Int_Tables_number   1
_chemical_formula_structural   BiOF
_chemical_formula_sum   'Bi16 O16 F16'
_cell_volume   813.75094274
_cell_formula_units_Z   16
loop_
 _symmetry_equiv_pos_site_id
 _symmetry_equiv_pos_as_xyz
  1  'x, y, z'
loop_
 _atom_site_type_symbol
 _atom_site_label
 _atom_site_symmetry_multiplicity
 _atom_site_fract_x
 _atom_site_fract_y
 _atom_site_fract_z
 _atom_site_occupancy
  Bi  Bi0  1  0.62802350  0.70179450  0.99954700  1
  Bi  Bi1  1  0.37802350  0.95179450  0.75045300  1
  Bi  Bi2  1  0.12802350  0.29820550  0.50045300  1
  Bi  Bi3  1  0.87802350  0.04820550  0.74954700  1
  Bi  Bi4  1  0.12802350  0.70179450  0.49954700  1
  Bi  Bi5  1  0.87802350  0.95179450  0.25045300  1
  Bi  Bi6  1  0.62802350  0.29820550  0.00045300  1
  Bi  Bi7  1  0.37802350  0.04820550  0.24954700  1
  Bi  Bi8  1  0.12802350  0.20179450  0.99954700  1
  Bi  Bi9  1  0.87802350  0.45179450  0.75045300  1
  Bi  Bi10  1  0.62802350  0.79820550  0.50045300  1
  Bi  Bi11  1  0.37802350  0.54820550  0.74954700  1
  Bi  Bi12  1  0.62802350  0.20179450  0.49954700  1
  Bi  Bi13  1  0.37802350  0.45179450  0.25045300  1
  Bi  Bi14  1  0.12802350  0.79820550  0.00045300  1
  Bi  Bi15  1  0.87802350  0.54820550  0.24954700  1
  O  O16  1  0.12795900  0.99826050  0.86835850  1
  O  O17  1  0.62795900  0.00173950  0.63164150  1
  O  O18  1  0.87795900  0.25173950  0.61835850  1
  O  O19  1  0.37795900  0.74826050  0.88164150  1
  O  O20  1  0.62795900  0.99826050  0.36835850  1
  O  O21  1  0.12795900  0.00173950  0.13164150  1
  O  O22  1  0.37795900  0.25173950  0.11835850  1
  O  O23  1  0.87795900  0.74826050  0.38164150  1
  O  O24  1  0.62795900  0.49826050  0.86835850  1
  O  O25  1  0.12795900  0.50173950  0.63164150  1
  O  O26  1  0.37795900  0.75173950  0.61835850  1
  O  O27  1  0.87795900  0.24826050  0.88164150  1
  O  O28  1  0.12795900  0.49826050  0.36835850  1
  O  O29  1  0.62795900  0.50173950  0.13164150  1
  O  O30  1  0.87795900  0.75173950  0.11835850  1
  O  O31  1  0.37795900  0.24826050  0.38164150  1
  F  F32  1  0.74666150  0.88070100  0.87488350  1
  F  F33  1  0.49666150  0.13070100  0.87511650  1
  F  F34  1  0.24666150  0.11929900  0.62511650  1
  F  F35  1  0.99666150  0.86929900  0.62488350  1
  F  F36  1  0.24666150  0.88070100  0.37488350  1
  F  F37  1  0.99666150  0.13070100  0.37511650  1
  F  F38  1  0.74666150  0.11929900  0.12511650  1
  F  F39  1  0.49666150  0.86929900  0.12488350  1
  F  F40  1  0.24666150  0.38070100  0.87488350  1
  F  F41  1  0.99666150  0.63070100  0.87511650  1
  F  F42  1  0.74666150  0.61929900  0.62511650  1
  F  F43  1  0.49666150  0.36929900  0.62488350  1
  F  F44  1  0.74666150  0.38070100  0.37488350  1
  F  F45  1  0.49666150  0.63070100  0.37511650  1
  F  F46  1  0.24666150  0.61929900  0.12511650  1
  F  F47  1  0.99666150  0.36929900  0.12488350  1
