# generated using pymatgen
data_Sb8O11F2
_symmetry_space_group_name_H-M   'P 1'
_cell_length_a   10.51513800
_cell_length_b   4.24416100
_cell_length_c   18.17020856
_cell_angle_alpha   90.00000000
_cell_angle_beta   91.01437846
_cell_angle_gamma   90.00000000
_symmetry_Int_Tables_number   1
_chemical_formula_structural   Sb8O11F2
_chemical_formula_sum   'Sb16 O22 F4'
_cell_volume   810.77187140
_cell_formula_units_Z   2
loop_
 _symmetry_equiv_pos_site_id
 _symmetry_equiv_pos_as_xyz
  1  'x, y, z'
loop_
 _atom_site_type_symbol
 _atom_site_label
 _atom_site_symmetry_multiplicity
 _atom_site_fract_x
 _atom_site_fract_y
 _atom_site_fract_z
 _atom_site_occupancy
  Sb  Sb0  1  0.66456500  0.77897800  0.49310100  1
  Sb  Sb1  1  0.93565300  0.31271100  0.57305000  1
  Sb  Sb2  1  0.14293200  0.51562200  0.75497600  1
  Sb  Sb3  1  0.85706800  0.01562200  0.74502400  1
  Sb  Sb4  1  0.36466100  0.05162900  0.69311600  1
  Sb  Sb5  1  0.63533900  0.55162900  0.80688400  1
  Sb  Sb6  1  0.06434700  0.81271100  0.92695000  1
  Sb  Sb7  1  0.33543500  0.27897800  0.00689900  1
  Sb  Sb8  1  0.66456500  0.72102200  0.99310100  1
  Sb  Sb9  1  0.93565300  0.18728900  0.07305000  1
  Sb  Sb10  1  0.36466100  0.44837100  0.19311600  1
  Sb  Sb11  1  0.63533900  0.94837100  0.30688400  1
  Sb  Sb12  1  0.14293200  0.98437800  0.25497600  1
  Sb  Sb13  1  0.85706800  0.48437800  0.24502400  1
  Sb  Sb14  1  0.06434700  0.68728900  0.42695000  1
  Sb  Sb15  1  0.33543500  0.22102200  0.50689900  1
  O  O16  1  0.77827500  0.41161800  0.51449100  1
  O  O17  1  0.84332300  0.99618900  0.63448100  1
  O  O18  1  0.20357700  0.03534200  0.75487600  1
  O  O19  1  0.00000000  0.00000000  0.50000000  1
  O  O20  1  0.25824900  0.09120900  0.60160000  1
  O  O21  1  0.67791500  0.03886900  0.78037300  1
  O  O22  1  0.79642300  0.53534200  0.74512400  1
  O  O23  1  0.15667700  0.49618900  0.86551900  1
  O  O24  1  0.22172500  0.91161800  0.98550900  1
  O  O25  1  0.32208500  0.53886900  0.71962700  1
  O  O26  1  0.74175100  0.59120900  0.89840000  1
  O  O27  1  0.00000000  0.50000000  0.00000000  1
  O  O28  1  0.25824900  0.40879100  0.10160000  1
  O  O29  1  0.67791500  0.46113100  0.28037300  1
  O  O30  1  0.77827500  0.08838200  0.01449100  1
  O  O31  1  0.84332300  0.50381100  0.13448100  1
  O  O32  1  0.20357700  0.46465800  0.25487600  1
  O  O33  1  0.32208500  0.96113100  0.21962700  1
  O  O34  1  0.74175100  0.90879100  0.39840000  1
  O  O35  1  0.79642300  0.96465800  0.24512400  1
  O  O36  1  0.15667700  0.00381100  0.36551900  1
  O  O37  1  0.22172500  0.58838200  0.48550900  1
  F  F38  1  0.45814400  0.48270500  0.56977300  1
  F  F39  1  0.54185600  0.98270500  0.93022700  1
  F  F40  1  0.45814400  0.01729500  0.06977300  1
  F  F41  1  0.54185600  0.51729500  0.43022700  1
