# generated using pymatgen
data_LuP5O14
_symmetry_space_group_name_H-M   'P 1'
_cell_length_a   8.76049900
_cell_length_b   8.93554200
_cell_length_c   12.80245100
_cell_angle_alpha   90.00000000
_cell_angle_beta   90.00000000
_cell_angle_gamma   90.00000000
_symmetry_Int_Tables_number   1
_chemical_formula_structural   LuP5O14
_chemical_formula_sum   'Lu4 P20 O56'
_cell_volume   1002.17339028
_cell_formula_units_Z   4
loop_
 _symmetry_equiv_pos_site_id
 _symmetry_equiv_pos_as_xyz
  1  'x, y, z'
loop_
 _atom_site_type_symbol
 _atom_site_label
 _atom_site_symmetry_multiplicity
 _atom_site_fract_x
 _atom_site_fract_y
 _atom_site_fract_z
 _atom_site_occupancy
  Lu  Lu0  1  0.02172600  0.06095200  0.75000000  1
  Lu  Lu1  1  0.47827400  0.56095200  0.25000000  1
  Lu  Lu2  1  0.52172600  0.43904800  0.75000000  1
  Lu  Lu3  1  0.97827400  0.93904800  0.25000000  1
  P  P4  1  0.00513600  0.29749500  0.41659000  1
  P  P5  1  0.00513600  0.29749500  0.08341000  1
  P  P6  1  0.06912300  0.51350300  0.25000000  1
  P  P7  1  0.25439300  0.27538000  0.93153100  1
  P  P8  1  0.25439300  0.27538000  0.56846900  1
  P  P9  1  0.24560700  0.77538000  0.43153100  1
  P  P10  1  0.24560700  0.77538000  0.06846900  1
  P  P11  1  0.43087700  0.01350300  0.75000000  1
  P  P12  1  0.49486400  0.79749500  0.58341000  1
  P  P13  1  0.49486400  0.79749500  0.91659000  1
  P  P14  1  0.50513600  0.20250500  0.08341000  1
  P  P15  1  0.50513600  0.20250500  0.41659000  1
  P  P16  1  0.56912300  0.98649700  0.25000000  1
  P  P17  1  0.75439300  0.22462000  0.93153100  1
  P  P18  1  0.75439300  0.22462000  0.56846900  1
  P  P19  1  0.74560700  0.72462000  0.43153100  1
  P  P20  1  0.74560700  0.72462000  0.06846900  1
  P  P21  1  0.93087700  0.48649700  0.75000000  1
  P  P22  1  0.99486400  0.70250500  0.91659000  1
  P  P23  1  0.99486400  0.70250500  0.58341000  1
  O  O24  1  0.99808900  0.84810800  0.86251100  1
  O  O25  1  0.99808900  0.84810800  0.63748900  1
  O  O26  1  0.03176900  0.67499700  0.25000000  1
  O  O27  1  0.02770100  0.56134400  0.84624600  1
  O  O28  1  0.02770100  0.56134400  0.65375400  1
  O  O29  1  0.11755700  0.67896400  0.49501200  1
  O  O30  1  0.11755700  0.67896400  0.00498800  1
  O  O31  1  0.15317200  0.16267900  0.88097000  1
  O  O32  1  0.15317200  0.16267900  0.61903000  1
  O  O33  1  0.16140500  0.34568700  0.46979700  1
  O  O34  1  0.16140500  0.34568700  0.03020300  1
  O  O35  1  0.17186800  0.89917200  0.37264600  1
  O  O36  1  0.17186800  0.89917200  0.12735400  1
  O  O37  1  0.22840400  0.45376800  0.25000000  1
  O  O38  1  0.27159600  0.95376800  0.75000000  1
  O  O39  1  0.32813200  0.39917200  0.87264600  1
  O  O40  1  0.32813200  0.39917200  0.62735400  1
  O  O41  1  0.33859500  0.84568700  0.96979700  1
  O  O42  1  0.33859500  0.84568700  0.53020300  1
  O  O43  1  0.34682800  0.66267900  0.38097000  1
  O  O44  1  0.34682800  0.66267900  0.11903000  1
  O  O45  1  0.38244300  0.17896400  0.99501200  1
  O  O46  1  0.38244300  0.17896400  0.50498800  1
  O  O47  1  0.47229900  0.06134400  0.34624600  1
  O  O48  1  0.47229900  0.06134400  0.15375400  1
  O  O49  1  0.46823100  0.17499700  0.75000000  1
  O  O50  1  0.50191100  0.34810800  0.36251100  1
  O  O51  1  0.50191100  0.34810800  0.13748900  1
  O  O52  1  0.49808900  0.65189200  0.86251100  1
  O  O53  1  0.49808900  0.65189200  0.63748900  1
  O  O54  1  0.53176900  0.82500300  0.25000000  1
  O  O55  1  0.52770100  0.93865600  0.84624600  1
  O  O56  1  0.52770100  0.93865600  0.65375400  1
  O  O57  1  0.61755700  0.82103600  0.49501200  1
  O  O58  1  0.61755700  0.82103600  0.00498800  1
  O  O59  1  0.65317200  0.33732100  0.88097000  1
  O  O60  1  0.65317200  0.33732100  0.61903000  1
  O  O61  1  0.66140500  0.15431300  0.46979700  1
  O  O62  1  0.66140500  0.15431300  0.03020300  1
  O  O63  1  0.67186800  0.60082800  0.37264600  1
  O  O64  1  0.67186800  0.60082800  0.12735400  1
  O  O65  1  0.72840400  0.04623200  0.25000000  1
  O  O66  1  0.77159600  0.54623200  0.75000000  1
  O  O67  1  0.82813200  0.10082800  0.87264600  1
  O  O68  1  0.82813200  0.10082800  0.62735400  1
  O  O69  1  0.83859500  0.65431300  0.96979700  1
  O  O70  1  0.83859500  0.65431300  0.53020300  1
  O  O71  1  0.84682800  0.83732100  0.11903000  1
  O  O72  1  0.84682800  0.83732100  0.38097000  1
  O  O73  1  0.88244300  0.32103600  0.99501200  1
  O  O74  1  0.88244300  0.32103600  0.50498800  1
  O  O75  1  0.97229900  0.43865600  0.34624600  1
  O  O76  1  0.97229900  0.43865600  0.15375400  1
  O  O77  1  0.96823100  0.32500300  0.75000000  1
  O  O78  1  0.00191100  0.15189200  0.36251100  1
  O  O79  1  0.00191100  0.15189200  0.13748900  1
