# generated using pymatgen
data_MnFeCo(PO4)3
_symmetry_space_group_name_H-M   'P 1'
_cell_length_a   9.90339500
_cell_length_b   5.95322800
_cell_length_c   14.59200382
_cell_angle_alpha   90.00000000
_cell_angle_beta   90.05930223
_cell_angle_gamma   90.00000000
_symmetry_Int_Tables_number   1
_chemical_formula_structural   MnFeCo(PO4)3
_chemical_formula_sum   'Mn4 Fe4 Co4 P12 O48'
_cell_volume   860.30276560
_cell_formula_units_Z   4
loop_
 _symmetry_equiv_pos_site_id
 _symmetry_equiv_pos_as_xyz
  1  'x, y, z'
loop_
 _atom_site_type_symbol
 _atom_site_label
 _atom_site_symmetry_multiplicity
 _atom_site_fract_x
 _atom_site_fract_y
 _atom_site_fract_z
 _atom_site_occupancy
  Mn  Mn0  1  0.21933400  0.50000000  0.14833600  1
  Mn  Mn1  1  0.28288600  0.00000000  0.64648500  1
  Mn  Mn2  1  0.28351500  0.00000000  0.31379500  1
  Mn  Mn3  1  0.71946800  0.50000000  0.01866400  1
  Fe  Fe4  1  0.22165200  0.50000000  0.81957200  1
  Fe  Fe5  1  0.22339800  0.50000000  0.48828400  1
  Fe  Fe6  1  0.27313800  0.00000000  0.98698600  1
  Fe  Fe7  1  0.72642300  0.50000000  0.34508400  1
  Co  Co8  1  0.71866100  0.50000000  0.68445500  1
  Co  Co9  1  0.78660700  0.00000000  0.85278800  1
  Co  Co10  1  0.77021900  0.00000000  0.17804900  1
  Co  Co11  1  0.78101800  0.00000000  0.51862600  1
  P  P12  1  0.09658500  0.00000000  0.80400900  1
  P  P13  1  0.09906700  0.00000000  0.47221900  1
  P  P14  1  0.09547200  0.00000000  0.13962400  1
  P  P15  1  0.40063200  0.50000000  0.97351700  1
  P  P16  1  0.40415300  0.50000000  0.63914300  1
  P  P17  1  0.40211800  0.50000000  0.30529300  1
  P  P18  1  0.59817900  0.00000000  0.69288900  1
  P  P19  1  0.59915200  0.00000000  0.02592200  1
  P  P20  1  0.60014200  0.00000000  0.36322400  1
  P  P21  1  0.90212600  0.50000000  0.85858800  1
  P  P22  1  0.90182200  0.50000000  0.52967100  1
  P  P23  1  0.90137000  0.50000000  0.19393700  1
  O  O24  1  0.05068600  0.50000000  0.88583700  1
  O  O25  1  0.05123500  0.50000000  0.55431100  1
  O  O26  1  0.05392600  0.50000000  0.21487300  1
  O  O27  1  0.11617800  0.00000000  0.90856700  1
  O  O28  1  0.11872900  0.00000000  0.57762700  1
  O  O29  1  0.11815800  0.00000000  0.24348300  1
  O  O30  1  0.16984300  0.79513700  0.75842400  1
  O  O31  1  0.16984300  0.20486300  0.75842400  1
  O  O32  1  0.17107900  0.79515400  0.42611900  1
  O  O33  1  0.17107900  0.20484600  0.42611900  1
  O  O34  1  0.17018800  0.80153800  0.08891300  1
  O  O35  1  0.17018800  0.19846200  0.08891300  1
  O  O36  1  0.32737700  0.29851900  0.92514400  1
  O  O37  1  0.32737700  0.70148100  0.92514400  1
  O  O38  1  0.32869100  0.30120700  0.58934000  1
  O  O39  1  0.32869100  0.69879300  0.58934000  1
  O  O40  1  0.32857300  0.29846600  0.25645900  1
  O  O41  1  0.32857300  0.70153400  0.25645900  1
  O  O42  1  0.38234800  0.50000000  0.74241800  1
  O  O43  1  0.38074300  0.50000000  0.40889700  1
  O  O44  1  0.38210800  0.50000000  0.07826500  1
  O  O45  1  0.44723300  0.00000000  0.71846800  1
  O  O46  1  0.44871600  0.00000000  0.04873100  1
  O  O47  1  0.44790900  0.00000000  0.38389600  1
  O  O48  1  0.55248700  0.50000000  0.95199300  1
  O  O49  1  0.55324900  0.50000000  0.28257100  1
  O  O50  1  0.55444100  0.50000000  0.61411700  1
  O  O51  1  0.61975200  0.00000000  0.92252400  1
  O  O52  1  0.61463800  0.00000000  0.58880800  1
  O  O53  1  0.62315200  0.00000000  0.25784900  1
  O  O54  1  0.67135000  0.79537400  0.74086400  1
  O  O55  1  0.67135000  0.20462600  0.74086400  1
  O  O56  1  0.67204800  0.79662500  0.40990800  1
  O  O57  1  0.67204800  0.20337500  0.40990800  1
  O  O58  1  0.67368100  0.80038200  0.07730800  1
  O  O59  1  0.67368100  0.19961800  0.07730800  1
  O  O60  1  0.82637600  0.29616700  0.57737800  1
  O  O61  1  0.82637600  0.70383300  0.57737800  1
  O  O62  1  0.82596400  0.29710800  0.90591800  1
  O  O63  1  0.82596400  0.70289200  0.90591800  1
  O  O64  1  0.83012900  0.29909800  0.24345400  1
  O  O65  1  0.83012900  0.70090200  0.24345400  1
  O  O66  1  0.88534500  0.50000000  0.75406300  1
  O  O67  1  0.88108800  0.50000000  0.42630600  1
  O  O68  1  0.88309200  0.50000000  0.08869700  1
  O  O69  1  0.94557900  0.00000000  0.77938400  1
  O  O70  1  0.94728400  0.00000000  0.45089900  1
  O  O71  1  0.94350600  0.00000000  0.11934300  1
