# generated using pymatgen
data_Li4Nb2V3Cr3O16
_symmetry_space_group_name_H-M   'P 1'
_cell_length_a   10.43705000
_cell_length_b   6.00426400
_cell_length_c   9.68387421
_cell_angle_alpha   90.00000000
_cell_angle_beta   90.51960447
_cell_angle_gamma   90.00000000
_symmetry_Int_Tables_number   1
_chemical_formula_structural   Li4Nb2V3Cr3O16
_chemical_formula_sum   'Li8 Nb4 V6 Cr6 O32'
_cell_volume   606.83248848
_cell_formula_units_Z   2
loop_
 _symmetry_equiv_pos_site_id
 _symmetry_equiv_pos_as_xyz
  1  'x, y, z'
loop_
 _atom_site_type_symbol
 _atom_site_label
 _atom_site_symmetry_multiplicity
 _atom_site_fract_x
 _atom_site_fract_y
 _atom_site_fract_z
 _atom_site_occupancy
  Li  Li0  1  0.66651300  0.00000000  0.90109400  1
  Li  Li1  1  0.50054800  0.50000000  0.99213700  1
  Li  Li2  1  0.50125400  0.50000000  0.49196400  1
  Li  Li3  1  0.83246200  0.50000000  0.39772900  1
  Li  Li4  1  0.16651300  0.50000000  0.90109400  1
  Li  Li5  1  0.00054800  0.00000000  0.99213700  1
  Li  Li6  1  0.00125400  0.00000000  0.49196400  1
  Li  Li7  1  0.33246200  0.00000000  0.39772900  1
  Nb  Nb8  1  0.66587200  0.00000000  0.49306100  1
  Nb  Nb9  1  0.83116100  0.50000000  0.99457400  1
  Nb  Nb10  1  0.16587200  0.50000000  0.49306100  1
  Nb  Nb11  1  0.33116100  0.00000000  0.99457400  1
  V  V12  1  0.82870800  0.00000000  0.21770400  1
  V  V13  1  0.91431250  0.74254250  0.71613100  1
  V  V14  1  0.91431250  0.25745750  0.71613100  1
  V  V15  1  0.32870800  0.50000000  0.21770400  1
  V  V16  1  0.41431250  0.24254250  0.71613100  1
  V  V17  1  0.41431250  0.75745750  0.71613100  1
  Cr  Cr18  1  0.58482900  0.24392400  0.21468700  1
  Cr  Cr19  1  0.58482900  0.75607600  0.21468700  1
  Cr  Cr20  1  0.66941400  0.50000000  0.71471200  1
  Cr  Cr21  1  0.08482900  0.74392400  0.21468700  1
  Cr  Cr22  1  0.08482900  0.25607600  0.21468700  1
  Cr  Cr23  1  0.16941400  0.00000000  0.71471200  1
  O  O24  1  0.58402700  0.24844600  0.59339400  1
  O  O25  1  0.51960400  0.00000000  0.33926100  1
  O  O26  1  0.66732400  0.00000000  0.10877000  1
  O  O27  1  0.99926900  0.00000000  0.30526500  1
  O  O28  1  0.99961900  0.00000000  0.80467300  1
  O  O29  1  0.58402700  0.75155400  0.59339400  1
  O  O30  1  0.73758250  0.22155950  0.34352600  1
  O  O31  1  0.73758250  0.77844050  0.34352600  1
  O  O32  1  0.66621100  0.50000000  0.09542000  1
  O  O33  1  0.83218200  0.00000000  0.59135000  1
  O  O34  1  0.75851700  0.71807100  0.84269900  1
  O  O35  1  0.75851700  0.28192900  0.84269900  1
  O  O36  1  0.83274100  0.50000000  0.60801500  1
  O  O37  1  0.91710250  0.74677750  0.09259600  1
  O  O38  1  0.97970800  0.50000000  0.84544400  1
  O  O39  1  0.91710250  0.25322250  0.09259600  1
  O  O40  1  0.08402700  0.74844600  0.59339400  1
  O  O41  1  0.01960400  0.50000000  0.33926100  1
  O  O42  1  0.16732400  0.50000000  0.10877000  1
  O  O43  1  0.49926900  0.50000000  0.30526500  1
  O  O44  1  0.49961900  0.50000000  0.80467300  1
  O  O45  1  0.08402700  0.25155400  0.59339400  1
  O  O46  1  0.23758250  0.72155950  0.34352600  1
  O  O47  1  0.23758250  0.27844050  0.34352600  1
  O  O48  1  0.16621100  0.00000000  0.09542000  1
  O  O49  1  0.33218200  0.50000000  0.59135000  1
  O  O50  1  0.25851700  0.21807100  0.84269900  1
  O  O51  1  0.25851700  0.78192900  0.84269900  1
  O  O52  1  0.33274100  0.00000000  0.60801500  1
  O  O53  1  0.41710250  0.24677750  0.09259600  1
  O  O54  1  0.47970800  0.00000000  0.84544400  1
  O  O55  1  0.41710250  0.75322250  0.09259600  1
