# generated using pymatgen
data_LiNb13O33
_symmetry_space_group_name_H-M   'P 1'
_cell_length_a   22.86477400
_cell_length_b   3.86187000
_cell_length_c   15.70028679
_cell_angle_alpha   90.00000000
_cell_angle_beta   91.77833449
_cell_angle_gamma   90.00000000
_symmetry_Int_Tables_number   1
_chemical_formula_structural   LiNb13O33
_chemical_formula_sum   'Li2 Nb26 O66'
_cell_volume   1385.67993264
_cell_formula_units_Z   2
loop_
 _symmetry_equiv_pos_site_id
 _symmetry_equiv_pos_as_xyz
  1  'x, y, z'
loop_
 _atom_site_type_symbol
 _atom_site_label
 _atom_site_symmetry_multiplicity
 _atom_site_fract_x
 _atom_site_fract_y
 _atom_site_fract_z
 _atom_site_occupancy
  Li  Li0  1  0.00000000  0.50000000  0.50000000  1
  Li  Li1  1  0.50000000  0.00000000  0.50000000  1
  Nb  Nb2  1  0.92943800  0.00000000  0.76988100  1
  Nb  Nb3  1  0.91344600  0.00000000  0.32530300  1
  Nb  Nb4  1  0.86388800  0.00000000  0.53037600  1
  Nb  Nb5  1  0.84511200  0.00000000  0.09610900  1
  Nb  Nb6  1  0.77582500  0.00000000  0.86320700  1
  Nb  Nb7  1  0.70846600  0.00000000  0.62604200  1
  Nb  Nb8  1  0.00000000  0.00000000  0.00000000  1
  Nb  Nb9  1  0.79153400  0.50000000  0.37395800  1
  Nb  Nb10  1  0.72417500  0.50000000  0.13679300  1
  Nb  Nb11  1  0.65488800  0.50000000  0.90389100  1
  Nb  Nb12  1  0.63611200  0.50000000  0.46962400  1
  Nb  Nb13  1  0.58655400  0.50000000  0.67469700  1
  Nb  Nb14  1  0.57056200  0.50000000  0.23011900  1
  Nb  Nb15  1  0.42943800  0.50000000  0.76988100  1
  Nb  Nb16  1  0.41344600  0.50000000  0.32530300  1
  Nb  Nb17  1  0.36388800  0.50000000  0.53037600  1
  Nb  Nb18  1  0.34511200  0.50000000  0.09610900  1
  Nb  Nb19  1  0.27582500  0.50000000  0.86320700  1
  Nb  Nb20  1  0.20846600  0.50000000  0.62604200  1
  Nb  Nb21  1  0.50000000  0.50000000  0.00000000  1
  Nb  Nb22  1  0.29153400  0.00000000  0.37395800  1
  Nb  Nb23  1  0.22417500  0.00000000  0.13679300  1
  Nb  Nb24  1  0.15488800  0.00000000  0.90389100  1
  Nb  Nb25  1  0.13611200  0.00000000  0.46962400  1
  Nb  Nb26  1  0.08655400  0.00000000  0.67469700  1
  Nb  Nb27  1  0.07056200  0.00000000  0.23011900  1
  O  O28  1  0.98809200  0.00000000  0.29070000  1
  O  O29  1  0.96421000  0.00000000  0.87935000  1
  O  O30  1  0.93348500  0.00000000  0.45645900  1
  O  O31  1  0.91833200  0.00000000  0.04854000  1
  O  O32  1  0.89977900  0.00000000  0.63352600  1
  O  O33  1  0.87291300  0.00000000  0.21267000  1
  O  O34  1  0.84700400  0.00000000  0.80532600  1
  O  O35  1  0.81871100  0.00000000  0.38872500  1
  O  O36  1  0.80622300  0.00000000  0.97301200  1
  O  O37  1  0.77817400  0.00000000  0.57020300  1
  O  O38  1  0.74977700  0.00000000  0.13694200  1
  O  O39  1  0.73319800  0.00000000  0.73611600  1
  O  O40  1  0.67967500  0.00000000  0.90080800  1
  O  O41  1  0.65259500  0.00000000  0.49715300  1
  O  O42  1  0.60939500  0.00000000  0.66272700  1
  O  O43  1  0.56994000  0.00000000  0.24969200  1
  O  O44  1  0.00000000  0.50000000  0.00000000  1
  O  O45  1  0.93006000  0.50000000  0.75030800  1
  O  O46  1  0.89060500  0.50000000  0.33727300  1
  O  O47  1  0.84740500  0.50000000  0.50284700  1
  O  O48  1  0.82032500  0.50000000  0.09919200  1
  O  O49  1  0.76680200  0.50000000  0.26388400  1
  O  O50  1  0.75022300  0.50000000  0.86305800  1
  O  O51  1  0.72182600  0.50000000  0.42979700  1
  O  O52  1  0.69377700  0.50000000  0.02698800  1
  O  O53  1  0.68128900  0.50000000  0.61127500  1
  O  O54  1  0.65299600  0.50000000  0.19467400  1
  O  O55  1  0.62708700  0.50000000  0.78733000  1
  O  O56  1  0.60022100  0.50000000  0.36647400  1
  O  O57  1  0.58166800  0.50000000  0.95146000  1
  O  O58  1  0.56651500  0.50000000  0.54354100  1
  O  O59  1  0.53579000  0.50000000  0.12065000  1
  O  O60  1  0.51190800  0.50000000  0.70930000  1
  O  O61  1  0.48809200  0.50000000  0.29070000  1
  O  O62  1  0.46421000  0.50000000  0.87935000  1
  O  O63  1  0.43348500  0.50000000  0.45645900  1
  O  O64  1  0.41833200  0.50000000  0.04854000  1
  O  O65  1  0.39977900  0.50000000  0.63352600  1
  O  O66  1  0.37291300  0.50000000  0.21267000  1
  O  O67  1  0.34700400  0.50000000  0.80532600  1
  O  O68  1  0.31871100  0.50000000  0.38872500  1
  O  O69  1  0.30622300  0.50000000  0.97301200  1
  O  O70  1  0.27817400  0.50000000  0.57020300  1
  O  O71  1  0.24977700  0.50000000  0.13694200  1
  O  O72  1  0.23319800  0.50000000  0.73611600  1
  O  O73  1  0.17967500  0.50000000  0.90080800  1
  O  O74  1  0.15259500  0.50000000  0.49715300  1
  O  O75  1  0.10939500  0.50000000  0.66272700  1
  O  O76  1  0.06994000  0.50000000  0.24969200  1
  O  O77  1  0.50000000  0.00000000  0.00000000  1
  O  O78  1  0.43006000  0.00000000  0.75030800  1
  O  O79  1  0.39060500  0.00000000  0.33727300  1
  O  O80  1  0.34740500  0.00000000  0.50284700  1
  O  O81  1  0.32032500  0.00000000  0.09919200  1
  O  O82  1  0.26680200  0.00000000  0.26388400  1
  O  O83  1  0.25022300  0.00000000  0.86305800  1
  O  O84  1  0.22182600  0.00000000  0.42979700  1
  O  O85  1  0.19377700  0.00000000  0.02698800  1
  O  O86  1  0.18128900  0.00000000  0.61127500  1
  O  O87  1  0.15299600  0.00000000  0.19467400  1
  O  O88  1  0.12708700  0.00000000  0.78733000  1
  O  O89  1  0.10022100  0.00000000  0.36647400  1
  O  O90  1  0.08166800  0.00000000  0.95146000  1
  O  O91  1  0.06651500  0.00000000  0.54354100  1
  O  O92  1  0.03579000  0.00000000  0.12065000  1
  O  O93  1  0.01190800  0.00000000  0.70930000  1
