# generated using pymatgen
data_Rb2MgH4
_symmetry_space_group_name_H-M   'P 1'
_cell_length_a   8.24961800
_cell_length_b   8.77029000
_cell_length_c   10.63601500
_cell_angle_alpha   90.00000000
_cell_angle_beta   90.00000000
_cell_angle_gamma   90.00000000
_symmetry_Int_Tables_number   1
_chemical_formula_structural   Rb2MgH4
_chemical_formula_sum   'Rb8 Mg4 H16'
_cell_volume   769.53208864
_cell_formula_units_Z   4
loop_
 _symmetry_equiv_pos_site_id
 _symmetry_equiv_pos_as_xyz
  1  'x, y, z'
loop_
 _atom_site_type_symbol
 _atom_site_label
 _atom_site_symmetry_multiplicity
 _atom_site_fract_x
 _atom_site_fract_y
 _atom_site_fract_z
 _atom_site_occupancy
  Rb  Rb0  1  0.75000000  0.98938800  0.76078100  1
  Rb  Rb1  1  0.25000000  0.24374700  0.83323200  1
  Rb  Rb2  1  0.75000000  0.25625300  0.33323200  1
  Rb  Rb3  1  0.25000000  0.51061200  0.26078100  1
  Rb  Rb4  1  0.75000000  0.48938800  0.73921900  1
  Rb  Rb5  1  0.25000000  0.74374700  0.66676800  1
  Rb  Rb6  1  0.75000000  0.75625300  0.16676800  1
  Rb  Rb7  1  0.25000000  0.01061200  0.23921900  1
  Mg  Mg8  1  0.25000000  0.24090100  0.48596300  1
  Mg  Mg9  1  0.75000000  0.25909900  0.98596300  1
  Mg  Mg10  1  0.25000000  0.74090100  0.01403700  1
  Mg  Mg11  1  0.75000000  0.75909900  0.51403700  1
  H  H12  1  0.25000000  0.04994300  0.55789200  1
  H  H13  1  0.75000000  0.09361700  0.09197200  1
  H  H14  1  0.58380400  0.24351000  0.86482900  1
  H  H15  1  0.91619600  0.24351000  0.86482900  1
  H  H16  1  0.08380400  0.25649000  0.36482900  1
  H  H17  1  0.41619600  0.25649000  0.36482900  1
  H  H18  1  0.25000000  0.40638300  0.59197200  1
  H  H19  1  0.75000000  0.45005700  0.05789200  1
  H  H20  1  0.25000000  0.54994300  0.94210800  1
  H  H21  1  0.75000000  0.59361700  0.40802800  1
  H  H22  1  0.58380400  0.74351000  0.63517100  1
  H  H23  1  0.91619600  0.74351000  0.63517100  1
  H  H24  1  0.08380400  0.75649000  0.13517100  1
  H  H25  1  0.41619600  0.75649000  0.13517100  1
  H  H26  1  0.25000000  0.90638300  0.90802800  1
  H  H27  1  0.75000000  0.95005700  0.44210800  1
