# generated using pymatgen
data_Sr2CaI6
_symmetry_space_group_name_H-M   'P 1'
_cell_length_a   25.40546400
_cell_length_b   7.65183600
_cell_length_c   8.77113873
_cell_angle_alpha   90.00000000
_cell_angle_beta   101.37798404
_cell_angle_gamma   90.00000000
_symmetry_Int_Tables_number   1
_chemical_formula_structural   Sr2CaI6
_chemical_formula_sum   'Sr8 Ca4 I24'
_cell_volume   1671.58556460
_cell_formula_units_Z   4
loop_
 _symmetry_equiv_pos_site_id
 _symmetry_equiv_pos_as_xyz
  1  'x, y, z'
loop_
 _atom_site_type_symbol
 _atom_site_label
 _atom_site_symmetry_multiplicity
 _atom_site_fract_x
 _atom_site_fract_y
 _atom_site_fract_z
 _atom_site_occupancy
  Sr  Sr0  1  0.33310350  0.27882350  0.36024200  1
  Sr  Sr1  1  0.33310350  0.72117650  0.86024200  1
  Sr  Sr2  1  0.16689650  0.77882350  0.13975800  1
  Sr  Sr3  1  0.16689650  0.22117650  0.63975800  1
  Sr  Sr4  1  0.83310350  0.77882350  0.36024200  1
  Sr  Sr5  1  0.83310350  0.22117650  0.86024200  1
  Sr  Sr6  1  0.66689650  0.27882350  0.13975800  1
  Sr  Sr7  1  0.66689650  0.72117650  0.63975800  1
  Ca  Ca8  1  0.00000000  0.33045500  0.25000000  1
  Ca  Ca9  1  0.00000000  0.66954500  0.75000000  1
  Ca  Ca10  1  0.50000000  0.83045500  0.25000000  1
  Ca  Ca11  1  0.50000000  0.16954500  0.75000000  1
  I  I12  1  0.42385500  0.97930100  0.46725900  1
  I  I13  1  0.42385500  0.02069900  0.96725900  1
  I  I14  1  0.40907250  0.52936850  0.16796700  1
  I  I15  1  0.40907250  0.47063150  0.66796700  1
  I  I16  1  0.27385150  0.99642350  0.09225100  1
  I  I17  1  0.27385150  0.00357650  0.59225100  1
  I  I18  1  0.22614850  0.49642350  0.40774900  1
  I  I19  1  0.22614850  0.50357650  0.90774900  1
  I  I20  1  0.09092750  0.02936850  0.33203300  1
  I  I21  1  0.09092750  0.97063150  0.83203300  1
  I  I22  1  0.07614500  0.47930100  0.03274100  1
  I  I23  1  0.07614500  0.52069900  0.53274100  1
  I  I24  1  0.92385500  0.47930100  0.46725900  1
  I  I25  1  0.92385500  0.52069900  0.96725900  1
  I  I26  1  0.90907250  0.02936850  0.16796700  1
  I  I27  1  0.90907250  0.97063150  0.66796700  1
  I  I28  1  0.77385150  0.49642350  0.09225100  1
  I  I29  1  0.77385150  0.50357650  0.59225100  1
  I  I30  1  0.72614850  0.99642350  0.40774900  1
  I  I31  1  0.72614850  0.00357650  0.90774900  1
  I  I32  1  0.59092750  0.52936850  0.33203300  1
  I  I33  1  0.59092750  0.47063150  0.83203300  1
  I  I34  1  0.57614500  0.97930100  0.03274100  1
  I  I35  1  0.57614500  0.02069900  0.53274100  1
