# generated using pymatgen
data_Li4V3O8
_symmetry_space_group_name_H-M   'P 1'
_cell_length_a   5.85362712
_cell_length_b   5.85362712
_cell_length_c   15.41115713
_cell_angle_alpha   90.00000000
_cell_angle_beta   90.00000000
_cell_angle_gamma   120.00000000
_symmetry_Int_Tables_number   1
_chemical_formula_structural   Li4V3O8
_chemical_formula_sum   'Li12 V9 O24'
_cell_volume   457.31557025
_cell_formula_units_Z   3
loop_
 _symmetry_equiv_pos_site_id
 _symmetry_equiv_pos_as_xyz
  1  'x, y, z'
loop_
 _atom_site_type_symbol
 _atom_site_label
 _atom_site_symmetry_multiplicity
 _atom_site_fract_x
 _atom_site_fract_y
 _atom_site_fract_z
 _atom_site_occupancy
  Li  Li0  1  0.66666667  0.33333333  0.33333333  1
  Li  Li1  1  0.33333333  0.66666667  0.16666667  1
  Li  Li2  1  0.33333333  0.66666667  0.30881700  1
  Li  Li3  1  0.33333333  0.66666667  0.02451633  1
  Li  Li4  1  0.33333333  0.66666667  0.66666667  1
  Li  Li5  1  1.00000000  0.00000000  0.50000000  1
  Li  Li6  1  0.00000000  0.00000000  0.64215033  1
  Li  Li7  1  0.00000000  0.00000000  0.35784967  1
  Li  Li8  1  0.00000000  1.00000000  0.00000000  1
  Li  Li9  1  0.66666667  0.33333333  0.83333333  1
  Li  Li10  1  0.66666667  0.33333333  0.97548367  1
  Li  Li11  1  0.66666667  0.33333333  0.69118300  1
  V  V12  1  0.83333333  0.16666667  0.16666667  1
  V  V13  1  0.33333333  0.16666667  0.16666667  1
  V  V14  1  0.83333333  0.66666667  0.16666667  1
  V  V15  1  0.50000000  0.50000000  0.50000000  1
  V  V16  1  0.00000000  0.50000000  0.50000000  1
  V  V17  1  0.50000000  0.00000000  0.50000000  1
  V  V18  1  0.16666667  0.83333333  0.83333333  1
  V  V19  1  0.66666667  0.83333333  0.83333333  1
  V  V20  1  0.16666667  0.33333333  0.83333333  1
  O  O21  1  0.66666667  0.33333333  0.09750600  1
  O  O22  1  0.00000000  0.00000000  0.23582733  1
  O  O23  1  0.14336217  0.31569933  0.09790633  1
  O  O24  1  0.17233717  0.85663783  0.09790633  1
  O  O25  1  0.68430067  0.82766283  0.09790633  1
  O  O26  1  0.52330450  0.01763400  0.23542700  1
  O  O27  1  0.49432950  0.47669550  0.23542700  1
  O  O28  1  0.98236600  0.50567050  0.23542700  1
  O  O29  1  0.33333333  0.66666667  0.43083933  1
  O  O30  1  0.66666667  0.33333333  0.56916067  1
  O  O31  1  0.81002883  0.64903267  0.43123967  1
  O  O32  1  0.83900383  0.18997117  0.43123967  1
  O  O33  1  0.35096733  0.16099617  0.43123967  1
  O  O34  1  0.18997117  0.35096733  0.56876033  1
  O  O35  1  0.16099617  0.81002883  0.56876033  1
  O  O36  1  0.64903267  0.83900383  0.56876033  1
  O  O37  1  0.00000000  0.00000000  0.76417267  1
  O  O38  1  0.33333333  0.66666667  0.90249400  1
  O  O39  1  0.47669550  0.98236600  0.76457300  1
  O  O40  1  0.50567050  0.52330450  0.76457300  1
  O  O41  1  0.01763400  0.49432950  0.76457300  1
  O  O42  1  0.85663783  0.68430067  0.90209367  1
  O  O43  1  0.82766283  0.14336217  0.90209367  1
  O  O44  1  0.31569933  0.17233717  0.90209367  1
