# generated using pymatgen
data_Cs3TlO3
_symmetry_space_group_name_H-M   'P 1'
_cell_length_a   8.15642000
_cell_length_b   12.69913400
_cell_length_c   7.53436923
_cell_angle_alpha   90.00000000
_cell_angle_beta   101.82423371
_cell_angle_gamma   90.00000000
_symmetry_Int_Tables_number   1
_chemical_formula_structural   Cs3TlO3
_chemical_formula_sum   'Cs12 Tl4 O12'
_cell_volume   763.84639118
_cell_formula_units_Z   4
loop_
 _symmetry_equiv_pos_site_id
 _symmetry_equiv_pos_as_xyz
  1  'x, y, z'
loop_
 _atom_site_type_symbol
 _atom_site_label
 _atom_site_symmetry_multiplicity
 _atom_site_fract_x
 _atom_site_fract_y
 _atom_site_fract_z
 _atom_site_occupancy
  Cs  Cs0  1  0.36671900  0.00000000  0.15631300  1
  Cs  Cs1  1  0.50000000  0.69628400  0.00000000  1
  Cs  Cs2  1  0.50000000  0.30371600  0.00000000  1
  Cs  Cs3  1  0.50000000  0.75683000  0.50000000  1
  Cs  Cs4  1  0.50000000  0.24317000  0.50000000  1
  Cs  Cs5  1  0.63328100  0.00000000  0.84368700  1
  Cs  Cs6  1  0.86671900  0.50000000  0.15631300  1
  Cs  Cs7  1  0.00000000  0.19628400  0.00000000  1
  Cs  Cs8  1  0.00000000  0.80371600  0.00000000  1
  Cs  Cs9  1  0.00000000  0.25683000  0.50000000  1
  Cs  Cs10  1  0.00000000  0.74317000  0.50000000  1
  Cs  Cs11  1  0.13328100  0.50000000  0.84368700  1
  Tl  Tl12  1  0.17891100  0.00000000  0.65061500  1
  Tl  Tl13  1  0.82108900  0.00000000  0.34938500  1
  Tl  Tl14  1  0.67891100  0.50000000  0.65061500  1
  Tl  Tl15  1  0.32108900  0.50000000  0.34938500  1
  O  O16  1  0.09771900  0.00000000  0.34341100  1
  O  O17  1  0.30316050  0.14245650  0.77314800  1
  O  O18  1  0.30316050  0.85754350  0.77314800  1
  O  O19  1  0.69683950  0.14245650  0.22685200  1
  O  O20  1  0.69683950  0.85754350  0.22685200  1
  O  O21  1  0.90228100  0.00000000  0.65658900  1
  O  O22  1  0.59771900  0.50000000  0.34341100  1
  O  O23  1  0.80316050  0.64245650  0.77314800  1
  O  O24  1  0.80316050  0.35754350  0.77314800  1
  O  O25  1  0.19683950  0.64245650  0.22685200  1
  O  O26  1  0.19683950  0.35754350  0.22685200  1
  O  O27  1  0.40228100  0.50000000  0.65658900  1
