# generated using pymatgen
data_Cd4NiH20(ClO)10
_symmetry_space_group_name_H-M   'P 1'
_cell_length_a   6.72840300
_cell_length_b   12.04719900
_cell_length_c   16.46402095
_cell_angle_alpha   90.00000000
_cell_angle_beta   109.08284513
_cell_angle_gamma   90.00000000
_symmetry_Int_Tables_number   1
_chemical_formula_structural   Cd4NiH20(ClO)10
_chemical_formula_sum   'Cd8 Ni2 H40 Cl20 O20'
_cell_volume   1261.20976636
_cell_formula_units_Z   2
loop_
 _symmetry_equiv_pos_site_id
 _symmetry_equiv_pos_as_xyz
  1  'x, y, z'
loop_
 _atom_site_type_symbol
 _atom_site_label
 _atom_site_symmetry_multiplicity
 _atom_site_fract_x
 _atom_site_fract_y
 _atom_site_fract_z
 _atom_site_occupancy
  Cd  Cd0  1  0.19433500  0.98319900  0.93184200  1
  Cd  Cd1  1  0.80566500  0.48319900  0.56815800  1
  Cd  Cd2  1  0.80566500  0.01680100  0.06815800  1
  Cd  Cd3  1  0.19433500  0.51680100  0.43184200  1
  Cd  Cd4  1  0.61013400  0.97512000  0.80922900  1
  Cd  Cd5  1  0.38986600  0.47512000  0.69077100  1
  Cd  Cd6  1  0.38986600  0.02488000  0.19077100  1
  Cd  Cd7  1  0.61013400  0.52488000  0.30922900  1
  Ni  Ni8  1  0.00000000  0.00000000  0.50000000  1
  Ni  Ni9  1  0.00000000  0.50000000  0.00000000  1
  H  H10  1  0.40380200  0.75635400  0.75760400  1
  H  H11  1  0.59619800  0.25635400  0.74239600  1
  H  H12  1  0.59619800  0.24364600  0.24239600  1
  H  H13  1  0.40380200  0.74364600  0.25760400  1
  H  H14  1  0.28626000  0.84197000  0.68526200  1
  H  H15  1  0.71374000  0.34197000  0.81473800  1
  H  H16  1  0.71374000  0.15803000  0.31473800  1
  H  H17  1  0.28626000  0.65803000  0.18526200  1
  H  H18  1  0.88466500  0.80068200  0.42329700  1
  H  H19  1  0.11533500  0.30068200  0.07670300  1
  H  H20  1  0.11533500  0.19931800  0.57670300  1
  H  H21  1  0.88466500  0.69931800  0.92329700  1
  H  H22  1  0.68219600  0.87646300  0.39805900  1
  H  H23  1  0.31780400  0.37646300  0.10194100  1
  H  H24  1  0.31780400  0.12353700  0.60194100  1
  H  H25  1  0.68219600  0.62353700  0.89805900  1
  H  H26  1  0.05411300  0.98458900  0.66708300  1
  H  H27  1  0.94588700  0.48458900  0.83291700  1
  H  H28  1  0.94588700  0.01541100  0.33291700  1
  H  H29  1  0.05411300  0.51541100  0.16708300  1
  H  H30  1  0.89777700  0.88936300  0.61608100  1
  H  H31  1  0.10222300  0.38936300  0.88391900  1
  H  H32  1  0.10222300  0.11063700  0.38391900  1
  H  H33  1  0.89777700  0.61063700  0.11608100  1
  H  H34  1  0.30650500  0.92328600  0.44554400  1
  H  H35  1  0.69349500  0.42328600  0.05445600  1
  H  H36  1  0.69349500  0.07671400  0.55445600  1
  H  H37  1  0.30650500  0.57671400  0.94554400  1
  H  H38  1  0.39533200  0.89262500  0.54435200  1
  H  H39  1  0.60466800  0.39262500  0.95564800  1
  H  H40  1  0.60466800  0.10737500  0.45564800  1
  H  H41  1  0.39533200  0.60737500  0.04435200  1
  H  H42  1  0.63996100  0.76720700  0.55416100  1
  H  H43  1  0.36003900  0.26720700  0.94583900  1
  H  H44  1  0.36003900  0.23279300  0.44583900  1
  H  H45  1  0.63996100  0.73279300  0.05416100  1
  H  H46  1  0.64706100  0.78428700  0.64854100  1
  H  H47  1  0.35293900  0.28428700  0.85145900  1
  H  H48  1  0.35293900  0.21571300  0.35145900  1
  H  H49  1  0.64706100  0.71571300  0.14854100  1
  Cl  Cl50  1  0.55299600  0.87363100  0.95510900  1
  Cl  Cl51  1  0.44700400  0.37363100  0.54489100  1
  Cl  Cl52  1  0.44700400  0.12636900  0.04489100  1
  Cl  Cl53  1  0.55299600  0.62636900  0.45510900  1
  Cl  Cl54  1  0.26326200  0.07814000  0.79960300  1
  Cl  Cl55  1  0.73673800  0.57814000  0.70039700  1
  Cl  Cl56  1  0.73673800  0.92186000  0.20039700  1
  Cl  Cl57  1  0.26326200  0.42186000  0.29960300  1
  Cl  Cl58  1  0.13607600  0.88824100  0.07186600  1
  Cl  Cl59  1  0.86392400  0.38824100  0.42813400  1
  Cl  Cl60  1  0.86392400  0.11175900  0.92813400  1
  Cl  Cl61  1  0.13607600  0.61175900  0.57186600  1
  Cl  Cl62  1  0.93293400  0.84487600  0.83304800  1
  Cl  Cl63  1  0.06706600  0.34487600  0.66695200  1
  Cl  Cl64  1  0.06706600  0.15512400  0.16695200  1
  Cl  Cl65  1  0.93293400  0.65512400  0.33304800  1
  Cl  Cl66  1  0.63085900  0.09526100  0.68099400  1
  Cl  Cl67  1  0.36914100  0.59526100  0.81900600  1
  Cl  Cl68  1  0.36914100  0.90473900  0.31900600  1
  Cl  Cl69  1  0.63085900  0.40473900  0.18099400  1
  O  O70  1  0.42615200  0.82108100  0.72450000  1
  O  O71  1  0.57384800  0.32108100  0.77550000  1
  O  O72  1  0.57384800  0.17891900  0.27550000  1
  O  O73  1  0.42615200  0.67891900  0.22450000  1
  O  O74  1  0.82003300  0.86366800  0.44307100  1
  O  O75  1  0.17996700  0.36366800  0.05692900  1
  O  O76  1  0.17996700  0.13633200  0.55692900  1
  O  O77  1  0.82003300  0.63633200  0.94307100  1
  O  O78  1  0.03207700  0.92935900  0.62096600  1
  O  O79  1  0.96792300  0.42935900  0.87903400  1
  O  O80  1  0.96792300  0.07064100  0.37903400  1
  O  O81  1  0.03207700  0.57064100  0.12096600  1
  O  O82  1  0.26706900  0.91578100  0.49784500  1
  O  O83  1  0.73293100  0.41578100  0.00215500  1
  O  O84  1  0.73293100  0.08421900  0.50215500  1
  O  O85  1  0.26706900  0.58421900  0.99784500  1
  O  O86  1  0.65384000  0.82511100  0.59785200  1
  O  O87  1  0.34616000  0.32511100  0.90214800  1
  O  O88  1  0.34616000  0.17488900  0.40214800  1
  O  O89  1  0.65384000  0.67488900  0.09785200  1
