# generated using pymatgen
data_Ca5Ge3O11
_symmetry_space_group_name_H-M   'P 1'
_cell_length_a   7.02933200
_cell_length_b   7.05404578
_cell_length_c   11.14216201
_cell_angle_alpha   85.32196469
_cell_angle_beta   84.52656781
_cell_angle_gamma   77.49513253
_symmetry_Int_Tables_number   1
_chemical_formula_structural   Ca5Ge3O11
_chemical_formula_sum   'Ca10 Ge6 O22'
_cell_volume   535.86567852
_cell_formula_units_Z   2
loop_
 _symmetry_equiv_pos_site_id
 _symmetry_equiv_pos_as_xyz
  1  'x, y, z'
loop_
 _atom_site_type_symbol
 _atom_site_label
 _atom_site_symmetry_multiplicity
 _atom_site_fract_x
 _atom_site_fract_y
 _atom_site_fract_z
 _atom_site_occupancy
  Ca  Ca0  1  0.00513000  0.03122200  0.24306700  1
  Ca  Ca1  1  0.07470500  0.45185000  0.75464200  1
  Ca  Ca2  1  0.45928300  0.09223500  0.76671800  1
  Ca  Ca3  1  0.29012300  0.70124100  0.00409900  1
  Ca  Ca4  1  0.31722100  0.67485800  0.49353400  1
  Ca  Ca5  1  0.68277900  0.32514200  0.50646600  1
  Ca  Ca6  1  0.70987700  0.29875900  0.99590100  1
  Ca  Ca7  1  0.54071700  0.90776500  0.23328200  1
  Ca  Ca8  1  0.92529500  0.54815000  0.24535800  1
  Ca  Ca9  1  0.99487000  0.96877800  0.75693300  1
  Ge  Ge10  1  0.20677300  0.21383100  0.01564300  1
  Ge  Ge11  1  0.19408200  0.18391000  0.46362500  1
  Ge  Ge12  1  0.45374900  0.42852000  0.26730600  1
  Ge  Ge13  1  0.54625100  0.57148000  0.73269400  1
  Ge  Ge14  1  0.80591800  0.81609000  0.53637500  1
  Ge  Ge15  1  0.79322700  0.78616900  0.98435700  1
  O  O16  1  0.16266900  0.15825700  0.62125300  1
  O  O17  1  0.13341000  0.15249700  0.87602500  1
  O  O18  1  0.36522100  0.34322000  0.42450200  1
  O  O19  1  0.60038500  0.22303900  0.20462900  1
  O  O20  1  0.02541800  0.71228000  0.60597300  1
  O  O21  1  0.24681900  0.58016100  0.21143000  1
  O  O22  1  0.71528800  0.03303200  0.61216400  1
  O  O23  1  0.01074200  0.68789700  0.89494300  1
  O  O24  1  0.70631100  0.00657000  0.89735700  1
  O  O25  1  0.37285200  0.36219300  0.96294200  1
  O  O26  1  0.40853200  0.42604700  0.66976000  1
  O  O27  1  0.59146800  0.57395300  0.33024000  1
  O  O28  1  0.62714800  0.63780700  0.03705800  1
  O  O29  1  0.29368900  0.99343000  0.10264300  1
  O  O30  1  0.98925800  0.31210300  0.10505700  1
  O  O31  1  0.28471200  0.96696800  0.38783600  1
  O  O32  1  0.75318100  0.41983900  0.78857000  1
  O  O33  1  0.97458200  0.28772000  0.39402700  1
  O  O34  1  0.39961500  0.77696100  0.79537100  1
  O  O35  1  0.63477900  0.65678000  0.57549800  1
  O  O36  1  0.86659000  0.84750300  0.12397500  1
  O  O37  1  0.83733100  0.84174300  0.37874700  1
