# generated using pymatgen
data_Na8TiO6
_symmetry_space_group_name_H-M   'P 1'
_cell_length_a   11.64826377
_cell_length_b   11.64826377
_cell_length_c   11.67493500
_cell_angle_alpha   90.00000000
_cell_angle_beta   90.00000000
_cell_angle_gamma   120.00000000
_symmetry_Int_Tables_number   1
_chemical_formula_structural   Na8TiO6
_chemical_formula_sum   'Na48 Ti6 O36'
_cell_volume   1371.85274283
_cell_formula_units_Z   6
loop_
 _symmetry_equiv_pos_site_id
 _symmetry_equiv_pos_as_xyz
  1  'x, y, z'
loop_
 _atom_site_type_symbol
 _atom_site_label
 _atom_site_symmetry_multiplicity
 _atom_site_fract_x
 _atom_site_fract_y
 _atom_site_fract_z
 _atom_site_occupancy
  Na  Na0  1  0.83604650  0.83604650  0.46259700  1
  Na  Na1  1  0.52122650  0.52122650  0.68676200  1
  Na  Na2  1  0.80543800  0.66304200  0.80485200  1
  Na  Na3  1  0.77537700  0.61543500  0.07541700  1
  Na  Na4  1  0.85760400  0.66304200  0.30485200  1
  Na  Na5  1  0.47877350  0.47877350  0.18676200  1
  Na  Na6  1  0.84005800  0.61543500  0.57541700  1
  Na  Na7  1  0.58895200  0.45406000  0.43515800  1
  Na  Na8  1  0.54594000  0.41104800  0.93515800  1
  Na  Na9  1  0.16395350  0.16395350  0.96259700  1
  Na  Na10  1  0.86510800  0.45406000  0.93515800  1
  Na  Na11  1  0.33695800  0.19456200  0.30485200  1
  Na  Na12  1  0.38456500  0.22462300  0.57541700  1
  Na  Na13  1  0.38456500  0.15994200  0.07541700  1
  Na  Na14  1  0.33695800  0.14239600  0.80485200  1
  Na  Na15  1  0.86510800  0.41104800  0.43515800  1
  Na  Na16  1  0.16395350  0.00000000  0.46259700  1
  Na  Na17  1  0.54594000  0.13489200  0.43515800  1
  Na  Na18  1  0.00000000  0.83604650  0.96259700  1
  Na  Na19  1  0.58895200  0.13489200  0.93515800  1
  Na  Na20  1  0.84005800  0.22462300  0.07541700  1
  Na  Na21  1  0.47877350  0.00000000  0.68676200  1
  Na  Na22  1  0.85760400  0.19456200  0.80485200  1
  Na  Na23  1  0.19456200  0.85760400  0.80485200  1
  Na  Na24  1  0.77537700  0.15994200  0.57541700  1
  Na  Na25  1  0.22462300  0.84005800  0.07541700  1
  Na  Na26  1  0.80543800  0.14239600  0.30485200  1
  Na  Na27  1  0.14239600  0.80543800  0.30485200  1
  Na  Na28  1  0.52122650  0.00000000  0.18676200  1
  Na  Na29  1  0.15994200  0.77537700  0.57541700  1
  Na  Na30  1  0.41104800  0.86510800  0.43515800  1
  Na  Na31  1  0.45406000  0.86510800  0.93515800  1
  Na  Na32  1  0.83604650  0.00000000  0.96259700  1
  Na  Na33  1  0.13489200  0.58895200  0.93515800  1
  Na  Na34  1  0.00000000  0.52122650  0.18676200  1
  Na  Na35  1  0.66304200  0.85760400  0.30485200  1
  Na  Na36  1  0.61543500  0.84005800  0.57541700  1
  Na  Na37  1  0.61543500  0.77537700  0.07541700  1
  Na  Na38  1  0.66304200  0.80543800  0.80485200  1
  Na  Na39  1  0.00000000  0.47877350  0.68676200  1
  Na  Na40  1  0.13489200  0.54594000  0.43515800  1
  Na  Na41  1  0.45406000  0.58895200  0.43515800  1
  Na  Na42  1  0.41104800  0.54594000  0.93515800  1
  Na  Na43  1  0.15994200  0.38456500  0.07541700  1
  Na  Na44  1  0.14239600  0.33695800  0.80485200  1
  Na  Na45  1  0.22462300  0.38456500  0.57541700  1
  Na  Na46  1  0.19456200  0.33695800  0.30485200  1
  Na  Na47  1  0.00000000  0.16395350  0.46259700  1
  Ti  Ti48  1  0.66666667  0.33333333  0.69376400  1
  Ti  Ti49  1  0.00000000  0.00000000  0.71007400  1
  Ti  Ti50  1  0.00000000  0.00000000  0.21007400  1
  Ti  Ti51  1  0.66666667  0.33333333  0.19376400  1
  Ti  Ti52  1  0.33333333  0.66666667  0.19376400  1
  Ti  Ti53  1  0.33333333  0.66666667  0.69376400  1
  O  O54  1  0.84994550  0.84994550  0.26200100  1
  O  O55  1  0.65947350  0.65947350  0.54593900  1
  O  O56  1  0.65036450  0.65036450  0.93513000  1
  O  O57  1  0.34963550  0.34963550  0.43513000  1
  O  O58  1  0.67074400  0.48492100  0.24354100  1
  O  O59  1  0.34052650  0.34052650  0.04593900  1
  O  O60  1  0.81417700  0.48492100  0.74354100  1
  O  O61  1  0.15005450  0.15005450  0.76200100  1
  O  O62  1  0.51507900  0.32925600  0.74354100  1
  O  O63  1  0.66666667  0.33333333  0.53619900  1
  O  O64  1  0.66666667  0.33333333  0.03619900  1
  O  O65  1  0.00000000  0.00000000  0.55361700  1
  O  O66  1  0.00000000  0.00000000  0.05361700  1
  O  O67  1  0.51507900  0.18582300  0.24354100  1
  O  O68  1  0.15005450  0.00000000  0.26200100  1
  O  O69  1  0.81417700  0.32925600  0.24354100  1
  O  O70  1  0.34052650  0.00000000  0.54593900  1
  O  O71  1  0.67074400  0.18582300  0.74354100  1
  O  O72  1  0.34963550  0.00000000  0.93513000  1
  O  O73  1  0.00000000  0.84994550  0.76200100  1
  O  O74  1  0.65036450  0.00000000  0.43513000  1
  O  O75  1  0.32925600  0.81417700  0.24354100  1
  O  O76  1  0.65947350  0.00000000  0.04593900  1
  O  O77  1  0.00000000  0.65947350  0.04593900  1
  O  O78  1  0.00000000  0.65036450  0.43513000  1
  O  O79  1  0.18582300  0.67074400  0.74354100  1
  O  O80  1  0.84994550  0.00000000  0.76200100  1
  O  O81  1  0.48492100  0.81417700  0.74354100  1
  O  O82  1  0.33333333  0.66666667  0.03619900  1
  O  O83  1  0.33333333  0.66666667  0.53619900  1
  O  O84  1  0.48492100  0.67074400  0.24354100  1
  O  O85  1  0.18582300  0.51507900  0.24354100  1
  O  O86  1  0.00000000  0.34963550  0.93513000  1
  O  O87  1  0.00000000  0.34052650  0.54593900  1
  O  O88  1  0.32925600  0.51507900  0.74354100  1
  O  O89  1  0.00000000  0.15005450  0.26200100  1
