# generated using pymatgen
data_LiAlVO4
_symmetry_space_group_name_H-M   'P 1'
_cell_length_a   5.81275961
_cell_length_b   5.81275961
_cell_length_c   8.15699209
_cell_angle_alpha   90.00000000
_cell_angle_beta   90.00000000
_cell_angle_gamma   90.00000000
_symmetry_Int_Tables_number   1
_chemical_formula_structural   LiAlVO4
_chemical_formula_sum   'Li4 Al4 V4 O16'
_cell_volume   275.60986983
_cell_formula_units_Z   4
loop_
 _symmetry_equiv_pos_site_id
 _symmetry_equiv_pos_as_xyz
  1  'x, y, z'
loop_
 _atom_site_type_symbol
 _atom_site_label
 _atom_site_symmetry_multiplicity
 _atom_site_fract_x
 _atom_site_fract_y
 _atom_site_fract_z
 _atom_site_occupancy
  Li  Li0  1  0.00000000  0.22624750  0.00000000  1
  Li  Li1  1  0.00000000  0.77375250  0.50000000  1
  Li  Li2  1  0.22624750  0.00000000  0.25000000  1
  Li  Li3  1  0.77375250  0.00000000  0.75000000  1
  Al  Al4  1  0.25825950  0.25825950  0.62500000  1
  Al  Al5  1  0.25825950  0.74174050  0.87500000  1
  Al  Al6  1  0.74174050  0.25825950  0.37500000  1
  Al  Al7  1  0.74174050  0.74174050  0.12500000  1
  V  V8  1  0.50000000  0.77465250  0.50000000  1
  V  V9  1  0.77465250  0.50000000  0.75000000  1
  V  V10  1  0.22534750  0.50000000  0.25000000  1
  V  V11  1  0.50000000  0.22534750  0.00000000  1
  O  O12  1  0.00376250  0.26732950  0.26131300  1
  O  O13  1  0.00376250  0.73267050  0.23868700  1
  O  O14  1  0.26732950  0.00376250  0.98868700  1
  O  O15  1  0.26732950  0.99623750  0.51131300  1
  O  O16  1  0.73267050  0.99623750  0.48868700  1
  O  O17  1  0.73267050  0.00376250  0.01131300  1
  O  O18  1  0.99623750  0.26732950  0.73868700  1
  O  O19  1  0.99623750  0.73267050  0.76131300  1
  O  O20  1  0.26673650  0.49287250  0.00993700  1
  O  O21  1  0.26673650  0.50712750  0.49006300  1
  O  O22  1  0.49287250  0.26673650  0.24006300  1
  O  O23  1  0.49287250  0.73326350  0.25993700  1
  O  O24  1  0.50712750  0.26673650  0.75993700  1
  O  O25  1  0.50712750  0.73326350  0.74006300  1
  O  O26  1  0.73326350  0.50712750  0.50993700  1
  O  O27  1  0.73326350  0.49287250  0.99006300  1
