# generated using pymatgen
data_Gd2TiO5
_symmetry_space_group_name_H-M   'P 1'
_cell_length_a   6.91970000
_cell_length_b   7.14881600
_cell_length_c   9.57997671
_cell_angle_alpha   90.00000000
_cell_angle_beta   103.52557519
_cell_angle_gamma   90.00000000
_symmetry_Int_Tables_number   1
_chemical_formula_structural   Gd2TiO5
_chemical_formula_sum   'Gd8 Ti4 O20'
_cell_volume   460.75575445
_cell_formula_units_Z   4
loop_
 _symmetry_equiv_pos_site_id
 _symmetry_equiv_pos_as_xyz
  1  'x, y, z'
loop_
 _atom_site_type_symbol
 _atom_site_label
 _atom_site_symmetry_multiplicity
 _atom_site_fract_x
 _atom_site_fract_y
 _atom_site_fract_z
 _atom_site_occupancy
  Gd  Gd0  1  0.26971600  0.87334700  0.97078300  1
  Gd  Gd1  1  0.76971600  0.62665300  0.97078300  1
  Gd  Gd2  1  0.46971300  0.86006800  0.63938200  1
  Gd  Gd3  1  0.96971300  0.63993200  0.63938200  1
  Gd  Gd4  1  0.03028700  0.36006800  0.36061800  1
  Gd  Gd5  1  0.53028700  0.13993200  0.36061800  1
  Gd  Gd6  1  0.23028400  0.37334700  0.02921700  1
  Gd  Gd7  1  0.73028400  0.12665300  0.02921700  1
  Ti  Ti8  1  0.48000400  0.40508900  0.70085700  1
  Ti  Ti9  1  0.98000400  0.09491100  0.70085700  1
  Ti  Ti10  1  0.01999600  0.90508900  0.29914300  1
  Ti  Ti11  1  0.51999600  0.59491100  0.29914300  1
  O  O12  1  0.01300000  0.13885400  0.89594100  1
  O  O13  1  0.07153900  0.61428600  0.89063500  1
  O  O14  1  0.51300000  0.36114600  0.89594100  1
  O  O15  1  0.57153900  0.88571400  0.89063500  1
  O  O16  1  0.18167500  0.91880700  0.71917100  1
  O  O17  1  0.01112400  0.30532900  0.60386600  1
  O  O18  1  0.68167500  0.58119300  0.71917100  1
  O  O19  1  0.28962200  0.57132000  0.61585900  1
  O  O20  1  0.51112400  0.19467100  0.60386600  1
  O  O21  1  0.78962200  0.92868000  0.61585900  1
  O  O22  1  0.21037800  0.07132000  0.38414100  1
  O  O23  1  0.48887600  0.80532900  0.39613400  1
  O  O24  1  0.71037800  0.42868000  0.38414100  1
  O  O25  1  0.31832500  0.41880700  0.28082900  1
  O  O26  1  0.98887600  0.69467100  0.39613400  1
  O  O27  1  0.81832500  0.08119300  0.28082900  1
  O  O28  1  0.42846100  0.11428600  0.10936500  1
  O  O29  1  0.48700000  0.63885400  0.10405900  1
  O  O30  1  0.92846100  0.38571400  0.10936500  1
  O  O31  1  0.98700000  0.86114600  0.10405900  1
