# generated using pymatgen
data_Li4FeOF5
_symmetry_space_group_name_H-M   'P 1'
_cell_length_a   5.21054764
_cell_length_b   8.87636004
_cell_length_c   9.69003348
_cell_angle_alpha   90.00000000
_cell_angle_beta   99.28423125
_cell_angle_gamma   90.00000000
_symmetry_Int_Tables_number   1
_chemical_formula_structural   Li4FeOF5
_chemical_formula_sum   'Li16 Fe4 O4 F20'
_cell_volume   442.29983308
_cell_formula_units_Z   4
loop_
 _symmetry_equiv_pos_site_id
 _symmetry_equiv_pos_as_xyz
  1  'x, y, z'
loop_
 _atom_site_type_symbol
 _atom_site_label
 _atom_site_symmetry_multiplicity
 _atom_site_fract_x
 _atom_site_fract_y
 _atom_site_fract_z
 _atom_site_occupancy
  Li  Li0  1  0.98054700  0.43065350  0.26239950  1
  Li  Li1  1  0.48054700  0.06934650  0.76239950  1
  Li  Li2  1  0.51841025  0.42264925  0.75194300  1
  Li  Li3  1  0.01841025  0.07735075  0.25194300  1
  Li  Li4  1  0.22958775  0.57839175  0.49521600  1
  Li  Li5  1  0.22958775  0.42160825  0.99521600  1
  Li  Li6  1  0.49605050  0.24408300  0.24559550  1
  Li  Li7  1  0.99605050  0.25591700  0.74559550  1
  Li  Li8  1  0.48054700  0.93065350  0.26239950  1
  Li  Li9  1  0.98054700  0.56934650  0.76239950  1
  Li  Li10  1  0.01841025  0.92264925  0.75194300  1
  Li  Li11  1  0.51841025  0.57735075  0.25194300  1
  Li  Li12  1  0.72958775  0.07839175  0.49521600  1
  Li  Li13  1  0.72958775  0.92160825  0.99521600  1
  Li  Li14  1  0.99605050  0.74408300  0.24559550  1
  Li  Li15  1  0.49605050  0.75591700  0.74559550  1
  Fe  Fe16  1  0.26297125  0.23339125  0.49063000  1
  Fe  Fe17  1  0.26297125  0.76660875  0.99063000  1
  Fe  Fe18  1  0.76297125  0.73339125  0.49063000  1
  Fe  Fe19  1  0.76297125  0.26660875  0.99063000  1
  O  O20  1  0.37524175  0.10043375  0.37058200  1
  O  O21  1  0.37524175  0.89956625  0.87058200  1
  O  O22  1  0.87524175  0.60043375  0.37058200  1
  O  O23  1  0.87524175  0.39956625  0.87058200  1
  F  F24  1  0.10009250  0.27160900  0.12784650  1
  F  F25  1  0.60009250  0.22839100  0.62784650  1
  F  F26  1  0.34238275  0.58502775  0.87421400  1
  F  F27  1  0.34238275  0.41497225  0.37421400  1
  F  F28  1  0.17172100  0.59744150  0.12515950  1
  F  F29  1  0.17172100  0.40255850  0.62515950  1
  F  F30  1  0.12069575  0.09803425  0.63307500  1
  F  F31  1  0.12069575  0.90196575  0.13307500  1
  F  F32  1  0.89838500  0.23914250  0.38254950  1
  F  F33  1  0.39838500  0.26085750  0.88254950  1
  F  F34  1  0.60009250  0.77160900  0.12784650  1
  F  F35  1  0.10009250  0.72839100  0.62784650  1
  F  F36  1  0.84238275  0.08502775  0.87421400  1
  F  F37  1  0.84238275  0.91497225  0.37421400  1
  F  F38  1  0.67172100  0.09744150  0.12515950  1
  F  F39  1  0.67172100  0.90255850  0.62515950  1
  F  F40  1  0.62069575  0.59803425  0.63307500  1
  F  F41  1  0.62069575  0.40196575  0.13307500  1
  F  F42  1  0.39838500  0.73914250  0.38254950  1
  F  F43  1  0.89838500  0.76085750  0.88254950  1
