# generated using pymatgen
data_TaNbO5
_symmetry_space_group_name_H-M   'P 1'
_cell_length_a   14.37690360
_cell_length_b   5.70446800
_cell_length_c   14.38985300
_cell_angle_alpha   90.00000000
_cell_angle_beta   119.71529973
_cell_angle_gamma   90.00000000
_symmetry_Int_Tables_number   1
_chemical_formula_structural   TaNbO5
_chemical_formula_sum   'Ta8 Nb8 O40'
_cell_volume   1024.95849560
_cell_formula_units_Z   8
loop_
 _symmetry_equiv_pos_site_id
 _symmetry_equiv_pos_as_xyz
  1  'x, y, z'
loop_
 _atom_site_type_symbol
 _atom_site_label
 _atom_site_symmetry_multiplicity
 _atom_site_fract_x
 _atom_site_fract_y
 _atom_site_fract_z
 _atom_site_occupancy
  Ta  Ta0  1  0.84573500  0.73368000  0.40746100  1
  Ta  Ta1  1  0.65440300  0.23925000  0.56095900  1
  Ta  Ta2  1  0.84573500  0.76632000  0.90746100  1
  Ta  Ta3  1  0.65440300  0.26075000  0.06095900  1
  Ta  Ta4  1  0.34559700  0.73925000  0.93904100  1
  Ta  Ta5  1  0.15426500  0.23368000  0.09253900  1
  Ta  Ta6  1  0.34559700  0.76075000  0.43904100  1
  Ta  Ta7  1  0.15426500  0.26632000  0.59253900  1
  Nb  Nb8  1  0.94300300  0.25801100  0.79638300  1
  Nb  Nb9  1  0.94300300  0.24198900  0.29638300  1
  Nb  Nb10  1  0.55712800  0.74711000  0.35370200  1
  Nb  Nb11  1  0.44287200  0.24711000  0.14629800  1
  Nb  Nb12  1  0.55712800  0.75289000  0.85370200  1
  Nb  Nb13  1  0.44287200  0.25289000  0.64629800  1
  Nb  Nb14  1  0.05699700  0.75801100  0.70361700  1
  Nb  Nb15  1  0.05699700  0.74198900  0.20361700  1
  O  O16  1  0.99249900  0.97150800  0.75840400  1
  O  O17  1  0.88730000  0.53525800  0.84583600  1
  O  O18  1  0.92684500  0.75666500  0.55638300  1
  O  O19  1  0.80129300  0.25102000  0.66255500  1
  O  O20  1  0.99249900  0.52849200  0.25840400  1
  O  O21  1  0.88730000  0.96474200  0.34583600  1
  O  O22  1  0.87139300  0.44732300  0.36479500  1
  O  O23  1  0.62020900  0.95303400  0.49145600  1
  O  O24  1  0.62298200  0.47070900  0.46020500  1
  O  O25  1  0.69903600  0.77191200  0.36164800  1
  O  O26  1  0.92684500  0.74333500  0.05638300  1
  O  O27  1  0.80129300  0.24898000  0.16255500  1
  O  O28  1  0.42756300  0.71671700  0.37210000  1
  O  O29  1  0.50094900  0.02419400  0.26341700  1
  O  O30  1  0.49905100  0.52419400  0.23658300  1
  O  O31  1  0.87139300  0.05267700  0.86479500  1
  O  O32  1  0.57243700  0.21671700  0.12790000  1
  O  O33  1  0.62020900  0.54696600  0.99145600  1
  O  O34  1  0.62298200  0.02929100  0.96020500  1
  O  O35  1  0.69903600  0.72808800  0.86164800  1
  O  O36  1  0.30096400  0.27191200  0.13835200  1
  O  O37  1  0.37701800  0.97070900  0.03979500  1
  O  O38  1  0.37979100  0.45303400  0.00854400  1
  O  O39  1  0.42756300  0.78328300  0.87210000  1
  O  O40  1  0.12860700  0.94732300  0.13520500  1
  O  O41  1  0.50094900  0.47580600  0.76341700  1
  O  O42  1  0.49905100  0.97580600  0.73658300  1
  O  O43  1  0.57243700  0.28328300  0.62790000  1
  O  O44  1  0.19870700  0.75102000  0.83744500  1
  O  O45  1  0.07315500  0.25666500  0.94361700  1
  O  O46  1  0.30096400  0.22808800  0.63835200  1
  O  O47  1  0.37701800  0.52929100  0.53979500  1
  O  O48  1  0.37979100  0.04696600  0.50854400  1
  O  O49  1  0.12860700  0.55267700  0.63520500  1
  O  O50  1  0.11270000  0.03525800  0.65416400  1
  O  O51  1  0.00750100  0.47150800  0.74159600  1
  O  O52  1  0.19870700  0.74898000  0.33744500  1
  O  O53  1  0.07315500  0.24333500  0.44361700  1
  O  O54  1  0.11270000  0.46474200  0.15416400  1
  O  O55  1  0.00750100  0.02849200  0.24159600  1
