# generated using pymatgen
data_BaSiO3
_symmetry_space_group_name_H-M   'P 1'
_cell_length_a   13.12018800
_cell_length_b   7.59662200
_cell_length_c   11.47821306
_cell_angle_alpha   90.00000000
_cell_angle_beta   111.80224651
_cell_angle_gamma   90.00000000
_symmetry_Int_Tables_number   1
_chemical_formula_structural   BaSiO3
_chemical_formula_sum   'Ba12 Si12 O36'
_cell_volume   1062.19272933
_cell_formula_units_Z   12
loop_
 _symmetry_equiv_pos_site_id
 _symmetry_equiv_pos_as_xyz
  1  'x, y, z'
loop_
 _atom_site_type_symbol
 _atom_site_label
 _atom_site_symmetry_multiplicity
 _atom_site_fract_x
 _atom_site_fract_y
 _atom_site_fract_z
 _atom_site_occupancy
  Ba  Ba0  1  0.75000000  0.25000000  0.50000000  1
  Ba  Ba1  1  0.41215850  0.26221750  0.50095700  1
  Ba  Ba2  1  0.58784150  0.26221750  0.99904300  1
  Ba  Ba3  1  0.41215850  0.73778250  0.00095700  1
  Ba  Ba4  1  0.58784150  0.73778250  0.49904300  1
  Ba  Ba5  1  0.75000000  0.75000000  0.00000000  1
  Ba  Ba6  1  0.25000000  0.75000000  0.50000000  1
  Ba  Ba7  1  0.91215850  0.76221750  0.50095700  1
  Ba  Ba8  1  0.08784150  0.76221750  0.99904300  1
  Ba  Ba9  1  0.91215850  0.23778250  0.00095700  1
  Ba  Ba10  1  0.08784150  0.23778250  0.49904300  1
  Ba  Ba11  1  0.25000000  0.25000000  0.00000000  1
  Si  Si12  1  0.38125400  0.03699200  0.75355400  1
  Si  Si13  1  0.50000000  0.67929000  0.75000000  1
  Si  Si14  1  0.38125400  0.96300800  0.25355400  1
  Si  Si15  1  0.61874600  0.03699200  0.74644600  1
  Si  Si16  1  0.50000000  0.32071000  0.25000000  1
  Si  Si17  1  0.61874600  0.96300800  0.24644600  1
  Si  Si18  1  0.88125400  0.53699200  0.75355400  1
  Si  Si19  1  0.00000000  0.17929000  0.75000000  1
  Si  Si20  1  0.88125400  0.46300800  0.25355400  1
  Si  Si21  1  0.11874600  0.53699200  0.74644600  1
  Si  Si22  1  0.00000000  0.82071000  0.25000000  1
  Si  Si23  1  0.11874600  0.46300800  0.24644600  1
  O  O24  1  0.28540050  0.08841150  0.62178200  1
  O  O25  1  0.37522750  0.08734050  0.88722700  1
  O  O26  1  0.39865900  0.81581600  0.75168000  1
  O  O27  1  0.28540050  0.91158850  0.12178200  1
  O  O28  1  0.37522750  0.91265950  0.38722700  1
  O  O29  1  0.45547400  0.57629900  0.61764500  1
  O  O30  1  0.50000000  0.12063700  0.75000000  1
  O  O31  1  0.54452600  0.57629900  0.88235500  1
  O  O32  1  0.39865900  0.18418400  0.25168000  1
  O  O33  1  0.60134100  0.81581600  0.74832000  1
  O  O34  1  0.45547400  0.42370100  0.11764500  1
  O  O35  1  0.50000000  0.87936300  0.25000000  1
  O  O36  1  0.54452600  0.42370100  0.38235500  1
  O  O37  1  0.62477250  0.08734050  0.61277300  1
  O  O38  1  0.71459950  0.08841150  0.87821800  1
  O  O39  1  0.60134100  0.18418400  0.24832000  1
  O  O40  1  0.62477250  0.91265950  0.11277300  1
  O  O41  1  0.71459950  0.91158850  0.37821800  1
  O  O42  1  0.78540050  0.58841150  0.62178200  1
  O  O43  1  0.87522750  0.58734050  0.88722700  1
  O  O44  1  0.89865900  0.31581600  0.75168000  1
  O  O45  1  0.78540050  0.41158850  0.12178200  1
  O  O46  1  0.87522750  0.41265950  0.38722700  1
  O  O47  1  0.95547400  0.07629900  0.61764500  1
  O  O48  1  0.00000000  0.62063700  0.75000000  1
  O  O49  1  0.04452600  0.07629900  0.88235500  1
  O  O50  1  0.89865900  0.68418400  0.25168000  1
  O  O51  1  0.10134100  0.31581600  0.74832000  1
  O  O52  1  0.95547400  0.92370100  0.11764500  1
  O  O53  1  0.00000000  0.37936300  0.25000000  1
  O  O54  1  0.04452600  0.92370100  0.38235500  1
  O  O55  1  0.12477250  0.58734050  0.61277300  1
  O  O56  1  0.21459950  0.58841150  0.87821800  1
  O  O57  1  0.10134100  0.68418400  0.24832000  1
  O  O58  1  0.12477250  0.41265950  0.11277300  1
  O  O59  1  0.21459950  0.41158850  0.37821800  1
