# generated using pymatgen
data_MnV(P2O7)2
_symmetry_space_group_name_H-M   'P 1'
_cell_length_a   4.83687743
_cell_length_b   7.03519787
_cell_length_c   8.16856513
_cell_angle_alpha   87.38210049
_cell_angle_beta   88.63253215
_cell_angle_gamma   73.45026610
_symmetry_Int_Tables_number   1
_chemical_formula_structural   MnV(P2O7)2
_chemical_formula_sum   'Mn1 V1 P4 O14'
_cell_volume   266.15271836
_cell_formula_units_Z   1
loop_
 _symmetry_equiv_pos_site_id
 _symmetry_equiv_pos_as_xyz
  1  'x, y, z'
loop_
 _atom_site_type_symbol
 _atom_site_label
 _atom_site_symmetry_multiplicity
 _atom_site_fract_x
 _atom_site_fract_y
 _atom_site_fract_z
 _atom_site_occupancy
  Mn  Mn0  1  0.78603200  0.73175000  0.00398300  1
  V  V1  1  0.21000600  0.27669600  0.50447300  1
  P  P2  1  0.39034900  0.49426400  0.18235000  1
  P  P3  1  0.24276300  0.89030200  0.77090000  1
  P  P4  1  0.77165400  0.10629500  0.27752400  1
  P  P5  1  0.60795300  0.50229600  0.69232500  1
  O  O6  1  0.02559300  0.17769000  0.33689800  1
  O  O7  1  0.16558500  0.08173800  0.65833400  1
  O  O8  1  0.15281900  0.53596900  0.05771300  1
  O  O9  1  0.26987000  0.47595500  0.36032300  1
  O  O10  1  0.39924600  0.37406900  0.66938000  1
  O  O11  1  0.56436700  0.10638900  0.42795100  1
  O  O12  1  0.58965000  0.27283200  0.14944400  1
  O  O13  1  0.42659100  0.72859000  0.64500800  1
  O  O14  1  0.42391300  0.90793100  0.91590300  1
  O  O15  1  0.57796100  0.63414900  0.18256500  1
  O  O16  1  0.71935400  0.49002000  0.86228200  1
  O  O17  1  0.84690600  0.45251900  0.55827600  1
  O  O18  1  0.86828500  0.91738200  0.19061500  1
  O  O19  1  0.96640500  0.83856100  0.81731300  1
