# generated using pymatgen
data_H2O
_symmetry_space_group_name_H-M   'P 1'
_cell_length_a   7.60356630
_cell_length_b   7.60356630
_cell_length_c   7.14296200
_cell_angle_alpha   90.00000000
_cell_angle_beta   90.00000000
_cell_angle_gamma   120.00000000
_symmetry_Int_Tables_number   1
_chemical_formula_structural   H2O
_chemical_formula_sum   'H24 O12'
_cell_volume   357.63798996
_cell_formula_units_Z   12
loop_
 _symmetry_equiv_pos_site_id
 _symmetry_equiv_pos_as_xyz
  1  'x, y, z'
loop_
 _atom_site_type_symbol
 _atom_site_label
 _atom_site_symmetry_multiplicity
 _atom_site_fract_x
 _atom_site_fract_y
 _atom_site_fract_z
 _atom_site_occupancy
  H  H0  1  0.33082300  0.00000000  0.19642800  1
  H  H1  1  0.00000000  0.33082300  0.19642800  1
  H  H2  1  0.66917700  0.66917700  0.19642800  1
  H  H3  1  0.66917700  0.00000000  0.69642800  1
  H  H4  1  0.00000000  0.66917700  0.69642800  1
  H  H5  1  0.33082300  0.33082300  0.69642800  1
  H  H6  1  0.45234700  0.00000000  0.01064600  1
  H  H7  1  0.00000000  0.45234700  0.01064600  1
  H  H8  1  0.54765300  0.54765300  0.01064600  1
  H  H9  1  0.54765300  0.00000000  0.51064600  1
  H  H10  1  0.00000000  0.54765300  0.51064600  1
  H  H11  1  0.45234700  0.45234700  0.51064600  1
  H  H12  1  0.66371600  0.87754500  0.97884700  1
  H  H13  1  0.12245500  0.78617100  0.97884700  1
  H  H14  1  0.21382900  0.33628400  0.97884700  1
  H  H15  1  0.78617100  0.12245500  0.97884700  1
  H  H16  1  0.33628400  0.21382900  0.97884700  1
  H  H17  1  0.87754500  0.66371600  0.97884700  1
  H  H18  1  0.33628400  0.12245500  0.47884700  1
  H  H19  1  0.87754500  0.21382900  0.47884700  1
  H  H20  1  0.78617100  0.66371600  0.47884700  1
  H  H21  1  0.21382900  0.87754500  0.47884700  1
  H  H22  1  0.66371600  0.78617100  0.47884700  1
  H  H23  1  0.12245500  0.33628400  0.47884700  1
  O  O24  1  0.32664200  0.00000000  0.05565800  1
  O  O25  1  0.00000000  0.32664200  0.05565800  1
  O  O26  1  0.67335800  0.67335800  0.05565800  1
  O  O27  1  0.67335800  0.00000000  0.55565800  1
  O  O28  1  0.00000000  0.67335800  0.55565800  1
  O  O29  1  0.32664200  0.32664200  0.55565800  1
  O  O30  1  0.66060500  0.00000000  0.92957500  1
  O  O31  1  0.00000000  0.66060500  0.92957500  1
  O  O32  1  0.33939500  0.33939500  0.92957500  1
  O  O33  1  0.33939500  0.00000000  0.42957500  1
  O  O34  1  0.00000000  0.33939500  0.42957500  1
  O  O35  1  0.66060500  0.66060500  0.42957500  1
