# generated using pymatgen
data_Gd2Zr2O7
_symmetry_space_group_name_H-M   'P 1'
_cell_length_a   7.50909400
_cell_length_b   6.98550600
_cell_length_c   12.17721180
_cell_angle_alpha   90.00000000
_cell_angle_beta   98.70486447
_cell_angle_gamma   90.00000000
_symmetry_Int_Tables_number   1
_chemical_formula_structural   Gd2Zr2O7
_chemical_formula_sum   'Gd8 Zr8 O28'
_cell_volume   631.39569276
_cell_formula_units_Z   4
loop_
 _symmetry_equiv_pos_site_id
 _symmetry_equiv_pos_as_xyz
  1  'x, y, z'
loop_
 _atom_site_type_symbol
 _atom_site_label
 _atom_site_symmetry_multiplicity
 _atom_site_fract_x
 _atom_site_fract_y
 _atom_site_fract_z
 _atom_site_occupancy
  Gd  Gd0  1  0.52461100  0.61004300  0.86126900  1
  Gd  Gd1  1  0.47538900  0.11004300  0.63873100  1
  Gd  Gd2  1  0.74592300  0.82064900  0.11303900  1
  Gd  Gd3  1  0.25407700  0.32064900  0.38696100  1
  Gd  Gd4  1  0.74592300  0.67935100  0.61303900  1
  Gd  Gd5  1  0.25407700  0.17935100  0.88696100  1
  Gd  Gd6  1  0.52461100  0.88995700  0.36126900  1
  Gd  Gd7  1  0.47538900  0.38995700  0.13873100  1
  Zr  Zr8  1  0.24896900  0.64161000  0.60158800  1
  Zr  Zr9  1  0.75103100  0.14161000  0.89841200  1
  Zr  Zr10  1  0.94754200  0.38759600  0.11375900  1
  Zr  Zr11  1  0.05245800  0.88759600  0.38624100  1
  Zr  Zr12  1  0.94754200  0.11240400  0.61375900  1
  Zr  Zr13  1  0.05245800  0.61240400  0.88624100  1
  Zr  Zr14  1  0.24896900  0.85839000  0.10158800  1
  Zr  Zr15  1  0.75103100  0.35839000  0.39841200  1
  O  O16  1  0.00689400  0.81997900  0.56411400  1
  O  O17  1  0.52357300  0.27101900  0.82530300  1
  O  O18  1  0.37764900  0.39685000  0.56816700  1
  O  O19  1  0.81308300  0.43904600  0.24792100  1
  O  O20  1  0.80225700  0.89319000  0.29714600  1
  O  O21  1  0.62235100  0.89685000  0.93183300  1
  O  O22  1  0.47642700  0.77101900  0.67469700  1
  O  O23  1  0.68743600  0.50103300  0.02882600  1
  O  O24  1  0.83930200  0.11881100  0.07626900  1
  O  O25  1  0.81308300  0.06095400  0.74792100  1
  O  O26  1  0.99310600  0.31997900  0.93588600  1
  O  O27  1  0.80225700  0.60681000  0.79714600  1
  O  O28  1  0.68743600  0.99896700  0.52882600  1
  O  O29  1  0.83930200  0.38118900  0.57626900  1
  O  O30  1  0.16069800  0.61881100  0.42373100  1
  O  O31  1  0.31256400  0.00103300  0.47117400  1
  O  O32  1  0.19774300  0.39319000  0.20285400  1
  O  O33  1  0.00689400  0.68002100  0.06411400  1
  O  O34  1  0.18691700  0.93904600  0.25207900  1
  O  O35  1  0.16069800  0.88118900  0.92373100  1
  O  O36  1  0.31256400  0.49896700  0.97117400  1
  O  O37  1  0.52357300  0.22898100  0.32530300  1
  O  O38  1  0.37764900  0.10315000  0.06816700  1
  O  O39  1  0.19774300  0.10681000  0.70285400  1
  O  O40  1  0.18691700  0.56095400  0.75207900  1
  O  O41  1  0.62235100  0.60315000  0.43183300  1
  O  O42  1  0.47642700  0.72898100  0.17469700  1
  O  O43  1  0.99310600  0.18002100  0.43588600  1
