# generated using pymatgen
data_LiFeF3
_symmetry_space_group_name_H-M   'P 1'
_cell_length_a   8.63560263
_cell_length_b   8.63560263
_cell_length_c   10.59838374
_cell_angle_alpha   90.00000000
_cell_angle_beta   90.00000000
_cell_angle_gamma   120.00000000
_symmetry_Int_Tables_number   1
_chemical_formula_structural   LiFeF3
_chemical_formula_sum   'Li12 Fe12 F36'
_cell_volume   684.47181794
_cell_formula_units_Z   12
loop_
 _symmetry_equiv_pos_site_id
 _symmetry_equiv_pos_as_xyz
  1  'x, y, z'
loop_
 _atom_site_type_symbol
 _atom_site_label
 _atom_site_symmetry_multiplicity
 _atom_site_fract_x
 _atom_site_fract_y
 _atom_site_fract_z
 _atom_site_occupancy
  Li  Li0  1  0.33333333  0.66666667  0.78693167  1
  Li  Li1  1  0.58612100  0.67208200  0.29455900  1
  Li  Li2  1  0.08596100  0.41387900  0.29455900  1
  Li  Li3  1  0.32791800  0.91403900  0.29455900  1
  Li  Li4  1  0.00000000  0.00000000  0.12026500  1
  Li  Li5  1  0.25278767  0.00541533  0.62789233  1
  Li  Li6  1  0.75262767  0.74721233  0.62789233  1
  Li  Li7  1  0.99458467  0.24737233  0.62789233  1
  Li  Li8  1  0.66666667  0.33333333  0.45359833  1
  Li  Li9  1  0.91945433  0.33874867  0.96122567  1
  Li  Li10  1  0.41929433  0.08054567  0.96122567  1
  Li  Li11  1  0.66125133  0.58070567  0.96122567  1
  Fe  Fe12  1  0.33333333  0.66666667  0.50361400  1
  Fe  Fe13  1  0.60869700  0.89179100  0.05143800  1
  Fe  Fe14  1  0.28309400  0.39130300  0.05143800  1
  Fe  Fe15  1  0.10820900  0.71690600  0.05143800  1
  Fe  Fe16  1  0.00000000  0.00000000  0.83694733  1
  Fe  Fe17  1  0.27536367  0.22512433  0.38477133  1
  Fe  Fe18  1  0.94976067  0.72463633  0.38477133  1
  Fe  Fe19  1  0.77487567  0.05023933  0.38477133  1
  Fe  Fe20  1  0.66666667  0.33333333  0.17028067  1
  Fe  Fe21  1  0.94203033  0.55845767  0.71810467  1
  Fe  Fe22  1  0.61642733  0.05796967  0.71810467  1
  Fe  Fe23  1  0.44154233  0.38357267  0.71810467  1
  F  F24  1  0.77766400  0.94346500  0.21061100  1
  F  F25  1  0.35758133  0.49901067  0.37414067  1
  F  F26  1  0.50098933  0.85857067  0.37414067  1
  F  F27  1  0.51545433  0.62971267  0.11669467  1
  F  F28  1  0.79891500  0.84296200  0.96862500  1
  F  F29  1  0.14142933  0.64241867  0.37414067  1
  F  F30  1  0.37028733  0.88574167  0.11669467  1
  F  F31  1  0.11425833  0.48454567  0.11669467  1
  F  F32  1  0.16580100  0.22233600  0.21061100  1
  F  F33  1  0.15703800  0.95595300  0.96862500  1
  F  F34  1  0.05653500  0.83419900  0.21061100  1
  F  F35  1  0.04404700  0.20108500  0.96862500  1
  F  F36  1  0.44433067  0.27679833  0.54394433  1
  F  F37  1  0.02424800  0.83234400  0.70747400  1
  F  F38  1  0.16765600  0.19190400  0.70747400  1
  F  F39  1  0.18212100  0.96304600  0.45002800  1
  F  F40  1  0.46558167  0.17629533  0.30195833  1
  F  F41  1  0.80809600  0.97575200  0.70747400  1
  F  F42  1  0.03695400  0.21907500  0.45002800  1
  F  F43  1  0.78092500  0.81787900  0.45002800  1
  F  F44  1  0.83246767  0.55566933  0.54394433  1
  F  F45  1  0.82370467  0.28928633  0.30195833  1
  F  F46  1  0.72320167  0.16753233  0.54394433  1
  F  F47  1  0.71071367  0.53441833  0.30195833  1
  F  F48  1  0.11099733  0.61013167  0.87727767  1
  F  F49  1  0.69091467  0.16567733  0.04080733  1
  F  F50  1  0.83432267  0.52523733  0.04080733  1
  F  F51  1  0.84878767  0.29637933  0.78336133  1
  F  F52  1  0.13224833  0.50962867  0.63529167  1
  F  F53  1  0.47476267  0.30908533  0.04080733  1
  F  F54  1  0.70362067  0.55240833  0.78336133  1
  F  F55  1  0.44759167  0.15121233  0.78336133  1
  F  F56  1  0.49913433  0.88900267  0.87727767  1
  F  F57  1  0.49037133  0.62261967  0.63529167  1
  F  F58  1  0.38986833  0.50086567  0.87727767  1
  F  F59  1  0.37738033  0.86775167  0.63529167  1
