# generated using pymatgen
data_Na2SnO3
_symmetry_space_group_name_H-M   'P 1'
_cell_length_a   6.64347000
_cell_length_b   9.30320200
_cell_length_c   19.34777600
_cell_angle_alpha   90.00000000
_cell_angle_beta   90.00000000
_cell_angle_gamma   90.00000000
_symmetry_Int_Tables_number   1
_chemical_formula_structural   Na2SnO3
_chemical_formula_sum   'Na32 Sn16 O48'
_cell_volume   1195.79980909
_cell_formula_units_Z   16
loop_
 _symmetry_equiv_pos_site_id
 _symmetry_equiv_pos_as_xyz
  1  'x, y, z'
loop_
 _atom_site_type_symbol
 _atom_site_label
 _atom_site_symmetry_multiplicity
 _atom_site_fract_x
 _atom_site_fract_y
 _atom_site_fract_z
 _atom_site_occupancy
  Na  Na0  1  0.75000000  0.25000000  0.49519200  1
  Na  Na1  1  0.00000000  0.00000000  0.42192000  1
  Na  Na2  1  0.75000000  0.25000000  0.32808000  1
  Na  Na3  1  0.00000000  0.00000000  0.25480800  1
  Na  Na4  1  0.50000000  0.00000000  0.24519200  1
  Na  Na5  1  0.75000000  0.25000000  0.17192000  1
  Na  Na6  1  0.50000000  0.00000000  0.07808000  1
  Na  Na7  1  0.75000000  0.25000000  0.00480800  1
  Na  Na8  1  0.75000000  0.75000000  0.99519200  1
  Na  Na9  1  0.00000000  0.50000000  0.92192000  1
  Na  Na10  1  0.75000000  0.75000000  0.82808000  1
  Na  Na11  1  0.00000000  0.50000000  0.75480800  1
  Na  Na12  1  0.50000000  0.50000000  0.74519200  1
  Na  Na13  1  0.75000000  0.75000000  0.67192000  1
  Na  Na14  1  0.50000000  0.50000000  0.57808000  1
  Na  Na15  1  0.75000000  0.75000000  0.50480800  1
  Na  Na16  1  0.25000000  0.25000000  0.99519200  1
  Na  Na17  1  0.50000000  0.00000000  0.92192000  1
  Na  Na18  1  0.25000000  0.25000000  0.82808000  1
  Na  Na19  1  0.50000000  0.00000000  0.75480800  1
  Na  Na20  1  0.00000000  0.00000000  0.74519200  1
  Na  Na21  1  0.25000000  0.25000000  0.67192000  1
  Na  Na22  1  0.00000000  0.00000000  0.57808000  1
  Na  Na23  1  0.25000000  0.25000000  0.50480800  1
  Na  Na24  1  0.25000000  0.75000000  0.49519200  1
  Na  Na25  1  0.50000000  0.50000000  0.42192000  1
  Na  Na26  1  0.25000000  0.75000000  0.32808000  1
  Na  Na27  1  0.50000000  0.50000000  0.25480800  1
  Na  Na28  1  0.00000000  0.50000000  0.24519200  1
  Na  Na29  1  0.25000000  0.75000000  0.17192000  1
  Na  Na30  1  0.00000000  0.50000000  0.07808000  1
  Na  Na31  1  0.25000000  0.75000000  0.00480800  1
  Sn  Sn32  1  0.50000000  0.00000000  0.41573900  1
  Sn  Sn33  1  0.75000000  0.75000000  0.33426100  1
  Sn  Sn34  1  0.75000000  0.75000000  0.16573900  1
  Sn  Sn35  1  0.00000000  0.00000000  0.08426100  1
  Sn  Sn36  1  0.50000000  0.50000000  0.91573900  1
  Sn  Sn37  1  0.75000000  0.25000000  0.83426100  1
  Sn  Sn38  1  0.75000000  0.25000000  0.66573900  1
  Sn  Sn39  1  0.00000000  0.50000000  0.58426100  1
  Sn  Sn40  1  0.00000000  0.00000000  0.91573900  1
  Sn  Sn41  1  0.25000000  0.75000000  0.83426100  1
  Sn  Sn42  1  0.25000000  0.75000000  0.66573900  1
  Sn  Sn43  1  0.50000000  0.00000000  0.58426100  1
  Sn  Sn44  1  0.00000000  0.50000000  0.41573900  1
  Sn  Sn45  1  0.25000000  0.25000000  0.33426100  1
  Sn  Sn46  1  0.25000000  0.25000000  0.16573900  1
  Sn  Sn47  1  0.50000000  0.50000000  0.08426100  1
  O  O48  1  0.98585200  0.72953000  0.40818500  1
  O  O49  1  0.01414800  0.27047000  0.40818500  1
  O  O50  1  0.26414800  0.02047000  0.34181500  1
  O  O51  1  0.73585200  0.97953000  0.34181500  1
  O  O52  1  0.95845100  0.75000000  0.25000000  1
  O  O53  1  0.54154900  0.75000000  0.25000000  1
  O  O54  1  0.76414800  0.97953000  0.15818500  1
  O  O55  1  0.23585200  0.02047000  0.15818500  1
  O  O56  1  0.48585200  0.27047000  0.09181500  1
  O  O57  1  0.51414800  0.72953000  0.09181500  1
  O  O58  1  0.79154900  0.00000000  0.00000000  1
  O  O59  1  0.20845100  0.00000000  0.00000000  1
  O  O60  1  0.98585200  0.22953000  0.90818500  1
  O  O61  1  0.01414800  0.77047000  0.90818500  1
  O  O62  1  0.26414800  0.52047000  0.84181500  1
  O  O63  1  0.73585200  0.47953000  0.84181500  1
  O  O64  1  0.95845100  0.25000000  0.75000000  1
  O  O65  1  0.54154900  0.25000000  0.75000000  1
  O  O66  1  0.76414800  0.47953000  0.65818500  1
  O  O67  1  0.23585200  0.52047000  0.65818500  1
  O  O68  1  0.48585200  0.77047000  0.59181500  1
  O  O69  1  0.51414800  0.22953000  0.59181500  1
  O  O70  1  0.79154900  0.50000000  0.50000000  1
  O  O71  1  0.20845100  0.50000000  0.50000000  1
  O  O72  1  0.48585200  0.72953000  0.90818500  1
  O  O73  1  0.51414800  0.27047000  0.90818500  1
  O  O74  1  0.76414800  0.02047000  0.84181500  1
  O  O75  1  0.23585200  0.97953000  0.84181500  1
  O  O76  1  0.45845100  0.75000000  0.75000000  1
  O  O77  1  0.04154900  0.75000000  0.75000000  1
  O  O78  1  0.26414800  0.97953000  0.65818500  1
  O  O79  1  0.73585200  0.02047000  0.65818500  1
  O  O80  1  0.98585200  0.27047000  0.59181500  1
  O  O81  1  0.01414800  0.72953000  0.59181500  1
  O  O82  1  0.29154900  0.00000000  0.50000000  1
  O  O83  1  0.70845100  0.00000000  0.50000000  1
  O  O84  1  0.48585200  0.22953000  0.40818500  1
  O  O85  1  0.51414800  0.77047000  0.40818500  1
  O  O86  1  0.76414800  0.52047000  0.34181500  1
  O  O87  1  0.23585200  0.47953000  0.34181500  1
  O  O88  1  0.45845100  0.25000000  0.25000000  1
  O  O89  1  0.04154900  0.25000000  0.25000000  1
  O  O90  1  0.26414800  0.47953000  0.15818500  1
  O  O91  1  0.73585200  0.52047000  0.15818500  1
  O  O92  1  0.98585200  0.77047000  0.09181500  1
  O  O93  1  0.01414800  0.22953000  0.09181500  1
  O  O94  1  0.29154900  0.50000000  0.00000000  1
  O  O95  1  0.70845100  0.50000000  0.00000000  1
