# generated using pymatgen
data_Ti2N2O
_symmetry_space_group_name_H-M   'P 1'
_cell_length_a   8.20659400
_cell_length_b   8.21171505
_cell_length_c   8.23203214
_cell_angle_alpha   109.48890628
_cell_angle_beta   109.42581318
_cell_angle_gamma   109.36608263
_symmetry_Int_Tables_number   1
_chemical_formula_structural   Ti2N2O
_chemical_formula_sum   'Ti16 N16 O8'
_cell_volume   427.75162902
_cell_formula_units_Z   8
loop_
 _symmetry_equiv_pos_site_id
 _symmetry_equiv_pos_as_xyz
  1  'x, y, z'
loop_
 _atom_site_type_symbol
 _atom_site_label
 _atom_site_symmetry_multiplicity
 _atom_site_fract_x
 _atom_site_fract_y
 _atom_site_fract_z
 _atom_site_occupancy
  Ti  Ti0  1  0.99708700  0.01132200  0.49917900  1
  Ti  Ti1  1  0.30216500  0.74823000  0.54004300  1
  Ti  Ti2  1  0.94874100  0.69912300  0.73873200  1
  Ti  Ti3  1  0.46686700  0.21502500  0.75394500  1
  Ti  Ti4  1  0.20800000  0.26139400  0.96034100  1
  Ti  Ti5  1  0.74345500  0.95992500  0.70618900  1
  Ti  Ti6  1  0.74991000  0.45098700  0.20830100  1
  Ti  Ti7  1  0.50658700  0.99408200  0.00508300  1
  Ti  Ti8  1  0.24938000  0.53596300  0.79130900  1
  Ti  Ti9  1  0.26066900  0.04892900  0.30224900  1
  Ti  Ti10  1  0.99628900  0.48850000  0.98717500  1
  Ti  Ti11  1  0.50775200  0.51141900  0.51206200  1
  Ti  Ti12  1  0.79043600  0.74814000  0.03915500  1
  Ti  Ti13  1  0.53944200  0.79815300  0.24991800  1
  Ti  Ti14  1  0.03974100  0.28619800  0.25246300  1
  Ti  Ti15  1  0.70660900  0.25070800  0.45756700  1
  N  N16  1  0.99424400  0.04100000  0.26910700  1
  N  N17  1  0.23262300  0.27017300  0.72457700  1
  N  N18  1  0.72521500  0.46134900  0.95475800  1
  N  N19  1  0.96027100  0.45271000  0.72815400  1
  N  N20  1  0.26324100  0.49104600  0.53775300  1
  N  N21  1  0.54495500  0.00900800  0.77317100  1
  N  N22  1  0.73820100  0.51378300  0.45900800  1
  N  N23  1  0.72607400  0.73250300  0.77413000  1
  N  N24  1  0.95302500  0.22697400  0.96099900  1
  N  N25  1  0.27581000  0.53758700  0.05158500  1
  N  N26  1  0.54223100  0.76790500  0.99196300  1
  N  N27  1  0.77206200  0.22398800  0.22860900  1
  N  N28  1  0.44484800  0.98799500  0.22236900  1
  N  N29  1  0.50551700  0.27292800  0.54771400  1
  N  N30  1  0.48625500  0.72457000  0.44770100  1
  N  N31  1  0.77733400  0.04937900  0.50916600  1
  O  O32  1  0.03927000  0.55291700  0.27811800  1
  O  O33  1  0.00843100  0.95512300  0.73130900  1
  O  O34  1  0.22285800  0.94435500  0.48543900  1
  O  O35  1  0.27411100  0.25996600  0.22083600  1
  O  O36  1  0.04908000  0.77542600  0.04092200  1
  O  O37  1  0.45970000  0.23882100  0.01462300  1
  O  O38  1  0.22293800  0.77623600  0.76819500  1
  O  O39  1  0.76857600  0.72615800  0.27608100  1
