# generated using pymatgen
data_Mn(IO3)2
_symmetry_space_group_name_H-M   'P 1'
_cell_length_a   5.46038600
_cell_length_b   6.83179000
_cell_length_c   14.96534600
_cell_angle_alpha   90.00000000
_cell_angle_beta   90.00000000
_cell_angle_gamma   90.00000000
_symmetry_Int_Tables_number   1
_chemical_formula_structural   Mn(IO3)2
_chemical_formula_sum   'Mn4 I8 O24'
_cell_volume   558.27041695
_cell_formula_units_Z   4
loop_
 _symmetry_equiv_pos_site_id
 _symmetry_equiv_pos_as_xyz
  1  'x, y, z'
loop_
 _atom_site_type_symbol
 _atom_site_label
 _atom_site_symmetry_multiplicity
 _atom_site_fract_x
 _atom_site_fract_y
 _atom_site_fract_z
 _atom_site_occupancy
  Mn  Mn0  1  0.75000000  0.14507900  0.00000000  1
  Mn  Mn1  1  0.25000000  0.85492100  0.00000000  1
  Mn  Mn2  1  0.25000000  0.35492100  0.50000000  1
  Mn  Mn3  1  0.75000000  0.64507900  0.50000000  1
  I  I4  1  0.24823200  0.28719700  0.84837600  1
  I  I5  1  0.74823200  0.71280300  0.84837600  1
  I  I6  1  0.74823200  0.21280300  0.65162400  1
  I  I7  1  0.24823200  0.78719700  0.65162400  1
  I  I8  1  0.75176800  0.21280300  0.34837600  1
  I  I9  1  0.25176800  0.78719700  0.34837600  1
  I  I10  1  0.25176800  0.28719700  0.15162400  1
  I  I11  1  0.75176800  0.71280300  0.15162400  1
  O  O12  1  0.41084400  0.10723200  0.92111900  1
  O  O13  1  0.91084400  0.89276800  0.92111900  1
  O  O14  1  0.97126400  0.33699200  0.91637400  1
  O  O15  1  0.47126400  0.66300800  0.91637400  1
  O  O16  1  0.62741400  0.37363300  0.73756100  1
  O  O17  1  0.12741400  0.62636700  0.73756100  1
  O  O18  1  0.12741400  0.12636700  0.76243900  1
  O  O19  1  0.62741400  0.87363300  0.76243900  1
  O  O20  1  0.47126400  0.16300800  0.58362600  1
  O  O21  1  0.97126400  0.83699200  0.58362600  1
  O  O22  1  0.91084400  0.39276800  0.57888100  1
  O  O23  1  0.41084400  0.60723200  0.57888100  1
  O  O24  1  0.58915600  0.39276800  0.42111900  1
  O  O25  1  0.08915600  0.60723200  0.42111900  1
  O  O26  1  0.02873600  0.16300800  0.41637400  1
  O  O27  1  0.52873600  0.83699200  0.41637400  1
  O  O28  1  0.37258600  0.12636700  0.23756100  1
  O  O29  1  0.87258600  0.87363300  0.23756100  1
  O  O30  1  0.87258600  0.37363300  0.26243900  1
  O  O31  1  0.37258600  0.62636700  0.26243900  1
  O  O32  1  0.52873600  0.33699200  0.08362600  1
  O  O33  1  0.02873600  0.66300800  0.08362600  1
  O  O34  1  0.08915600  0.10723200  0.07888100  1
  O  O35  1  0.58915600  0.89276800  0.07888100  1
