# generated using pymatgen
data_Ni3OF5
_symmetry_space_group_name_H-M   'P 1'
_cell_length_a   4.70737100
_cell_length_b   5.63291611
_cell_length_c   7.78142798
_cell_angle_alpha   86.10635290
_cell_angle_beta   89.37565925
_cell_angle_gamma   89.12282783
_symmetry_Int_Tables_number   1
_chemical_formula_structural   Ni3OF5
_chemical_formula_sum   'Ni6 O2 F10'
_cell_volume   205.82367253
_cell_formula_units_Z   2
loop_
 _symmetry_equiv_pos_site_id
 _symmetry_equiv_pos_as_xyz
  1  'x, y, z'
loop_
 _atom_site_type_symbol
 _atom_site_label
 _atom_site_symmetry_multiplicity
 _atom_site_fract_x
 _atom_site_fract_y
 _atom_site_fract_z
 _atom_site_occupancy
  Ni  Ni0  1  0.50000000  0.50000000  0.00000000  1
  Ni  Ni1  1  0.50735100  0.82558300  0.66663300  1
  Ni  Ni2  1  0.49264900  0.17441700  0.33336700  1
  Ni  Ni3  1  0.98726700  0.33973100  0.67073000  1
  Ni  Ni4  1  0.01273300  0.66026900  0.32927000  1
  Ni  Ni5  1  0.00000000  0.00000000  0.00000000  1
  O  O6  1  0.69361700  0.53560800  0.77009300  1
  O  O7  1  0.30638300  0.46439200  0.22990700  1
  F  F8  1  0.80389700  0.36852600  0.43434200  1
  F  F9  1  0.80248000  0.03451100  0.76757500  1
  F  F10  1  0.80421400  0.70294500  0.10137800  1
  F  F11  1  0.70012100  0.20030700  0.10229300  1
  F  F12  1  0.69815000  0.86868700  0.42993900  1
  F  F13  1  0.30185000  0.13131300  0.57006100  1
  F  F14  1  0.29987900  0.79969300  0.89770700  1
  F  F15  1  0.19752000  0.96548900  0.23242500  1
  F  F16  1  0.19578600  0.29705500  0.89862200  1
  F  F17  1  0.19610300  0.63147400  0.56565800  1
