# generated using pymatgen
data_Na4V2C4SO16
_symmetry_space_group_name_H-M   'P 1'
_cell_length_a   13.88516600
_cell_length_b   14.09406600
_cell_length_c   14.09902800
_cell_angle_alpha   90.00000000
_cell_angle_beta   90.00000000
_cell_angle_gamma   90.00000000
_symmetry_Int_Tables_number   1
_chemical_formula_structural   Na4V2C4SO16
_chemical_formula_sum   'Na32 V16 C32 S8 O128'
_cell_volume   2759.15787006
_cell_formula_units_Z   8
loop_
 _symmetry_equiv_pos_site_id
 _symmetry_equiv_pos_as_xyz
  1  'x, y, z'
loop_
 _atom_site_type_symbol
 _atom_site_label
 _atom_site_symmetry_multiplicity
 _atom_site_fract_x
 _atom_site_fract_y
 _atom_site_fract_z
 _atom_site_occupancy
  Na  Na0  1  0.95478000  0.75000000  0.25000000  1
  Na  Na1  1  0.21366700  0.00000000  0.00000000  1
  Na  Na2  1  0.00000000  0.00000000  0.21381400  1
  Na  Na3  1  0.50000000  0.28813700  0.00000000  1
  Na  Na4  1  0.50000000  0.71186300  0.00000000  1
  Na  Na5  1  0.50000000  0.00000000  0.28618600  1
  Na  Na6  1  0.54522000  0.75000000  0.25000000  1
  Na  Na7  1  0.78633300  0.00000000  0.00000000  1
  Na  Na8  1  0.95478000  0.25000000  0.75000000  1
  Na  Na9  1  0.21366700  0.50000000  0.50000000  1
  Na  Na10  1  0.00000000  0.50000000  0.71381400  1
  Na  Na11  1  0.50000000  0.78813700  0.50000000  1
  Na  Na12  1  0.50000000  0.21186300  0.50000000  1
  Na  Na13  1  0.50000000  0.50000000  0.78618600  1
  Na  Na14  1  0.54522000  0.25000000  0.75000000  1
  Na  Na15  1  0.78633300  0.50000000  0.50000000  1
  Na  Na16  1  0.45478000  0.75000000  0.75000000  1
  Na  Na17  1  0.71366700  0.00000000  0.50000000  1
  Na  Na18  1  0.50000000  0.00000000  0.71381400  1
  Na  Na19  1  0.00000000  0.28813700  0.50000000  1
  Na  Na20  1  0.00000000  0.71186300  0.50000000  1
  Na  Na21  1  0.00000000  0.00000000  0.78618600  1
  Na  Na22  1  0.04522000  0.75000000  0.75000000  1
  Na  Na23  1  0.28633300  0.00000000  0.50000000  1
  Na  Na24  1  0.45478000  0.25000000  0.25000000  1
  Na  Na25  1  0.71366700  0.50000000  0.00000000  1
  Na  Na26  1  0.50000000  0.50000000  0.21381400  1
  Na  Na27  1  0.00000000  0.78813700  0.00000000  1
  Na  Na28  1  0.00000000  0.21186300  0.00000000  1
  Na  Na29  1  0.00000000  0.50000000  0.28618600  1
  Na  Na30  1  0.04522000  0.25000000  0.25000000  1
  Na  Na31  1  0.28633300  0.50000000  0.00000000  1
  V  V32  1  0.62631300  0.12467300  0.12405000  1
  V  V33  1  0.12631300  0.87532700  0.37595000  1
  V  V34  1  0.37368700  0.87532700  0.12405000  1
  V  V35  1  0.87368700  0.12467300  0.37595000  1
  V  V36  1  0.62631300  0.62467300  0.62405000  1
  V  V37  1  0.12631300  0.37532700  0.87595000  1
  V  V38  1  0.37368700  0.37532700  0.62405000  1
  V  V39  1  0.87368700  0.62467300  0.87595000  1
  V  V40  1  0.12631300  0.12467300  0.62405000  1
  V  V41  1  0.62631300  0.87532700  0.87595000  1
  V  V42  1  0.87368700  0.87532700  0.62405000  1
  V  V43  1  0.37368700  0.12467300  0.87595000  1
  V  V44  1  0.12631300  0.62467300  0.12405000  1
  V  V45  1  0.62631300  0.37532700  0.37595000  1
  V  V46  1  0.87368700  0.37532700  0.12405000  1
  V  V47  1  0.37368700  0.62467300  0.37595000  1
  C  C48  1  0.65836900  0.16131100  0.33731700  1
  C  C49  1  0.65836900  0.33868900  0.16268300  1
  C  C50  1  0.84163100  0.16131100  0.16268300  1
  C  C51  1  0.84163100  0.33868900  0.33731700  1
  C  C52  1  0.41141800  0.08828000  0.08687600  1
  C  C53  1  0.91141800  0.91172000  0.41312400  1
  C  C54  1  0.08858200  0.08828000  0.41312400  1
  C  C55  1  0.58858200  0.91172000  0.08687600  1
  C  C56  1  0.65836900  0.66131100  0.83731700  1
  C  C57  1  0.65836900  0.83868900  0.66268300  1
  C  C58  1  0.84163100  0.66131100  0.66268300  1
  C  C59  1  0.84163100  0.83868900  0.83731700  1
  C  C60  1  0.41141800  0.58828000  0.58687600  1
  C  C61  1  0.91141800  0.41172000  0.91312400  1
  C  C62  1  0.08858200  0.58828000  0.91312400  1
  C  C63  1  0.58858200  0.41172000  0.58687600  1
  C  C64  1  0.15836900  0.16131100  0.83731700  1
  C  C65  1  0.15836900  0.33868900  0.66268300  1
  C  C66  1  0.34163100  0.16131100  0.66268300  1
  C  C67  1  0.34163100  0.33868900  0.83731700  1
  C  C68  1  0.91141800  0.08828000  0.58687600  1
  C  C69  1  0.41141800  0.91172000  0.91312400  1
  C  C70  1  0.58858200  0.08828000  0.91312400  1
  C  C71  1  0.08858200  0.91172000  0.58687600  1
  C  C72  1  0.15836900  0.66131100  0.33731700  1
  C  C73  1  0.15836900  0.83868900  0.16268300  1
  C  C74  1  0.34163100  0.66131100  0.16268300  1
  C  C75  1  0.34163100  0.83868900  0.33731700  1
  C  C76  1  0.91141800  0.58828000  0.08687600  1
  C  C77  1  0.41141800  0.41172000  0.41312400  1
  C  C78  1  0.58858200  0.58828000  0.41312400  1
  C  C79  1  0.08858200  0.41172000  0.08687600  1
  S  S80  1  0.00000000  0.00000000  0.00000000  1
  S  S81  1  0.75000000  0.75000000  0.25000000  1
  S  S82  1  0.00000000  0.50000000  0.50000000  1
  S  S83  1  0.75000000  0.25000000  0.75000000  1
  S  S84  1  0.50000000  0.00000000  0.50000000  1
  S  S85  1  0.25000000  0.75000000  0.75000000  1
  S  S86  1  0.50000000  0.50000000  0.00000000  1
  S  S87  1  0.25000000  0.25000000  0.25000000  1
  O  O88  1  0.93810450  0.93859300  0.06147950  1
  O  O89  1  0.93810450  0.56140700  0.43852050  1
  O  O90  1  0.56189550  0.93859300  0.43852050  1
  O  O91  1  0.56189550  0.56140700  0.06147950  1
  O  O92  1  0.59963900  0.23117050  0.35481450  1
  O  O93  1  0.59963900  0.26882950  0.14518550  1
  O  O94  1  0.64034600  0.10593100  0.26596800  1
  O  O95  1  0.64034600  0.39406900  0.23403200  1
  O  O96  1  0.72994600  0.35587650  0.10725150  1
  O  O97  1  0.72994600  0.14412350  0.39274850  1
  O  O98  1  0.77005400  0.14412350  0.10725150  1
  O  O99  1  0.77005400  0.35587650  0.39274850  1
  O  O100  1  0.35503600  0.01682050  0.09819250  1
  O  O101  1  0.85503600  0.98317950  0.40180750  1
  O  O102  1  0.85965400  0.10593100  0.23403200  1
  O  O103  1  0.85965400  0.39406900  0.26596800  1
  O  O104  1  0.39894700  0.14577050  0.01617250  1
  O  O105  1  0.89894700  0.85422950  0.48382750  1
  O  O106  1  0.90036100  0.26882950  0.35481450  1
  O  O107  1  0.90036100  0.23117050  0.14518550  1
  O  O108  1  0.98057050  0.89482000  0.35265850  1
  O  O109  1  0.48057050  0.10518000  0.14734150  1
  O  O110  1  0.01942950  0.10518000  0.35265850  1
  O  O111  1  0.51942950  0.89482000  0.14734150  1
  O  O112  1  0.10105300  0.14577050  0.48382750  1
  O  O113  1  0.60105300  0.85422950  0.01617250  1
  O  O114  1  0.14496400  0.01682050  0.40180750  1
  O  O115  1  0.64496400  0.98317950  0.09819250  1
  O  O116  1  0.68625250  0.68926250  0.18916300  1
  O  O117  1  0.68625250  0.81073750  0.31083700  1
  O  O118  1  0.81374750  0.81073750  0.18916300  1
  O  O119  1  0.81374750  0.68926250  0.31083700  1
  O  O120  1  0.93810450  0.43859300  0.56147950  1
  O  O121  1  0.93810450  0.06140700  0.93852050  1
  O  O122  1  0.56189550  0.43859300  0.93852050  1
  O  O123  1  0.56189550  0.06140700  0.56147950  1
  O  O124  1  0.59963900  0.73117050  0.85481450  1
  O  O125  1  0.59963900  0.76882950  0.64518550  1
  O  O126  1  0.64034600  0.60593100  0.76596800  1
  O  O127  1  0.64034600  0.89406900  0.73403200  1
  O  O128  1  0.72994600  0.85587650  0.60725150  1
  O  O129  1  0.72994600  0.64412350  0.89274850  1
  O  O130  1  0.77005400  0.64412350  0.60725150  1
  O  O131  1  0.77005400  0.85587650  0.89274850  1
  O  O132  1  0.35503600  0.51682050  0.59819250  1
  O  O133  1  0.85503600  0.48317950  0.90180750  1
  O  O134  1  0.85965400  0.60593100  0.73403200  1
  O  O135  1  0.85965400  0.89406900  0.76596800  1
  O  O136  1  0.39894700  0.64577050  0.51617250  1
  O  O137  1  0.89894700  0.35422950  0.98382750  1
  O  O138  1  0.90036100  0.76882950  0.85481450  1
  O  O139  1  0.90036100  0.73117050  0.64518550  1
  O  O140  1  0.98057050  0.39482000  0.85265850  1
  O  O141  1  0.48057050  0.60518000  0.64734150  1
  O  O142  1  0.01942950  0.60518000  0.85265850  1
  O  O143  1  0.51942950  0.39482000  0.64734150  1
  O  O144  1  0.10105300  0.64577050  0.98382750  1
  O  O145  1  0.60105300  0.35422950  0.51617250  1
  O  O146  1  0.14496400  0.51682050  0.90180750  1
  O  O147  1  0.64496400  0.48317950  0.59819250  1
  O  O148  1  0.68625250  0.18926250  0.68916300  1
  O  O149  1  0.68625250  0.31073750  0.81083700  1
  O  O150  1  0.81374750  0.31073750  0.68916300  1
  O  O151  1  0.81374750  0.18926250  0.81083700  1
  O  O152  1  0.43810450  0.93859300  0.56147950  1
  O  O153  1  0.43810450  0.56140700  0.93852050  1
  O  O154  1  0.06189550  0.93859300  0.93852050  1
  O  O155  1  0.06189550  0.56140700  0.56147950  1
  O  O156  1  0.09963900  0.23117050  0.85481450  1
  O  O157  1  0.09963900  0.26882950  0.64518550  1
  O  O158  1  0.14034600  0.10593100  0.76596800  1
  O  O159  1  0.14034600  0.39406900  0.73403200  1
  O  O160  1  0.22994600  0.35587650  0.60725150  1
  O  O161  1  0.22994600  0.14412350  0.89274850  1
  O  O162  1  0.27005400  0.14412350  0.60725150  1
  O  O163  1  0.27005400  0.35587650  0.89274850  1
  O  O164  1  0.85503600  0.01682050  0.59819250  1
  O  O165  1  0.35503600  0.98317950  0.90180750  1
  O  O166  1  0.35965400  0.10593100  0.73403200  1
  O  O167  1  0.35965400  0.39406900  0.76596800  1
  O  O168  1  0.89894700  0.14577050  0.51617250  1
  O  O169  1  0.39894700  0.85422950  0.98382750  1
  O  O170  1  0.40036100  0.26882950  0.85481450  1
  O  O171  1  0.40036100  0.23117050  0.64518550  1
  O  O172  1  0.48057050  0.89482000  0.85265850  1
  O  O173  1  0.98057050  0.10518000  0.64734150  1
  O  O174  1  0.51942950  0.10518000  0.85265850  1
  O  O175  1  0.01942950  0.89482000  0.64734150  1
  O  O176  1  0.60105300  0.14577050  0.98382750  1
  O  O177  1  0.10105300  0.85422950  0.51617250  1
  O  O178  1  0.64496400  0.01682050  0.90180750  1
  O  O179  1  0.14496400  0.98317950  0.59819250  1
  O  O180  1  0.18625250  0.68926250  0.68916300  1
  O  O181  1  0.18625250  0.81073750  0.81083700  1
  O  O182  1  0.31374750  0.81073750  0.68916300  1
  O  O183  1  0.31374750  0.68926250  0.81083700  1
  O  O184  1  0.43810450  0.43859300  0.06147950  1
  O  O185  1  0.43810450  0.06140700  0.43852050  1
  O  O186  1  0.06189550  0.43859300  0.43852050  1
  O  O187  1  0.06189550  0.06140700  0.06147950  1
  O  O188  1  0.09963900  0.73117050  0.35481450  1
  O  O189  1  0.09963900  0.76882950  0.14518550  1
  O  O190  1  0.14034600  0.60593100  0.26596800  1
  O  O191  1  0.14034600  0.89406900  0.23403200  1
  O  O192  1  0.22994600  0.85587650  0.10725150  1
  O  O193  1  0.22994600  0.64412350  0.39274850  1
  O  O194  1  0.27005400  0.64412350  0.10725150  1
  O  O195  1  0.27005400  0.85587650  0.39274850  1
  O  O196  1  0.85503600  0.51682050  0.09819250  1
  O  O197  1  0.35503600  0.48317950  0.40180750  1
  O  O198  1  0.35965400  0.60593100  0.23403200  1
  O  O199  1  0.35965400  0.89406900  0.26596800  1
  O  O200  1  0.89894700  0.64577050  0.01617250  1
  O  O201  1  0.39894700  0.35422950  0.48382750  1
  O  O202  1  0.40036100  0.76882950  0.35481450  1
  O  O203  1  0.40036100  0.73117050  0.14518550  1
  O  O204  1  0.48057050  0.39482000  0.35265850  1
  O  O205  1  0.98057050  0.60518000  0.14734150  1
  O  O206  1  0.51942950  0.60518000  0.35265850  1
  O  O207  1  0.01942950  0.39482000  0.14734150  1
  O  O208  1  0.60105300  0.64577050  0.48382750  1
  O  O209  1  0.10105300  0.35422950  0.01617250  1
  O  O210  1  0.64496400  0.51682050  0.40180750  1
  O  O211  1  0.14496400  0.48317950  0.09819250  1
  O  O212  1  0.18625250  0.18926250  0.18916300  1
  O  O213  1  0.18625250  0.31073750  0.31083700  1
  O  O214  1  0.31374750  0.31073750  0.18916300  1
  O  O215  1  0.31374750  0.18926250  0.31083700  1
