# generated using pymatgen
data_Ti5Nb(PO4)6
_symmetry_space_group_name_H-M   'P 1'
_cell_length_a   8.87205491
_cell_length_b   8.87205491
_cell_length_c   20.12065768
_cell_angle_alpha   90.00000000
_cell_angle_beta   90.00000000
_cell_angle_gamma   120.00000000
_symmetry_Int_Tables_number   1
_chemical_formula_structural   Ti5Nb(PO4)6
_chemical_formula_sum   'Ti15 Nb3 P18 O72'
_cell_volume   1371.58032379
_cell_formula_units_Z   3
loop_
 _symmetry_equiv_pos_site_id
 _symmetry_equiv_pos_as_xyz
  1  'x, y, z'
loop_
 _atom_site_type_symbol
 _atom_site_label
 _atom_site_symmetry_multiplicity
 _atom_site_fract_x
 _atom_site_fract_y
 _atom_site_fract_z
 _atom_site_occupancy
  Ti  Ti0  1  0.33333333  0.66666667  0.67298267  1
  Ti  Ti1  1  0.33333333  0.66666667  0.16852667  1
  Ti  Ti2  1  0.33333333  0.66666667  0.52607367  1
  Ti  Ti3  1  0.33333333  0.66666667  0.30489367  1
  Ti  Ti4  1  0.33333333  0.66666667  0.02575367  1
  Ti  Ti5  1  0.00000000  0.00000000  0.00631600  1
  Ti  Ti6  1  0.00000000  0.00000000  0.50186000  1
  Ti  Ti7  1  0.00000000  0.00000000  0.85940700  1
  Ti  Ti8  1  0.00000000  0.00000000  0.63822700  1
  Ti  Ti9  1  0.00000000  0.00000000  0.35908700  1
  Ti  Ti10  1  0.66666667  0.33333333  0.33964933  1
  Ti  Ti11  1  0.66666667  0.33333333  0.83519333  1
  Ti  Ti12  1  0.66666667  0.33333333  0.19274033  1
  Ti  Ti13  1  0.66666667  0.33333333  0.97156033  1
  Ti  Ti14  1  0.66666667  0.33333333  0.69242033  1
  Nb  Nb15  1  0.33333333  0.66666667  0.80327367  1
  Nb  Nb16  1  0.00000000  0.00000000  0.13660700  1
  Nb  Nb17  1  0.66666667  0.33333333  0.46994033  1
  P  P18  1  0.70684800  0.00303500  0.25044200  1
  P  P19  1  0.29618700  0.29315200  0.25044200  1
  P  P20  1  0.65737267  0.61616033  0.08307433  1
  P  P21  1  0.38383967  0.04121233  0.08307433  1
  P  P22  1  0.95878767  0.34262733  0.08307433  1
  P  P23  1  0.99696500  0.70381300  0.25044200  1
  P  P24  1  0.37351467  0.33636833  0.58377533  1
  P  P25  1  0.96285367  0.62648533  0.58377533  1
  P  P26  1  0.32403933  0.94949367  0.41640767  1
  P  P27  1  0.05050633  0.37454567  0.41640767  1
  P  P28  1  0.62545433  0.67596067  0.41640767  1
  P  P29  1  0.66363167  0.03714633  0.58377533  1
  P  P30  1  0.04018133  0.66970167  0.91710867  1
  P  P31  1  0.62952033  0.95981867  0.91710867  1
  P  P32  1  0.99070600  0.28282700  0.74974100  1
  P  P33  1  0.71717300  0.70787900  0.74974100  1
  P  P34  1  0.29212100  0.00929400  0.74974100  1
  P  P35  1  0.33029833  0.37047967  0.91710867  1
  O  O36  1  0.53293367  0.68408333  0.35412933  1
  O  O37  1  0.31591667  0.84885033  0.35412933  1
  O  O38  1  0.68182967  0.16409633  0.26148333  1
  O  O39  1  0.15114967  0.46706633  0.35412933  1
  O  O40  1  0.80530600  0.01166600  0.18677800  1
  O  O41  1  0.52016200  0.83986900  0.24013400  1
  O  O42  1  0.48226667  0.31817033  0.26148333  1
  O  O43  1  0.31970700  0.47983800  0.24013400  1
  O  O44  1  0.67178400  0.52969600  0.14620600  1
  O  O45  1  0.16013100  0.68029300  0.24013400  1
  O  O46  1  0.81957967  0.80382733  0.07244133  1
  O  O47  1  0.47030400  0.14208800  0.14620600  1
  O  O48  1  0.20636000  0.19469400  0.18677800  1
  O  O49  1  0.83590367  0.51773333  0.26148333  1
  O  O50  1  0.49775733  0.64416467  0.09350367  1
  O  O51  1  0.98833400  0.79364000  0.18677800  1
  O  O52  1  0.35583533  0.85359267  0.09350367  1
  O  O53  1  0.19617267  0.01575233  0.07244133  1
  O  O54  1  0.14640733  0.50224267  0.09350367  1
  O  O55  1  0.85791200  0.32821600  0.14620600  1
  O  O56  1  0.52186300  0.86323500  0.97797400  1
  O  O57  1  0.98424767  0.18042033  0.07244133  1
  O  O58  1  0.34137200  0.47813700  0.97797400  1
  O  O59  1  0.13676500  0.65862800  0.97797400  1
  O  O60  1  0.19960033  0.01741667  0.68746267  1
  O  O61  1  0.98258333  0.18218367  0.68746267  1
  O  O62  1  0.34849633  0.49742967  0.59481667  1
  O  O63  1  0.81781633  0.80039967  0.68746267  1
  O  O64  1  0.47197267  0.34499933  0.52011133  1
  O  O65  1  0.18682867  0.17320233  0.57346733  1
  O  O66  1  0.14893333  0.65150367  0.59481667  1
  O  O67  1  0.98637367  0.81317133  0.57346733  1
  O  O68  1  0.33845067  0.86302933  0.47953933  1
  O  O69  1  0.82679767  0.01362633  0.57346733  1
  O  O70  1  0.48624633  0.13716067  0.40577467  1
  O  O71  1  0.13697067  0.47542133  0.47953933  1
  O  O72  1  0.87302667  0.52802733  0.52011133  1
  O  O73  1  0.50257033  0.85106667  0.59481667  1
  O  O74  1  0.16442400  0.97749800  0.42683700  1
  O  O75  1  0.65500067  0.12697333  0.52011133  1
  O  O76  1  0.02250200  0.18692600  0.42683700  1
  O  O77  1  0.86283933  0.34908567  0.40577467  1
  O  O78  1  0.81307400  0.83557600  0.42683700  1
  O  O79  1  0.52457867  0.66154933  0.47953933  1
  O  O80  1  0.18852967  0.19656833  0.31130733  1
  O  O81  1  0.65091433  0.51375367  0.40577467  1
  O  O82  1  0.00803867  0.81147033  0.31130733  1
  O  O83  1  0.80343167  0.99196133  0.31130733  1
  O  O84  1  0.86626700  0.35075000  0.02079600  1
  O  O85  1  0.64925000  0.51551700  0.02079600  1
  O  O86  1  0.01516300  0.83076300  0.92815000  1
  O  O87  1  0.48448300  0.13373300  0.02079600  1
  O  O88  1  0.13863933  0.67833267  0.85344467  1
  O  O89  1  0.85349533  0.50653567  0.90680067  1
  O  O90  1  0.81560000  0.98483700  0.92815000  1
  O  O91  1  0.65304033  0.14650467  0.90680067  1
  O  O92  1  0.00511733  0.19636267  0.81287267  1
  O  O93  1  0.49346433  0.34695967  0.90680067  1
  O  O94  1  0.15291300  0.47049400  0.73910800  1
  O  O95  1  0.80363733  0.80875467  0.81287267  1
  O  O96  1  0.53969333  0.86136067  0.85344467  1
  O  O97  1  0.16923700  0.18440000  0.92815000  1
  O  O98  1  0.83109067  0.31083133  0.76017033  1
  O  O99  1  0.32166733  0.46030667  0.85344467  1
  O  O100  1  0.68916867  0.52025933  0.76017033  1
  O  O101  1  0.52950600  0.68241900  0.73910800  1
  O  O102  1  0.47974067  0.16890933  0.76017033  1
  O  O103  1  0.19124533  0.99488267  0.81287267  1
  O  O104  1  0.85519633  0.52990167  0.64464067  1
  O  O105  1  0.31758100  0.84708700  0.73910800  1
  O  O106  1  0.67470533  0.14480367  0.64464067  1
  O  O107  1  0.47009833  0.32529467  0.64464067  1
