# generated using pymatgen
data_Li4V2OF7
_symmetry_space_group_name_H-M   'P 1'
_cell_length_a   5.99861412
_cell_length_b   6.03343274
_cell_length_c   6.03638365
_cell_angle_alpha   61.52874711
_cell_angle_beta   60.67961909
_cell_angle_gamma   60.47132123
_symmetry_Int_Tables_number   1
_chemical_formula_structural   Li4V2OF7
_chemical_formula_sum   'Li4 V2 O1 F7'
_cell_volume   157.56267287
_cell_formula_units_Z   1
loop_
 _symmetry_equiv_pos_site_id
 _symmetry_equiv_pos_as_xyz
  1  'x, y, z'
loop_
 _atom_site_type_symbol
 _atom_site_label
 _atom_site_symmetry_multiplicity
 _atom_site_fract_x
 _atom_site_fract_y
 _atom_site_fract_z
 _atom_site_occupancy
  Li  Li0  1  0.00302700  0.50039700  0.49577400  1
  Li  Li1  1  0.51547500  0.48729100  0.49034400  1
  Li  Li2  1  0.10569850  0.13955050  0.11389950  1
  Li  Li3  1  0.87486800  0.87432800  0.89535700  1
  V  V4  1  0.50680900  0.00280050  0.49963400  1
  V  V5  1  0.51553600  0.48881400  0.01081500  1
  O  O6  1  0.71451350  0.26234050  0.24028950  1
  F  F7  1  0.73264100  0.27990600  0.74807400  1
  F  F8  1  0.74438900  0.73067100  0.28087800  1
  F  F9  1  0.27498050  0.73506500  0.75881950  1
  F  F10  1  0.74885200  0.73864500  0.75524600  1
  F  F11  1  0.25820150  0.25950950  0.24869050  1
  F  F12  1  0.25672650  0.73189200  0.23790650  1
  F  F13  1  0.24828400  0.26878800  0.72427200  1
