# generated using pymatgen
data_LiMnSiO4
_symmetry_space_group_name_H-M   'P 1'
_cell_length_a   5.54268552
_cell_length_b   8.11590253
_cell_length_c   6.32511700
_cell_angle_alpha   90.00000000
_cell_angle_beta   90.00000000
_cell_angle_gamma   90.00000000
_symmetry_Int_Tables_number   1
_chemical_formula_structural   LiMnSiO4
_chemical_formula_sum   'Li4 Mn4 Si4 O16'
_cell_volume   284.52840146
_cell_formula_units_Z   4
loop_
 _symmetry_equiv_pos_site_id
 _symmetry_equiv_pos_as_xyz
  1  'x, y, z'
loop_
 _atom_site_type_symbol
 _atom_site_label
 _atom_site_symmetry_multiplicity
 _atom_site_fract_x
 _atom_site_fract_y
 _atom_site_fract_z
 _atom_site_occupancy
  Li  Li0  1  0.50000000  0.32668675  0.75000000  1
  Li  Li1  1  0.50000000  0.67331325  0.25000000  1
  Li  Li2  1  0.00000000  0.82668675  0.75000000  1
  Li  Li3  1  0.00000000  0.17331325  0.25000000  1
  Mn  Mn4  1  0.00000000  0.50000000  0.00000000  1
  Mn  Mn5  1  0.00000000  0.50000000  0.50000000  1
  Mn  Mn6  1  0.50000000  0.00000000  0.00000000  1
  Mn  Mn7  1  0.50000000  0.00000000  0.50000000  1
  Si  Si8  1  0.50000000  0.34613150  0.25000000  1
  Si  Si9  1  0.50000000  0.65386850  0.75000000  1
  Si  Si10  1  0.00000000  0.84613150  0.25000000  1
  Si  Si11  1  0.00000000  0.15386850  0.75000000  1
  O  O12  1  0.26244825  0.52763400  0.75000000  1
  O  O13  1  0.26244825  0.47236600  0.25000000  1
  O  O14  1  0.73755175  0.52763400  0.75000000  1
  O  O15  1  0.73755175  0.47236600  0.25000000  1
  O  O16  1  0.50000000  0.23266550  0.03650725  1
  O  O17  1  0.50000000  0.23266550  0.46349275  1
  O  O18  1  0.50000000  0.76733450  0.53650725  1
  O  O19  1  0.50000000  0.76733450  0.96349275  1
  O  O20  1  0.76244825  0.02763400  0.75000000  1
  O  O21  1  0.76244825  0.97236600  0.25000000  1
  O  O22  1  0.23755175  0.02763400  0.75000000  1
  O  O23  1  0.23755175  0.97236600  0.25000000  1
  O  O24  1  0.00000000  0.73266550  0.03650725  1
  O  O25  1  0.00000000  0.73266550  0.46349275  1
  O  O26  1  0.00000000  0.26733450  0.53650725  1
  O  O27  1  0.00000000  0.26733450  0.96349275  1
