# generated using pymatgen
data_Zr2N2O
_symmetry_space_group_name_H-M   'P 1'
_cell_length_a   13.80487200
_cell_length_b   3.32938400
_cell_length_c   16.64631408
_cell_angle_alpha   90.00000000
_cell_angle_beta   100.26759726
_cell_angle_gamma   90.00000000
_symmetry_Int_Tables_number   1
_chemical_formula_structural   Zr2N2O
_chemical_formula_sum   'Zr24 N24 O12'
_cell_volume   752.84102288
_cell_formula_units_Z   12
loop_
 _symmetry_equiv_pos_site_id
 _symmetry_equiv_pos_as_xyz
  1  'x, y, z'
loop_
 _atom_site_type_symbol
 _atom_site_label
 _atom_site_symmetry_multiplicity
 _atom_site_fract_x
 _atom_site_fract_y
 _atom_site_fract_z
 _atom_site_occupancy
  Zr  Zr0  1  0.52907300  0.50000000  0.90072500  1
  Zr  Zr1  1  0.53063500  0.50000000  0.40415200  1
  Zr  Zr2  1  0.63495300  0.00000000  0.73790800  1
  Zr  Zr3  1  0.69728800  0.00000000  0.56814700  1
  Zr  Zr4  1  0.62974600  0.00000000  0.23639800  1
  Zr  Zr5  1  0.80768400  0.50000000  0.93631900  1
  Zr  Zr6  1  0.69419200  0.00000000  0.06445400  1
  Zr  Zr7  1  0.86416400  0.50000000  0.76048800  1
  Zr  Zr8  1  0.80183200  0.50000000  0.43171800  1
  Zr  Zr9  1  0.87095800  0.50000000  0.26226200  1
  Zr  Zr10  1  0.96245900  0.00000000  0.59473200  1
  Zr  Zr11  1  0.97044200  0.00000000  0.09578300  1
  Zr  Zr12  1  0.02907300  0.00000000  0.90072500  1
  Zr  Zr13  1  0.03063500  0.00000000  0.40415200  1
  Zr  Zr14  1  0.13495300  0.50000000  0.73790800  1
  Zr  Zr15  1  0.19728800  0.50000000  0.56814700  1
  Zr  Zr16  1  0.12974600  0.50000000  0.23639800  1
  Zr  Zr17  1  0.30768400  0.00000000  0.93631900  1
  Zr  Zr18  1  0.19419200  0.50000000  0.06445400  1
  Zr  Zr19  1  0.36416400  0.00000000  0.76048800  1
  Zr  Zr20  1  0.30183200  0.00000000  0.43171800  1
  Zr  Zr21  1  0.37095800  0.00000000  0.26226200  1
  Zr  Zr22  1  0.46245900  0.50000000  0.59473200  1
  Zr  Zr23  1  0.47044200  0.50000000  0.09578300  1
  N  N24  1  0.53288200  0.00000000  0.82352000  1
  N  N25  1  0.67110800  0.50000000  0.98111700  1
  N  N26  1  0.53476300  0.00000000  0.32962400  1
  N  N27  1  0.62175700  0.50000000  0.64532900  1
  N  N28  1  0.67145400  0.50000000  0.48463100  1
  N  N29  1  0.62785100  0.50000000  0.14381400  1
  N  N30  1  0.80030400  0.00000000  0.68628800  1
  N  N31  1  0.87270400  0.00000000  0.86275700  1
  N  N32  1  0.82798500  0.00000000  0.51379000  1
  N  N33  1  0.87341600  0.00000000  0.35638100  1
  N  N34  1  0.82785000  0.00000000  0.02097100  1
  N  N35  1  0.96714700  0.50000000  0.17232500  1
  N  N36  1  0.03288200  0.50000000  0.82352000  1
  N  N37  1  0.17110800  0.00000000  0.98111700  1
  N  N38  1  0.03476300  0.50000000  0.32962400  1
  N  N39  1  0.12175700  0.00000000  0.64532900  1
  N  N40  1  0.17145400  0.00000000  0.48463100  1
  N  N41  1  0.12785100  0.00000000  0.14381400  1
  N  N42  1  0.30030400  0.50000000  0.68628800  1
  N  N43  1  0.37270400  0.50000000  0.86275700  1
  N  N44  1  0.32798500  0.50000000  0.51379000  1
  N  N45  1  0.37341600  0.50000000  0.35638100  1
  N  N46  1  0.32785000  0.50000000  0.02097100  1
  N  N47  1  0.46714700  0.00000000  0.17232500  1
  O  O48  1  0.71364200  0.50000000  0.80870200  1
  O  O49  1  0.70832600  0.50000000  0.31006800  1
  O  O50  1  0.78982100  0.00000000  0.19206200  1
  O  O51  1  0.96840200  0.50000000  0.67003600  1
  O  O52  1  0.99714800  0.50000000  0.50562100  1
  O  O53  1  0.50003500  0.00000000  0.99987400  1
  O  O54  1  0.21364200  0.00000000  0.80870200  1
  O  O55  1  0.20832600  0.00000000  0.31006800  1
  O  O56  1  0.28982100  0.50000000  0.19206200  1
  O  O57  1  0.46840200  0.00000000  0.67003600  1
  O  O58  1  0.49714800  0.00000000  0.50562100  1
  O  O59  1  0.00003500  0.50000000  0.99987400  1
