# generated using pymatgen
data_Li5TaO5
_symmetry_space_group_name_H-M   'P 1'
_cell_length_a   9.87769200
_cell_length_b   4.03118200
_cell_length_c   5.88051403
_cell_angle_alpha   90.00000000
_cell_angle_beta   108.80705105
_cell_angle_gamma   90.00000000
_symmetry_Int_Tables_number   1
_chemical_formula_structural   Li5TaO5
_chemical_formula_sum   'Li10 Ta2 O10'
_cell_volume   221.65323730
_cell_formula_units_Z   2
loop_
 _symmetry_equiv_pos_site_id
 _symmetry_equiv_pos_as_xyz
  1  'x, y, z'
loop_
 _atom_site_type_symbol
 _atom_site_label
 _atom_site_symmetry_multiplicity
 _atom_site_fract_x
 _atom_site_fract_y
 _atom_site_fract_z
 _atom_site_occupancy
  Li  Li0  1  0.28608100  0.00000000  0.65538800  1
  Li  Li1  1  0.30768300  0.00000000  0.14108100  1
  Li  Li2  1  0.00000000  0.00000000  0.50000000  1
  Li  Li3  1  0.19231700  0.50000000  0.85891900  1
  Li  Li4  1  0.21391900  0.50000000  0.34461200  1
  Li  Li5  1  0.78608100  0.50000000  0.65538800  1
  Li  Li6  1  0.80768300  0.50000000  0.14108100  1
  Li  Li7  1  0.50000000  0.50000000  0.50000000  1
  Li  Li8  1  0.69231700  0.00000000  0.85891900  1
  Li  Li9  1  0.71391900  0.00000000  0.34461200  1
  Ta  Ta10  1  0.00000000  0.00000000  0.00000000  1
  Ta  Ta11  1  0.50000000  0.50000000  0.00000000  1
  O  O12  1  0.14419200  0.00000000  0.82594700  1
  O  O13  1  0.15690800  0.00000000  0.31642700  1
  O  O14  1  0.00000000  0.50000000  0.00000000  1
  O  O15  1  0.34309200  0.50000000  0.68357300  1
  O  O16  1  0.35580800  0.50000000  0.17405300  1
  O  O17  1  0.64419200  0.50000000  0.82594700  1
  O  O18  1  0.65690800  0.50000000  0.31642700  1
  O  O19  1  0.50000000  0.00000000  0.00000000  1
  O  O20  1  0.84309200  0.00000000  0.68357300  1
  O  O21  1  0.85580800  0.00000000  0.17405300  1
