# generated using pymatgen
data_LiFeF3
_symmetry_space_group_name_H-M   'P 1'
_cell_length_a   3.15997600
_cell_length_b   14.74430800
_cell_length_c   5.02289400
_cell_angle_alpha   90.00000000
_cell_angle_beta   90.00000000
_cell_angle_gamma   90.00000000
_symmetry_Int_Tables_number   1
_chemical_formula_structural   LiFeF3
_chemical_formula_sum   'Li4 Fe4 F12'
_cell_volume   234.02496653
_cell_formula_units_Z   4
loop_
 _symmetry_equiv_pos_site_id
 _symmetry_equiv_pos_as_xyz
  1  'x, y, z'
loop_
 _atom_site_type_symbol
 _atom_site_label
 _atom_site_symmetry_multiplicity
 _atom_site_fract_x
 _atom_site_fract_y
 _atom_site_fract_z
 _atom_site_occupancy
  Li  Li0  1  0.00000000  0.53142000  0.98562300  1
  Li  Li1  1  0.50000000  0.96858000  0.48562300  1
  Li  Li2  1  0.50000000  0.03142000  0.98562300  1
  Li  Li3  1  0.00000000  0.46858000  0.48562300  1
  Fe  Fe4  1  0.50000000  0.66819800  0.51667900  1
  Fe  Fe5  1  0.00000000  0.83180200  0.01667900  1
  Fe  Fe6  1  0.00000000  0.16819800  0.51667900  1
  Fe  Fe7  1  0.50000000  0.33180200  0.01667900  1
  F  F8  1  0.50000000  0.77078800  0.24293300  1
  F  F9  1  0.00000000  0.72921200  0.74293300  1
  F  F10  1  0.50000000  0.56101600  0.76892900  1
  F  F11  1  0.00000000  0.93898400  0.26892900  1
  F  F12  1  0.50000000  0.90286600  0.81671100  1
  F  F13  1  0.00000000  0.59713400  0.31671100  1
  F  F14  1  0.00000000  0.27078800  0.24293300  1
  F  F15  1  0.50000000  0.22921200  0.74293300  1
  F  F16  1  0.00000000  0.06101600  0.76892900  1
  F  F17  1  0.50000000  0.43898400  0.26892900  1
  F  F18  1  0.00000000  0.40286600  0.81671100  1
  F  F19  1  0.50000000  0.09713400  0.31671100  1
