# generated using pymatgen
data_Li4Ti15O32
_symmetry_space_group_name_H-M   'P 1'
_cell_length_a   5.97799161
_cell_length_b   5.97799161
_cell_length_c   58.12638309
_cell_angle_alpha   90.00000000
_cell_angle_beta   90.00000000
_cell_angle_gamma   120.00000000
_symmetry_Int_Tables_number   1
_chemical_formula_structural   Li4Ti15O32
_chemical_formula_sum   'Li12 Ti45 O96'
_cell_volume   1798.93111644
_cell_formula_units_Z   3
loop_
 _symmetry_equiv_pos_site_id
 _symmetry_equiv_pos_as_xyz
  1  'x, y, z'
loop_
 _atom_site_type_symbol
 _atom_site_label
 _atom_site_symmetry_multiplicity
 _atom_site_fract_x
 _atom_site_fract_y
 _atom_site_fract_z
 _atom_site_occupancy
  Li  Li0  1  0.33333333  0.66666667  0.01094967  1
  Li  Li1  1  0.33333333  0.66666667  0.07237167  1
  Li  Li2  1  0.33333333  0.66666667  0.26096167  1
  Li  Li3  1  0.33333333  0.66666667  0.32238367  1
  Li  Li4  1  0.00000000  0.00000000  0.34428300  1
  Li  Li5  1  0.00000000  0.00000000  0.40570500  1
  Li  Li6  1  0.00000000  0.00000000  0.59429500  1
  Li  Li7  1  0.00000000  0.00000000  0.65571700  1
  Li  Li8  1  0.66666667  0.33333333  0.67761633  1
  Li  Li9  1  0.66666667  0.33333333  0.73903833  1
  Li  Li10  1  0.66666667  0.33333333  0.92762833  1
  Li  Li11  1  0.66666667  0.33333333  0.98905033  1
  Ti  Ti12  1  0.00000000  0.00000000  0.25120200  1
  Ti  Ti13  1  0.83944367  0.16055633  0.03990533  1
  Ti  Ti14  1  0.99652000  0.49826000  0.12494000  1
  Ti  Ti15  1  0.67014667  0.83507333  0.20839333  1
  Ti  Ti16  1  0.16492667  0.32985333  0.20839333  1
  Ti  Ti17  1  0.33333333  0.66666667  0.16666667  1
  Ti  Ti18  1  0.50174000  0.00348000  0.12494000  1
  Ti  Ti19  1  0.66666667  0.33333333  0.08213133  1
  Ti  Ti20  1  0.83944367  0.67888733  0.03990533  1
  Ti  Ti21  1  0.16492667  0.83507333  0.20839333  1
  Ti  Ti22  1  0.50174000  0.49826000  0.12494000  1
  Ti  Ti23  1  0.32111267  0.16055633  0.03990533  1
  Ti  Ti24  1  0.82722300  0.17277700  0.29342800  1
  Ti  Ti25  1  0.82722300  0.65444600  0.29342800  1
  Ti  Ti26  1  0.34555400  0.17277700  0.29342800  1
  Ti  Ti27  1  0.66666667  0.33333333  0.58453533  1
  Ti  Ti28  1  0.50611033  0.49388967  0.37323867  1
  Ti  Ti29  1  0.66318667  0.83159333  0.45827333  1
  Ti  Ti30  1  0.33681333  0.16840667  0.54172667  1
  Ti  Ti31  1  0.83159333  0.66318667  0.54172667  1
  Ti  Ti32  1  1.00000000  1.00000000  0.50000000  1
  Ti  Ti33  1  0.16840667  0.33681333  0.45827333  1
  Ti  Ti34  1  0.33333333  0.66666667  0.41546467  1
  Ti  Ti35  1  0.50611033  0.01222067  0.37323867  1
  Ti  Ti36  1  0.83159333  0.16840667  0.54172667  1
  Ti  Ti37  1  0.16840667  0.83159333  0.45827333  1
  Ti  Ti38  1  0.98777933  0.49388967  0.37323867  1
  Ti  Ti39  1  0.49388967  0.50611033  0.62676133  1
  Ti  Ti40  1  0.49388967  0.98777933  0.62676133  1
  Ti  Ti41  1  0.01222067  0.50611033  0.62676133  1
  Ti  Ti42  1  0.33333333  0.66666667  0.91786867  1
  Ti  Ti43  1  0.17277700  0.82722300  0.70657200  1
  Ti  Ti44  1  0.32985333  0.16492667  0.79160667  1
  Ti  Ti45  1  0.00348000  0.50174000  0.87506000  1
  Ti  Ti46  1  0.49826000  0.99652000  0.87506000  1
  Ti  Ti47  1  0.66666667  0.33333333  0.83333333  1
  Ti  Ti48  1  0.83507333  0.67014667  0.79160667  1
  Ti  Ti49  1  0.00000000  0.00000000  0.74879800  1
  Ti  Ti50  1  0.17277700  0.34555400  0.70657200  1
  Ti  Ti51  1  0.49826000  0.50174000  0.87506000  1
  Ti  Ti52  1  0.83507333  0.16492667  0.79160667  1
  Ti  Ti53  1  0.65444600  0.82722300  0.70657200  1
  Ti  Ti54  1  0.16055633  0.83944367  0.96009467  1
  Ti  Ti55  1  0.16055633  0.32111267  0.96009467  1
  Ti  Ti56  1  0.67888733  0.83944367  0.96009467  1
  O  O57  1  0.67871400  0.83935700  0.02470700  1
  O  O58  1  0.62334800  0.81167400  0.14432300  1
  O  O59  1  0.00000000  0.00000000  0.30980000  1
  O  O60  1  0.00000000  0.00000000  0.19108000  1
  O  O61  1  0.16064300  0.32128600  0.02470700  1
  O  O62  1  0.18832600  0.37665200  0.14432300  1
  O  O63  1  0.33333333  0.66666667  0.10684167  1
  O  O64  1  0.18832600  0.81167400  0.14432300  1
  O  O65  1  0.70632533  0.85316267  0.27145067  1
  O  O66  1  0.50602367  0.49397633  0.30862633  1
  O  O67  1  0.16064300  0.83935700  0.02470700  1
  O  O68  1  0.47834067  0.52165933  0.18901033  1
  O  O69  1  0.81299567  0.18700433  0.10577133  1
  O  O70  1  0.96034133  0.48017067  0.06188267  1
  O  O71  1  0.66666667  0.33333333  0.02353333  1
  O  O72  1  0.33333333  0.66666667  0.22649167  1
  O  O73  1  0.66666667  0.33333333  0.14225333  1
  O  O74  1  0.14683733  0.29367467  0.27145067  1
  O  O75  1  0.47834067  0.95668133  0.18901033  1
  O  O76  1  0.50602367  0.01204733  0.30862633  1
  O  O77  1  0.81299567  0.62599133  0.10577133  1
  O  O78  1  0.51982933  0.03965867  0.06188267  1
  O  O79  1  0.51982933  0.48017067  0.06188267  1
  O  O80  1  0.37400867  0.18700433  0.10577133  1
  O  O81  1  0.04331867  0.52165933  0.18901033  1
  O  O82  1  0.85367100  0.14632900  0.22756200  1
  O  O83  1  0.98795267  0.49397633  0.30862633  1
  O  O84  1  0.14683733  0.85316267  0.27145067  1
  O  O85  1  0.85367100  0.70734200  0.22756200  1
  O  O86  1  0.00000000  0.00000000  0.05820500  1
  O  O87  1  0.66666667  0.33333333  0.27512833  1
  O  O88  1  0.29265800  0.14632900  0.22756200  1
  O  O89  1  0.34538067  0.17269033  0.35804033  1
  O  O90  1  0.29001467  0.14500733  0.47765633  1
  O  O91  1  0.66666667  0.33333333  0.64313333  1
  O  O92  1  0.66666667  0.33333333  0.52441333  1
  O  O93  1  0.82730967  0.65461933  0.35804033  1
  O  O94  1  0.85499267  0.70998533  0.47765633  1
  O  O95  1  0.00000000  0.00000000  0.44017500  1
  O  O96  1  0.85499267  0.14500733  0.47765633  1
  O  O97  1  0.37299200  0.18649600  0.60478400  1
  O  O98  1  0.17269033  0.82730967  0.64195967  1
  O  O99  1  0.82730967  0.17269033  0.35804033  1
  O  O100  1  0.14500733  0.85499267  0.52234367  1
  O  O101  1  0.47966233  0.52033767  0.43910467  1
  O  O102  1  0.62700800  0.81350400  0.39521600  1
  O  O103  1  0.33333333  0.66666667  0.35686667  1
  O  O104  1  0.00000000  0.00000000  0.55982500  1
  O  O105  1  0.33333333  0.66666667  0.47558667  1
  O  O106  1  0.81350400  0.62700800  0.60478400  1
  O  O107  1  0.14500733  0.29001467  0.52234367  1
  O  O108  1  0.17269033  0.34538067  0.64195967  1
  O  O109  1  0.47966233  0.95932467  0.43910467  1
  O  O110  1  0.18649600  0.37299200  0.39521600  1
  O  O111  1  0.18649600  0.81350400  0.39521600  1
  O  O112  1  0.04067533  0.52033767  0.43910467  1
  O  O113  1  0.70998533  0.85499267  0.52234367  1
  O  O114  1  0.52033767  0.47966233  0.56089533  1
  O  O115  1  0.65461933  0.82730967  0.64195967  1
  O  O116  1  0.81350400  0.18649600  0.60478400  1
  O  O117  1  0.52033767  0.04067533  0.56089533  1
  O  O118  1  0.66666667  0.33333333  0.39153833  1
  O  O119  1  0.33333333  0.66666667  0.60846167  1
  O  O120  1  0.95932467  0.47966233  0.56089533  1
  O  O121  1  0.01204733  0.50602367  0.69137367  1
  O  O122  1  0.95668133  0.47834067  0.81098967  1
  O  O123  1  0.33333333  0.66666667  0.97646667  1
  O  O124  1  0.33333333  0.66666667  0.85774667  1
  O  O125  1  0.49397633  0.98795267  0.69137367  1
  O  O126  1  0.52165933  0.04331867  0.81098967  1
  O  O127  1  0.66666667  0.33333333  0.77350833  1
  O  O128  1  0.52165933  0.47834067  0.81098967  1
  O  O129  1  0.03965867  0.51982933  0.93811733  1
  O  O130  1  0.83935700  0.16064300  0.97529300  1
  O  O131  1  0.49397633  0.50602367  0.69137367  1
  O  O132  1  0.81167400  0.18832600  0.85567700  1
  O  O133  1  0.14632900  0.85367100  0.77243800  1
  O  O134  1  0.29367467  0.14683733  0.72854933  1
  O  O135  1  0.00000000  0.00000000  0.69020000  1
  O  O136  1  0.66666667  0.33333333  0.89315833  1
  O  O137  1  0.00000000  0.00000000  0.80892000  1
  O  O138  1  0.48017067  0.96034133  0.93811733  1
  O  O139  1  0.81167400  0.62334800  0.85567700  1
  O  O140  1  0.83935700  0.67871400  0.97529300  1
  O  O141  1  0.14632900  0.29265800  0.77243800  1
  O  O142  1  0.85316267  0.70632533  0.72854933  1
  O  O143  1  0.85316267  0.14683733  0.72854933  1
  O  O144  1  0.70734200  0.85367100  0.77243800  1
  O  O145  1  0.37665200  0.18832600  0.85567700  1
  O  O146  1  0.18700433  0.81299567  0.89422867  1
  O  O147  1  0.32128600  0.16064300  0.97529300  1
  O  O148  1  0.48017067  0.51982933  0.93811733  1
  O  O149  1  0.18700433  0.37400867  0.89422867  1
  O  O150  1  0.33333333  0.66666667  0.72487167  1
  O  O151  1  0.00000000  0.00000000  0.94179500  1
  O  O152  1  0.62599133  0.81299567  0.89422867  1
