# generated using pymatgen
data_P5HC(NCl6)3
_symmetry_space_group_name_H-M   'P 1'
_cell_length_a   16.61848800
_cell_length_b   22.13919600
_cell_length_c   15.41892600
_cell_angle_alpha   90.00000000
_cell_angle_beta   90.00000000
_cell_angle_gamma   90.00000000
_symmetry_Int_Tables_number   1
_chemical_formula_structural   P5HC(NCl6)3
_chemical_formula_sum   'P40 H8 C8 N24 Cl144'
_cell_volume   5672.93068428
_cell_formula_units_Z   8
loop_
 _symmetry_equiv_pos_site_id
 _symmetry_equiv_pos_as_xyz
  1  'x, y, z'
loop_
 _atom_site_type_symbol
 _atom_site_label
 _atom_site_symmetry_multiplicity
 _atom_site_fract_x
 _atom_site_fract_y
 _atom_site_fract_z
 _atom_site_occupancy
  P  P0  1  0.43615700  0.00000000  0.28894000  1
  P  P1  1  0.56384300  0.00000000  0.71106000  1
  P  P2  1  0.06384300  0.00000000  0.78894000  1
  P  P3  1  0.93615700  0.00000000  0.21106000  1
  P  P4  1  0.25749400  0.00000000  0.23756000  1
  P  P5  1  0.74250600  0.00000000  0.76244000  1
  P  P6  1  0.24250600  0.00000000  0.73756000  1
  P  P7  1  0.75749400  0.00000000  0.26244000  1
  P  P8  1  0.48680500  0.12769300  0.27187800  1
  P  P9  1  0.51319500  0.12769300  0.72812200  1
  P  P10  1  0.51319500  0.62769300  0.77187800  1
  P  P11  1  0.48680500  0.62769300  0.22812200  1
  P  P12  1  0.51319500  0.87230700  0.72812200  1
  P  P13  1  0.48680500  0.87230700  0.27187800  1
  P  P14  1  0.48680500  0.37230700  0.22812200  1
  P  P15  1  0.51319500  0.37230700  0.77187800  1
  P  P16  1  0.25000000  0.25000000  0.50000000  1
  P  P17  1  0.25000000  0.75000000  0.50000000  1
  P  P18  1  0.25000000  0.25000000  0.00000000  1
  P  P19  1  0.25000000  0.75000000  0.00000000  1
  P  P20  1  0.93615700  0.50000000  0.28894000  1
  P  P21  1  0.06384300  0.50000000  0.71106000  1
  P  P22  1  0.56384300  0.50000000  0.78894000  1
  P  P23  1  0.43615700  0.50000000  0.21106000  1
  P  P24  1  0.75749400  0.50000000  0.23756000  1
  P  P25  1  0.24250600  0.50000000  0.76244000  1
  P  P26  1  0.74250600  0.50000000  0.73756000  1
  P  P27  1  0.25749400  0.50000000  0.26244000  1
  P  P28  1  0.98680500  0.62769300  0.27187800  1
  P  P29  1  0.01319500  0.62769300  0.72812200  1
  P  P30  1  0.01319500  0.12769300  0.77187800  1
  P  P31  1  0.98680500  0.12769300  0.22812200  1
  P  P32  1  0.01319500  0.37230700  0.72812200  1
  P  P33  1  0.98680500  0.37230700  0.27187800  1
  P  P34  1  0.98680500  0.87230700  0.22812200  1
  P  P35  1  0.01319500  0.87230700  0.77187800  1
  P  P36  1  0.75000000  0.75000000  0.50000000  1
  P  P37  1  0.75000000  0.25000000  0.50000000  1
  P  P38  1  0.75000000  0.75000000  0.00000000  1
  P  P39  1  0.75000000  0.25000000  0.00000000  1
  H  H40  1  0.00011500  0.00000000  0.60096400  1
  H  H41  1  0.99988500  0.00000000  0.39903600  1
  H  H42  1  0.49988500  0.00000000  0.10096400  1
  H  H43  1  0.50011500  0.00000000  0.89903600  1
  H  H44  1  0.50011500  0.50000000  0.60096400  1
  H  H45  1  0.49988500  0.50000000  0.39903600  1
  H  H46  1  0.99988500  0.50000000  0.10096400  1
  H  H47  1  0.00011500  0.50000000  0.89903600  1
  C  C48  1  0.03081400  0.00000000  0.53731700  1
  C  C49  1  0.96918600  0.00000000  0.46268300  1
  C  C50  1  0.46918600  0.00000000  0.03731700  1
  C  C51  1  0.53081400  0.00000000  0.96268300  1
  C  C52  1  0.53081400  0.50000000  0.53731700  1
  C  C53  1  0.46918600  0.50000000  0.46268300  1
  C  C54  1  0.96918600  0.50000000  0.03731700  1
  C  C55  1  0.03081400  0.50000000  0.96268300  1
  N  N56  1  0.35000900  0.00000000  0.24399200  1
  N  N57  1  0.64999100  0.00000000  0.75600800  1
  N  N58  1  0.14999100  0.00000000  0.74399200  1
  N  N59  1  0.85000900  0.00000000  0.25600800  1
  N  N60  1  0.48921000  0.05755700  0.26349700  1
  N  N61  1  0.51079000  0.05755700  0.73650300  1
  N  N62  1  0.51079000  0.55755700  0.76349700  1
  N  N63  1  0.48921000  0.55755700  0.23650300  1
  N  N64  1  0.51079000  0.94244300  0.73650300  1
  N  N65  1  0.48921000  0.94244300  0.26349700  1
  N  N66  1  0.48921000  0.44244300  0.23650300  1
  N  N67  1  0.51079000  0.44244300  0.76349700  1
  N  N68  1  0.85000900  0.50000000  0.24399200  1
  N  N69  1  0.14999100  0.50000000  0.75600800  1
  N  N70  1  0.64999100  0.50000000  0.74399200  1
  N  N71  1  0.35000900  0.50000000  0.25600800  1
  N  N72  1  0.98921000  0.55755700  0.26349700  1
  N  N73  1  0.01079000  0.55755700  0.73650300  1
  N  N74  1  0.01079000  0.05755700  0.76349700  1
  N  N75  1  0.98921000  0.05755700  0.23650300  1
  N  N76  1  0.01079000  0.44244300  0.73650300  1
  N  N77  1  0.98921000  0.44244300  0.26349700  1
  N  N78  1  0.98921000  0.94244300  0.23650300  1
  N  N79  1  0.01079000  0.94244300  0.76349700  1
  Cl  Cl80  1  0.41839500  0.00000000  0.41962700  1
  Cl  Cl81  1  0.58160500  0.00000000  0.58037300  1
  Cl  Cl82  1  0.08160500  0.00000000  0.91962700  1
  Cl  Cl83  1  0.91839500  0.00000000  0.08037300  1
  Cl  Cl84  1  0.19989100  0.00000000  0.35139200  1
  Cl  Cl85  1  0.80010900  0.00000000  0.64860800  1
  Cl  Cl86  1  0.30010900  0.00000000  0.85139200  1
  Cl  Cl87  1  0.69989100  0.00000000  0.14860800  1
  Cl  Cl88  1  0.21447300  0.07070100  0.17236300  1
  Cl  Cl89  1  0.78552700  0.07070100  0.82763700  1
  Cl  Cl90  1  0.28552700  0.07070100  0.67236300  1
  Cl  Cl91  1  0.71447300  0.07070100  0.32763700  1
  Cl  Cl92  1  0.78552700  0.92929900  0.82763700  1
  Cl  Cl93  1  0.21447300  0.92929900  0.17236300  1
  Cl  Cl94  1  0.71447300  0.92929900  0.32763700  1
  Cl  Cl95  1  0.28552700  0.92929900  0.67236300  1
  Cl  Cl96  1  0.52708450  0.15877650  0.38564700  1
  Cl  Cl97  1  0.47291550  0.15877650  0.61435300  1
  Cl  Cl98  1  0.47291550  0.65877650  0.88564700  1
  Cl  Cl99  1  0.52708450  0.65877650  0.11435300  1
  Cl  Cl100  1  0.47291550  0.84122350  0.61435300  1
  Cl  Cl101  1  0.52708450  0.84122350  0.38564700  1
  Cl  Cl102  1  0.52708450  0.34122350  0.11435300  1
  Cl  Cl103  1  0.47291550  0.34122350  0.88564700  1
  Cl  Cl104  1  0.37959800  0.16620100  0.25579300  1
  Cl  Cl105  1  0.62040200  0.16620100  0.74420700  1
  Cl  Cl106  1  0.62040200  0.66620100  0.75579300  1
  Cl  Cl107  1  0.37959800  0.66620100  0.24420700  1
  Cl  Cl108  1  0.62040200  0.83379900  0.74420700  1
  Cl  Cl109  1  0.37959800  0.83379900  0.25579300  1
  Cl  Cl110  1  0.37959800  0.33379900  0.24420700  1
  Cl  Cl111  1  0.62040200  0.33379900  0.75579300  1
  Cl  Cl112  1  0.55811350  0.16559650  0.18374700  1
  Cl  Cl113  1  0.44188650  0.16559650  0.81625300  1
  Cl  Cl114  1  0.44188650  0.66559650  0.68374700  1
  Cl  Cl115  1  0.55811350  0.66559650  0.31625300  1
  Cl  Cl116  1  0.44188650  0.83440350  0.81625300  1
  Cl  Cl117  1  0.55811350  0.83440350  0.18374700  1
  Cl  Cl118  1  0.55811350  0.33440350  0.31625300  1
  Cl  Cl119  1  0.44188650  0.33440350  0.68374700  1
  Cl  Cl120  1  0.72459300  0.76354100  0.36266300  1
  Cl  Cl121  1  0.27540700  0.76354100  0.63733700  1
  Cl  Cl122  1  0.27540700  0.26354100  0.86266300  1
  Cl  Cl123  1  0.72459300  0.26354100  0.13733700  1
  Cl  Cl124  1  0.27540700  0.23645900  0.63733700  1
  Cl  Cl125  1  0.72459300  0.23645900  0.36266300  1
  Cl  Cl126  1  0.72459300  0.73645900  0.13733700  1
  Cl  Cl127  1  0.27540700  0.73645900  0.86266300  1
  Cl  Cl128  1  0.27516100  0.15546900  0.47469200  1
  Cl  Cl129  1  0.72483900  0.15546900  0.52530800  1
  Cl  Cl130  1  0.22483900  0.15546900  0.97469200  1
  Cl  Cl131  1  0.77516100  0.15546900  0.02530800  1
  Cl  Cl132  1  0.72483900  0.84453100  0.52530800  1
  Cl  Cl133  1  0.27516100  0.84453100  0.47469200  1
  Cl  Cl134  1  0.77516100  0.84453100  0.02530800  1
  Cl  Cl135  1  0.22483900  0.84453100  0.97469200  1
  Cl  Cl136  1  0.37549400  0.27173800  0.47737100  1
  Cl  Cl137  1  0.62450600  0.27173800  0.52262900  1
  Cl  Cl138  1  0.62450600  0.77173800  0.97737100  1
  Cl  Cl139  1  0.37549400  0.77173800  0.02262900  1
  Cl  Cl140  1  0.62450600  0.72826200  0.52262900  1
  Cl  Cl141  1  0.37549400  0.72826200  0.47737100  1
  Cl  Cl142  1  0.37549400  0.22826200  0.02262900  1
  Cl  Cl143  1  0.62450600  0.22826200  0.97737100  1
  Cl  Cl144  1  0.09222750  0.06604350  0.53158700  1
  Cl  Cl145  1  0.90777250  0.06604350  0.46841300  1
  Cl  Cl146  1  0.40777250  0.06604350  0.03158700  1
  Cl  Cl147  1  0.59222750  0.06604350  0.96841300  1
  Cl  Cl148  1  0.90777250  0.93395650  0.46841300  1
  Cl  Cl149  1  0.09222750  0.93395650  0.53158700  1
  Cl  Cl150  1  0.59222750  0.93395650  0.96841300  1
  Cl  Cl151  1  0.40777250  0.93395650  0.03158700  1
  Cl  Cl152  1  0.91839500  0.50000000  0.41962700  1
  Cl  Cl153  1  0.08160500  0.50000000  0.58037300  1
  Cl  Cl154  1  0.58160500  0.50000000  0.91962700  1
  Cl  Cl155  1  0.41839500  0.50000000  0.08037300  1
  Cl  Cl156  1  0.69989100  0.50000000  0.35139200  1
  Cl  Cl157  1  0.30010900  0.50000000  0.64860800  1
  Cl  Cl158  1  0.80010900  0.50000000  0.85139200  1
  Cl  Cl159  1  0.19989100  0.50000000  0.14860800  1
  Cl  Cl160  1  0.71447300  0.57070100  0.17236300  1
  Cl  Cl161  1  0.28552700  0.57070100  0.82763700  1
  Cl  Cl162  1  0.78552700  0.57070100  0.67236300  1
  Cl  Cl163  1  0.21447300  0.57070100  0.32763700  1
  Cl  Cl164  1  0.28552700  0.42929900  0.82763700  1
  Cl  Cl165  1  0.71447300  0.42929900  0.17236300  1
  Cl  Cl166  1  0.21447300  0.42929900  0.32763700  1
  Cl  Cl167  1  0.78552700  0.42929900  0.67236300  1
  Cl  Cl168  1  0.02708450  0.65877650  0.38564700  1
  Cl  Cl169  1  0.97291550  0.65877650  0.61435300  1
  Cl  Cl170  1  0.97291550  0.15877650  0.88564700  1
  Cl  Cl171  1  0.02708450  0.15877650  0.11435300  1
  Cl  Cl172  1  0.97291550  0.34122350  0.61435300  1
  Cl  Cl173  1  0.02708450  0.34122350  0.38564700  1
  Cl  Cl174  1  0.02708450  0.84122350  0.11435300  1
  Cl  Cl175  1  0.97291550  0.84122350  0.88564700  1
  Cl  Cl176  1  0.87959800  0.66620100  0.25579300  1
  Cl  Cl177  1  0.12040200  0.66620100  0.74420700  1
  Cl  Cl178  1  0.12040200  0.16620100  0.75579300  1
  Cl  Cl179  1  0.87959800  0.16620100  0.24420700  1
  Cl  Cl180  1  0.12040200  0.33379900  0.74420700  1
  Cl  Cl181  1  0.87959800  0.33379900  0.25579300  1
  Cl  Cl182  1  0.87959800  0.83379900  0.24420700  1
  Cl  Cl183  1  0.12040200  0.83379900  0.75579300  1
  Cl  Cl184  1  0.05811350  0.66559650  0.18374700  1
  Cl  Cl185  1  0.94188650  0.66559650  0.81625300  1
  Cl  Cl186  1  0.94188650  0.16559650  0.68374700  1
  Cl  Cl187  1  0.05811350  0.16559650  0.31625300  1
  Cl  Cl188  1  0.94188650  0.33440350  0.81625300  1
  Cl  Cl189  1  0.05811350  0.33440350  0.18374700  1
  Cl  Cl190  1  0.05811350  0.83440350  0.31625300  1
  Cl  Cl191  1  0.94188650  0.83440350  0.68374700  1
  Cl  Cl192  1  0.22459300  0.26354100  0.36266300  1
  Cl  Cl193  1  0.77540700  0.26354100  0.63733700  1
  Cl  Cl194  1  0.77540700  0.76354100  0.86266300  1
  Cl  Cl195  1  0.22459300  0.76354100  0.13733700  1
  Cl  Cl196  1  0.77540700  0.73645900  0.63733700  1
  Cl  Cl197  1  0.22459300  0.73645900  0.36266300  1
  Cl  Cl198  1  0.22459300  0.23645900  0.13733700  1
  Cl  Cl199  1  0.77540700  0.23645900  0.86266300  1
  Cl  Cl200  1  0.77516100  0.65546900  0.47469200  1
  Cl  Cl201  1  0.22483900  0.65546900  0.52530800  1
  Cl  Cl202  1  0.72483900  0.65546900  0.97469200  1
  Cl  Cl203  1  0.27516100  0.65546900  0.02530800  1
  Cl  Cl204  1  0.22483900  0.34453100  0.52530800  1
  Cl  Cl205  1  0.77516100  0.34453100  0.47469200  1
  Cl  Cl206  1  0.27516100  0.34453100  0.02530800  1
  Cl  Cl207  1  0.72483900  0.34453100  0.97469200  1
  Cl  Cl208  1  0.87549400  0.77173800  0.47737100  1
  Cl  Cl209  1  0.12450600  0.77173800  0.52262900  1
  Cl  Cl210  1  0.12450600  0.27173800  0.97737100  1
  Cl  Cl211  1  0.87549400  0.27173800  0.02262900  1
  Cl  Cl212  1  0.12450600  0.22826200  0.52262900  1
  Cl  Cl213  1  0.87549400  0.22826200  0.47737100  1
  Cl  Cl214  1  0.87549400  0.72826200  0.02262900  1
  Cl  Cl215  1  0.12450600  0.72826200  0.97737100  1
  Cl  Cl216  1  0.59222750  0.56604350  0.53158700  1
  Cl  Cl217  1  0.40777250  0.56604350  0.46841300  1
  Cl  Cl218  1  0.90777250  0.56604350  0.03158700  1
  Cl  Cl219  1  0.09222750  0.56604350  0.96841300  1
  Cl  Cl220  1  0.40777250  0.43395650  0.46841300  1
  Cl  Cl221  1  0.59222750  0.43395650  0.53158700  1
  Cl  Cl222  1  0.09222750  0.43395650  0.96841300  1
  Cl  Cl223  1  0.90777250  0.43395650  0.03158700  1
