# generated using pymatgen
data_Sr3LaCl9
_symmetry_space_group_name_H-M   'P 1'
_cell_length_a   7.38935300
_cell_length_b   6.88462800
_cell_length_c   28.95387876
_cell_angle_alpha   90.00000000
_cell_angle_beta   91.94006675
_cell_angle_gamma   90.00000000
_symmetry_Int_Tables_number   1
_chemical_formula_structural   Sr3LaCl9
_chemical_formula_sum   'Sr12 La4 Cl36'
_cell_volume   1472.12480094
_cell_formula_units_Z   4
loop_
 _symmetry_equiv_pos_site_id
 _symmetry_equiv_pos_as_xyz
  1  'x, y, z'
loop_
 _atom_site_type_symbol
 _atom_site_label
 _atom_site_symmetry_multiplicity
 _atom_site_fract_x
 _atom_site_fract_y
 _atom_site_fract_z
 _atom_site_occupancy
  Sr  Sr0  1  0.32609300  0.02836000  0.93305200  1
  Sr  Sr1  1  0.29419300  0.99626200  0.69220600  1
  Sr  Sr2  1  0.32609300  0.97164000  0.43305200  1
  Sr  Sr3  1  0.29419300  0.00373800  0.19220600  1
  Sr  Sr4  1  0.68520700  0.01005600  0.56879100  1
  Sr  Sr5  1  0.71888400  0.01396200  0.80909000  1
  Sr  Sr6  1  0.68520700  0.98994400  0.06879100  1
  Sr  Sr7  1  0.71888400  0.98603800  0.30909000  1
  Sr  Sr8  1  0.78322400  0.47956600  0.69205900  1
  Sr  Sr9  1  0.81969700  0.48652100  0.93170500  1
  Sr  Sr10  1  0.78322400  0.52043400  0.19205900  1
  Sr  Sr11  1  0.81969700  0.51347900  0.43170500  1
  La  La12  1  0.20670000  0.47969000  0.80712600  1
  La  La13  1  0.18143400  0.45699700  0.56725500  1
  La  La14  1  0.20670000  0.52031000  0.30712600  1
  La  La15  1  0.18143400  0.54300300  0.06725500  1
  Cl  Cl16  1  0.01659800  0.20141900  0.86962500  1
  Cl  Cl17  1  0.01024900  0.18024000  0.75147600  1
  Cl  Cl18  1  0.00172900  0.18449400  0.62874400  1
  Cl  Cl19  1  0.01659800  0.79858100  0.36962500  1
  Cl  Cl20  1  0.01024900  0.81976000  0.25147600  1
  Cl  Cl21  1  0.10719000  0.29078600  0.99123200  1
  Cl  Cl22  1  0.00172900  0.81550600  0.12874400  1
  Cl  Cl23  1  0.14916800  0.67362300  0.89419800  1
  Cl  Cl24  1  0.10719000  0.70921400  0.49123200  1
  Cl  Cl25  1  0.15537000  0.60611200  0.70656900  1
  Cl  Cl26  1  0.14916800  0.32637700  0.39419800  1
  Cl  Cl27  1  0.15537000  0.39388800  0.20656900  1
  Cl  Cl28  1  0.35748600  0.84944600  0.79528600  1
  Cl  Cl29  1  0.35487800  0.80052200  0.60026600  1
  Cl  Cl30  1  0.35748600  0.15055400  0.29528600  1
  Cl  Cl31  1  0.35487800  0.19947800  0.10026600  1
  Cl  Cl32  1  0.41713000  0.24548100  0.51050900  1
  Cl  Cl33  1  0.49852800  0.31547700  0.86808200  1
  Cl  Cl34  1  0.49395300  0.30382400  0.75092600  1
  Cl  Cl35  1  0.48240000  0.29707500  0.62869400  1
  Cl  Cl36  1  0.41713000  0.75451900  0.01050900  1
  Cl  Cl37  1  0.49852800  0.68452300  0.36808200  1
  Cl  Cl38  1  0.49395300  0.69617600  0.25092600  1
  Cl  Cl39  1  0.48240000  0.70292500  0.12869400  1
  Cl  Cl40  1  0.60369500  0.23720900  0.98931100  1
  Cl  Cl41  1  0.60369500  0.76279100  0.48931100  1
  Cl  Cl42  1  0.65399900  0.84427000  0.89997500  1
  Cl  Cl43  1  0.67037000  0.88152100  0.69929200  1
  Cl  Cl44  1  0.65399900  0.15573000  0.39997500  1
  Cl  Cl45  1  0.67037000  0.11847900  0.19929200  1
  Cl  Cl46  1  0.84702500  0.61189200  0.79688300  1
  Cl  Cl47  1  0.86853300  0.64899800  0.59953000  1
  Cl  Cl48  1  0.84702500  0.38810800  0.29688300  1
  Cl  Cl49  1  0.86853300  0.35100200  0.09953000  1
  Cl  Cl50  1  0.92699900  0.24263200  0.50993200  1
  Cl  Cl51  1  0.92699900  0.75736800  0.00993200  1
