# generated using pymatgen
data_Ti2N2O
_symmetry_space_group_name_H-M   'P 1'
_cell_length_a   8.20165704
_cell_length_b   8.22850200
_cell_length_c   8.23174694
_cell_angle_alpha   109.57881552
_cell_angle_beta   109.35059315
_cell_angle_gamma   109.37143837
_symmetry_Int_Tables_number   1
_chemical_formula_structural   Ti2N2O
_chemical_formula_sum   'Ti16 N16 O8'
_cell_volume   428.24678886
_cell_formula_units_Z   8
loop_
 _symmetry_equiv_pos_site_id
 _symmetry_equiv_pos_as_xyz
  1  'x, y, z'
loop_
 _atom_site_type_symbol
 _atom_site_label
 _atom_site_symmetry_multiplicity
 _atom_site_fract_x
 _atom_site_fract_y
 _atom_site_fract_z
 _atom_site_occupancy
  Ti  Ti0  1  0.98595600  0.49983800  0.00048200  1
  Ti  Ti1  1  0.23962300  0.44902200  0.29890900  1
  Ti  Ti2  1  0.29323500  0.25540200  0.95672900  1
  Ti  Ti3  1  0.78275500  0.24790500  0.46423600  1
  Ti  Ti4  1  0.74184800  0.03648300  0.20444900  1
  Ti  Ti5  1  0.49527500  0.49825500  0.51478900  1
  Ti  Ti6  1  0.94382100  0.70585300  0.26103700  1
  Ti  Ti7  1  0.01415700  0.00373400  0.49772600  1
  Ti  Ti8  1  0.55315600  0.79280900  0.74717400  1
  Ti  Ti9  1  0.51151400  0.99973100  0.99639800  1
  Ti  Ti10  1  0.45591400  0.19770200  0.25829300  1
  Ti  Ti11  1  0.04779900  0.29772600  0.73639600  1
  Ti  Ti12  1  0.25293000  0.96302900  0.79104800  1
  Ti  Ti13  1  0.71869400  0.75372600  0.04172800  1
  Ti  Ti14  1  0.20450700  0.74554900  0.54130100  1
  Ti  Ti15  1  0.76136900  0.55156500  0.70151500  1
  N  N16  1  0.96076600  0.73223900  0.99266000  1
  N  N17  1  0.72677300  0.27753900  0.23356700  1
  N  N18  1  0.22672900  0.23462900  0.22349500  1
  N  N19  1  0.98859400  0.22565900  0.54831800  1
  N  N20  1  0.53892700  0.04577300  0.72740300  1
  N  N21  1  0.73629900  0.77707100  0.27573600  1
  N  N22  1  0.72636400  0.45102800  0.50668000  1
  N  N23  1  0.01239400  0.77557900  0.44830700  1
  N  N24  1  0.23849300  0.01142700  0.53948700  1
  N  N25  1  0.48511100  0.53866900  0.74033100  1
  N  N26  1  0.77316700  0.76777100  0.77333800  1
  N  N27  1  0.26645000  0.22503200  0.72636100  1
  N  N28  1  0.77304900  0.03832400  0.95030900  1
  N  N29  1  0.46244700  0.95250700  0.27048500  1
  N  N30  1  0.27492500  0.55064900  0.48679700  1
  N  N31  1  0.94801600  0.49099100  0.77953800  1
  O  O32  1  0.04185800  0.26627900  0.00758200  1
  O  O33  1  0.44759300  0.72552700  0.04262100  1
  O  O34  1  0.05556100  0.50818200  0.22169500  1
  O  O35  1  0.75880700  0.98672200  0.46187100  1
  O  O36  1  0.54662100  0.26897100  0.95607300  1
  O  O37  1  0.50900900  0.46500900  0.25826600  1
  O  O38  1  0.22498100  0.96150100  0.04964400  1
  O  O39  1  0.27451600  0.72459400  0.76722700  1
