# generated using pymatgen
data_Sb2(SO4)3
_symmetry_space_group_name_H-M   'P 1'
_cell_length_a   9.23031400
_cell_length_b   9.21486600
_cell_length_c   15.75673805
_cell_angle_alpha   90.00000000
_cell_angle_beta   125.83975985
_cell_angle_gamma   90.00000000
_symmetry_Int_Tables_number   1
_chemical_formula_structural   Sb2(SO4)3
_chemical_formula_sum   'Sb8 S12 O48'
_cell_volume   1086.44895322
_cell_formula_units_Z   4
loop_
 _symmetry_equiv_pos_site_id
 _symmetry_equiv_pos_as_xyz
  1  'x, y, z'
loop_
 _atom_site_type_symbol
 _atom_site_label
 _atom_site_symmetry_multiplicity
 _atom_site_fract_x
 _atom_site_fract_y
 _atom_site_fract_z
 _atom_site_occupancy
  Sb  Sb0  1  0.36951200  0.53645800  0.61860900  1
  Sb  Sb1  1  0.63048800  0.03645800  0.88139100  1
  Sb  Sb2  1  0.86474700  0.46437100  0.11643600  1
  Sb  Sb3  1  0.13525300  0.96437100  0.38356400  1
  Sb  Sb4  1  0.86474700  0.03562900  0.61643600  1
  Sb  Sb5  1  0.13525300  0.53562900  0.88356400  1
  Sb  Sb6  1  0.36951200  0.96354200  0.11860900  1
  Sb  Sb7  1  0.63048800  0.46354200  0.38139100  1
  S  S8  1  0.45588700  0.24553400  0.49372300  1
  S  S9  1  0.74600700  0.38281900  0.84615200  1
  S  S10  1  0.05214900  0.10672800  0.15378600  1
  S  S11  1  0.25399300  0.88281900  0.65384800  1
  S  S12  1  0.94785100  0.60672800  0.34621400  1
  S  S13  1  0.54411300  0.74553400  0.00627700  1
  S  S14  1  0.45588700  0.25446600  0.99372300  1
  S  S15  1  0.05214900  0.39327200  0.65378600  1
  S  S16  1  0.74600700  0.11718100  0.34615200  1
  S  S17  1  0.94785100  0.89327200  0.84621400  1
  S  S18  1  0.25399300  0.61718100  0.15384800  1
  S  S19  1  0.54411300  0.75446600  0.50627700  1
  O  O20  1  0.40561200  0.86654500  0.44107400  1
  O  O21  1  0.79060400  0.88307500  0.85031900  1
  O  O22  1  0.52689100  0.69859400  0.58861700  1
  O  O23  1  0.11696100  0.59573000  0.17429000  1
  O  O24  1  0.47631900  0.36458400  0.56334900  1
  O  O25  1  0.67216500  0.23313000  0.81076600  1
  O  O26  1  0.82617700  0.40148800  0.95889700  1
  O  O27  1  0.08749900  0.98920700  0.23053500  1
  O  O28  1  0.02890400  0.24737300  0.18999700  1
  O  O29  1  0.27362900  0.17999400  0.44090000  1
  O  O30  1  0.88999500  0.06509800  0.05006700  1
  O  O31  1  0.59939400  0.49256100  0.78530700  1
  O  O32  1  0.40060600  0.99256100  0.71469300  1
  O  O33  1  0.11000500  0.56509800  0.44993300  1
  O  O34  1  0.72637100  0.67999400  0.05910000  1
  O  O35  1  0.97109600  0.74737300  0.31000300  1
  O  O36  1  0.17382300  0.90148800  0.54110300  1
  O  O37  1  0.91250100  0.48920700  0.26946500  1
  O  O38  1  0.32783500  0.73313000  0.68923400  1
  O  O39  1  0.52368100  0.86458400  0.93665100  1
  O  O40  1  0.47310900  0.19859400  0.91138300  1
  O  O41  1  0.20939600  0.38307500  0.64968100  1
  O  O42  1  0.88303900  0.09573000  0.32571000  1
  O  O43  1  0.59438800  0.36654500  0.05892600  1
  O  O44  1  0.40561200  0.63345500  0.94107400  1
  O  O45  1  0.11696100  0.90427000  0.67429000  1
  O  O46  1  0.79060400  0.61692500  0.35031900  1
  O  O47  1  0.52689100  0.80140600  0.08861700  1
  O  O48  1  0.47631900  0.13541600  0.06334900  1
  O  O49  1  0.67216500  0.26687000  0.31076600  1
  O  O50  1  0.08749900  0.51079300  0.73053500  1
  O  O51  1  0.82617700  0.09851200  0.45889700  1
  O  O52  1  0.02890400  0.25262700  0.68999700  1
  O  O53  1  0.27362900  0.32000600  0.94090000  1
  O  O54  1  0.88999500  0.43490200  0.55006700  1
  O  O55  1  0.59939400  0.00743900  0.28530700  1
  O  O56  1  0.40060600  0.50743900  0.21469300  1
  O  O57  1  0.11000500  0.93490200  0.94993300  1
  O  O58  1  0.72637100  0.82000600  0.55910000  1
  O  O59  1  0.97109600  0.75262700  0.81000300  1
  O  O60  1  0.91250100  0.01079300  0.76946500  1
  O  O61  1  0.17382300  0.59851200  0.04110300  1
  O  O62  1  0.32783500  0.76687000  0.18923400  1
  O  O63  1  0.52368100  0.63541600  0.43665100  1
  O  O64  1  0.88303900  0.40427000  0.82571000  1
  O  O65  1  0.47310900  0.30140600  0.41138300  1
  O  O66  1  0.20939600  0.11692500  0.14968100  1
  O  O67  1  0.59438800  0.13345500  0.55892600  1
