# generated using pymatgen
data_Ti3Cu2Sn(PO4)6
_symmetry_space_group_name_H-M   'P 1'
_cell_length_a   8.68633362
_cell_length_b   8.68633362
_cell_length_c   21.34930980
_cell_angle_alpha   90.00000000
_cell_angle_beta   90.00000000
_cell_angle_gamma   120.00000000
_symmetry_Int_Tables_number   1
_chemical_formula_structural   Ti3Cu2Sn(PO4)6
_chemical_formula_sum   'Ti9 Cu6 Sn3 P18 O72'
_cell_volume   1395.04263936
_cell_formula_units_Z   3
loop_
 _symmetry_equiv_pos_site_id
 _symmetry_equiv_pos_as_xyz
  1  'x, y, z'
loop_
 _atom_site_type_symbol
 _atom_site_label
 _atom_site_symmetry_multiplicity
 _atom_site_fract_x
 _atom_site_fract_y
 _atom_site_fract_z
 _atom_site_occupancy
  Ti  Ti0  1  0.00000000  0.00000000  0.14149500  1
  Ti  Ti1  1  0.33333333  0.66666667  0.02430767  1
  Ti  Ti2  1  0.33333333  0.66666667  0.30824967  1
  Ti  Ti3  1  0.66666667  0.33333333  0.47482833  1
  Ti  Ti4  1  0.00000000  0.00000000  0.35764100  1
  Ti  Ti5  1  0.00000000  0.00000000  0.64158300  1
  Ti  Ti6  1  0.33333333  0.66666667  0.80816167  1
  Ti  Ti7  1  0.66666667  0.33333333  0.69097433  1
  Ti  Ti8  1  0.66666667  0.33333333  0.97491633  1
  Cu  Cu9  1  0.00000000  0.00000000  0.00377600  1
  Cu  Cu10  1  0.33333333  0.66666667  0.16660467  1
  Cu  Cu11  1  0.66666667  0.33333333  0.33710933  1
  Cu  Cu12  1  0.00000000  0.00000000  0.49993800  1
  Cu  Cu13  1  0.33333333  0.66666667  0.67044267  1
  Cu  Cu14  1  0.66666667  0.33333333  0.83327133  1
  Sn  Sn15  1  0.66666667  0.33333333  0.19073333  1
  Sn  Sn16  1  0.33333333  0.66666667  0.52406667  1
  Sn  Sn17  1  0.00000000  0.00000000  0.85740000  1
  P  P18  1  0.66647900  0.62554800  0.08211700  1
  P  P19  1  0.00200200  0.71335700  0.25017300  1
  P  P20  1  0.28664300  0.28864500  0.25017300  1
  P  P21  1  0.71135500  0.99799800  0.25017300  1
  P  P22  1  0.95906900  0.33352100  0.08211700  1
  P  P23  1  0.37445200  0.04093100  0.08211700  1
  P  P24  1  0.33314567  0.95888133  0.41545033  1
  P  P25  1  0.66866867  0.04669033  0.58350633  1
  P  P26  1  0.95330967  0.62197833  0.58350633  1
  P  P27  1  0.37802167  0.33133133  0.58350633  1
  P  P28  1  0.62573567  0.66685433  0.41545033  1
  P  P29  1  0.04111867  0.37426433  0.41545033  1
  P  P30  1  0.99981233  0.29221467  0.74878367  1
  P  P31  1  0.33533533  0.38002367  0.91683967  1
  P  P32  1  0.61997633  0.95531167  0.91683967  1
  P  P33  1  0.04468833  0.66466467  0.91683967  1
  P  P34  1  0.29240233  0.00018767  0.74878367  1
  P  P35  1  0.70778533  0.70759767  0.74878367  1
  O  O36  1  0.81578267  0.00345133  0.30884233  1
  O  O37  1  0.99654867  0.81233133  0.30884233  1
  O  O38  1  0.97823167  0.16563633  0.08143333  1
  O  O39  1  0.18766867  0.18421733  0.30884233  1
  O  O40  1  0.87143200  0.34341300  0.14297900  1
  O  O41  1  0.14680367  0.50025333  0.08240633  1
  O  O42  1  0.18740467  0.02176833  0.08143333  1
  O  O43  1  0.35344967  0.85319633  0.08240633  1
  O  O44  1  0.00688367  0.81615633  0.19087633  1
  O  O45  1  0.49974667  0.64655033  0.08240633  1
  O  O46  1  0.83397500  0.52540700  0.25401900  1
  O  O47  1  0.18384367  0.19072733  0.19087633  1
  O  O48  1  0.47198100  0.12856800  0.14297900  1
  O  O49  1  0.83436367  0.81259533  0.08143333  1
  O  O50  1  0.16926633  0.69230467  0.24901767  1
  O  O51  1  0.65658700  0.52801900  0.14297900  1
  O  O52  1  0.30769533  0.47696167  0.24901767  1
  O  O53  1  0.47459300  0.30856800  0.25401900  1
  O  O54  1  0.52303833  0.83073367  0.24901767  1
  O  O55  1  0.80927267  0.99311633  0.19087633  1
  O  O56  1  0.47628367  0.15015033  0.02419133  1
  O  O57  1  0.69143200  0.16602500  0.25401900  1
  O  O58  1  0.67386667  0.52371633  0.02419133  1
  O  O59  1  0.84984967  0.32613333  0.02419133  1
  O  O60  1  0.48244933  0.33678467  0.64217567  1
  O  O61  1  0.66321533  0.14566467  0.64217567  1
  O  O62  1  0.64489833  0.49896967  0.41476667  1
  O  O63  1  0.85433533  0.51755067  0.64217567  1
  O  O64  1  0.53809867  0.67674633  0.47631233  1
  O  O65  1  0.81347033  0.83358667  0.41573967  1
  O  O66  1  0.85407133  0.35510167  0.41476667  1
  O  O67  1  0.02011633  0.18652967  0.41573967  1
  O  O68  1  0.67355033  0.14948967  0.52420967  1
  O  O69  1  0.16641333  0.97988367  0.41573967  1
  O  O70  1  0.50064167  0.85874033  0.58735233  1
  O  O71  1  0.85051033  0.52406067  0.52420967  1
  O  O72  1  0.13864767  0.46190133  0.47631233  1
  O  O73  1  0.50103033  0.14592867  0.41476667  1
  O  O74  1  0.83593300  0.02563800  0.58235100  1
  O  O75  1  0.32325367  0.86135233  0.47631233  1
  O  O76  1  0.97436200  0.81029500  0.58235100  1
  O  O77  1  0.14125967  0.64190133  0.58735233  1
  O  O78  1  0.18970500  0.16406700  0.58235100  1
  O  O79  1  0.47593933  0.32644967  0.52420967  1
  O  O80  1  0.14295033  0.48348367  0.35752467  1
  O  O81  1  0.35809867  0.49935833  0.58735233  1
  O  O82  1  0.34053333  0.85704967  0.35752467  1
  O  O83  1  0.51651633  0.65946667  0.35752467  1
  O  O84  1  0.14911600  0.67011800  0.97550900  1
  O  O85  1  0.32988200  0.47899800  0.97550900  1
  O  O86  1  0.31156500  0.83230300  0.74810000  1
  O  O87  1  0.52100200  0.85088400  0.97550900  1
  O  O88  1  0.20476533  0.01007967  0.80964567  1
  O  O89  1  0.48013700  0.16692000  0.74907300  1
  O  O90  1  0.52073800  0.68843500  0.74810000  1
  O  O91  1  0.68678300  0.51986300  0.74907300  1
  O  O92  1  0.34021700  0.48282300  0.85754300  1
  O  O93  1  0.83308000  0.31321700  0.74907300  1
  O  O94  1  0.16730833  0.19207367  0.92068567  1
  O  O95  1  0.51717700  0.85739400  0.85754300  1
  O  O96  1  0.80531433  0.79523467  0.80964567  1
  O  O97  1  0.16769700  0.47926200  0.74810000  1
  O  O98  1  0.50259967  0.35897133  0.91568433  1
  O  O99  1  0.98992033  0.19468567  0.80964567  1
  O  O100  1  0.64102867  0.14362833  0.91568433  1
  O  O101  1  0.80792633  0.97523467  0.92068567  1
  O  O102  1  0.85637167  0.49740033  0.91568433  1
  O  O103  1  0.14260600  0.65978300  0.85754300  1
  O  O104  1  0.80961700  0.81681700  0.69085800  1
  O  O105  1  0.02476533  0.83269167  0.92068567  1
  O  O106  1  0.00720000  0.19038300  0.69085800  1
  O  O107  1  0.18318300  0.99280000  0.69085800  1
