# generated using pymatgen
data_LiMn2OF3
_symmetry_space_group_name_H-M   'P 1'
_cell_length_a   6.24572426
_cell_length_b   6.38033553
_cell_length_c   9.09444392
_cell_angle_alpha   90.00000000
_cell_angle_beta   90.00000000
_cell_angle_gamma   90.00000000
_symmetry_Int_Tables_number   1
_chemical_formula_structural   LiMn2OF3
_chemical_formula_sum   'Li4 Mn8 O4 F12'
_cell_volume   362.41192010
_cell_formula_units_Z   4
loop_
 _symmetry_equiv_pos_site_id
 _symmetry_equiv_pos_as_xyz
  1  'x, y, z'
loop_
 _atom_site_type_symbol
 _atom_site_label
 _atom_site_symmetry_multiplicity
 _atom_site_fract_x
 _atom_site_fract_y
 _atom_site_fract_z
 _atom_site_occupancy
  Li  Li0  1  0.75000000  0.46455700  0.60377850  1
  Li  Li1  1  0.25000000  0.53544300  0.39622150  1
  Li  Li2  1  0.25000000  0.03544300  0.10377850  1
  Li  Li3  1  0.75000000  0.96455700  0.89622150  1
  Mn  Mn4  1  0.50000000  0.00000000  0.50000000  1
  Mn  Mn5  1  0.00000000  0.50000000  0.00000000  1
  Mn  Mn6  1  0.00000000  0.00000000  0.50000000  1
  Mn  Mn7  1  0.50000000  0.50000000  0.00000000  1
  Mn  Mn8  1  0.75000000  0.75632900  0.23412850  1
  Mn  Mn9  1  0.75000000  0.25632900  0.26587150  1
  Mn  Mn10  1  0.25000000  0.74367100  0.73412850  1
  Mn  Mn11  1  0.25000000  0.24367100  0.76587150  1
  O  O12  1  0.75000000  0.20332800  0.48643850  1
  O  O13  1  0.25000000  0.79667200  0.51356150  1
  O  O14  1  0.25000000  0.29667200  0.98643850  1
  O  O15  1  0.75000000  0.70332800  0.01356150  1
  F  F16  1  0.75000000  0.73611800  0.47513550  1
  F  F17  1  0.25000000  0.26388200  0.52486450  1
  F  F18  1  0.25000000  0.76388200  0.97513550  1
  F  F19  1  0.75000000  0.23611800  0.02486450  1
  F  F20  1  0.99529250  0.50037200  0.25675350  1
  F  F21  1  0.50470750  0.50037200  0.25675350  1
  F  F22  1  0.99529250  0.00037200  0.24324650  1
  F  F23  1  0.50470750  0.00037200  0.24324650  1
  F  F24  1  0.49529250  0.99962800  0.75675350  1
  F  F25  1  0.00470750  0.99962800  0.75675350  1
  F  F26  1  0.00470750  0.49962800  0.74324650  1
  F  F27  1  0.49529250  0.49962800  0.74324650  1
