# generated using pymatgen
data_Ba3Y2F12
_symmetry_space_group_name_H-M   'P 1'
_cell_length_a   10.76766500
_cell_length_b   10.42315300
_cell_length_c   15.07725754
_cell_angle_alpha   90.00000000
_cell_angle_beta   134.17616849
_cell_angle_gamma   90.00000000
_symmetry_Int_Tables_number   1
_chemical_formula_structural   Ba3Y2F12
_chemical_formula_sum   'Ba12 Y8 F48'
_cell_volume   1213.62244370
_cell_formula_units_Z   4
loop_
 _symmetry_equiv_pos_site_id
 _symmetry_equiv_pos_as_xyz
  1  'x, y, z'
loop_
 _atom_site_type_symbol
 _atom_site_label
 _atom_site_symmetry_multiplicity
 _atom_site_fract_x
 _atom_site_fract_y
 _atom_site_fract_z
 _atom_site_occupancy
  Ba  Ba0  1  0.23001100  0.78382300  0.20193700  1
  Ba  Ba1  1  0.35393100  0.38459700  0.32836100  1
  Ba  Ba2  1  0.67161400  0.01031100  0.47881900  1
  Ba  Ba3  1  0.32838600  0.51031100  0.02118100  1
  Ba  Ba4  1  0.64606900  0.88459700  0.17163900  1
  Ba  Ba5  1  0.76998900  0.28382300  0.29806300  1
  Ba  Ba6  1  0.23001100  0.71617700  0.70193700  1
  Ba  Ba7  1  0.35393100  0.11540300  0.82836100  1
  Ba  Ba8  1  0.67161400  0.48968900  0.97881900  1
  Ba  Ba9  1  0.32838600  0.98968900  0.52118100  1
  Ba  Ba10  1  0.64606900  0.61540300  0.67163900  1
  Ba  Ba11  1  0.76998900  0.21617700  0.79806300  1
  Y  Y12  1  0.26131800  0.14654200  0.07403300  1
  Y  Y13  1  0.04008500  0.84208600  0.84238500  1
  Y  Y14  1  0.73868200  0.64654200  0.42596700  1
  Y  Y15  1  0.95991500  0.34208600  0.65761500  1
  Y  Y16  1  0.04008500  0.65791400  0.34238500  1
  Y  Y17  1  0.26131800  0.35345800  0.57403300  1
  Y  Y18  1  0.95991500  0.15791400  0.15761500  1
  Y  Y19  1  0.73868200  0.85345800  0.92596700  1
  F  F20  1  0.09874400  0.23170500  0.10235900  1
  F  F21  1  0.43239000  0.85336400  0.43359500  1
  F  F22  1  0.28200300  0.55241100  0.17095700  1
  F  F23  1  0.59839200  0.56939000  0.46922600  1
  F  F24  1  0.77515200  0.88213800  0.67951800  1
  F  F25  1  0.79509800  0.39871000  0.68346300  1
  F  F26  1  0.03908800  0.02269000  0.92513800  1
  F  F27  1  0.36047100  0.01907200  0.22239100  1
  F  F28  1  0.11297300  0.29257200  0.92896000  1
  F  F29  1  0.01569200  0.64067500  0.79802300  1
  F  F30  1  0.27325700  0.78708100  0.03511100  1
  F  F31  1  0.43753100  0.29789200  0.19550100  1
  F  F32  1  0.56246900  0.79789200  0.30449900  1
  F  F33  1  0.72674300  0.28708100  0.46488900  1
  F  F34  1  0.98430800  0.14067500  0.70197700  1
  F  F35  1  0.88702700  0.79257200  0.57104000  1
  F  F36  1  0.63952900  0.51907200  0.27760900  1
  F  F37  1  0.96091200  0.52269000  0.57486200  1
  F  F38  1  0.20490200  0.89871000  0.81653700  1
  F  F39  1  0.40160800  0.06939000  0.03077400  1
  F  F40  1  0.22484800  0.38213800  0.82048200  1
  F  F41  1  0.71799700  0.05241100  0.32904300  1
  F  F42  1  0.56761000  0.35336400  0.06640500  1
  F  F43  1  0.90125600  0.73170500  0.39764100  1
  F  F44  1  0.09874400  0.26829500  0.60235900  1
  F  F45  1  0.43239000  0.64663600  0.93359500  1
  F  F46  1  0.28200300  0.94758900  0.67095700  1
  F  F47  1  0.77515200  0.61786200  0.17951800  1
  F  F48  1  0.59839200  0.93061000  0.96922600  1
  F  F49  1  0.79509800  0.10129000  0.18346300  1
  F  F50  1  0.03908800  0.47731000  0.42513800  1
  F  F51  1  0.36047100  0.48092800  0.72239100  1
  F  F52  1  0.11297300  0.20742800  0.42896000  1
  F  F53  1  0.01569200  0.85932500  0.29802300  1
  F  F54  1  0.27325700  0.71291900  0.53511100  1
  F  F55  1  0.43753100  0.20210800  0.69550100  1
  F  F56  1  0.56246900  0.70210800  0.80449900  1
  F  F57  1  0.72674300  0.21291900  0.96488900  1
  F  F58  1  0.98430800  0.35932500  0.20197700  1
  F  F59  1  0.88702700  0.70742800  0.07104000  1
  F  F60  1  0.63952900  0.98092800  0.77760900  1
  F  F61  1  0.96091200  0.97731000  0.07486200  1
  F  F62  1  0.20490200  0.60129000  0.31653700  1
  F  F63  1  0.22484800  0.11786200  0.32048200  1
  F  F64  1  0.40160800  0.43061000  0.53077400  1
  F  F65  1  0.71799700  0.44758900  0.82904300  1
  F  F66  1  0.56761000  0.14663600  0.56640500  1
  F  F67  1  0.90125600  0.76829500  0.89764100  1
