# generated using pymatgen
data_P3H4N5Cl4
_symmetry_space_group_name_H-M   'P 1'
_cell_length_a   8.45642300
_cell_length_b   23.62587500
_cell_length_c   11.66127065
_cell_angle_alpha   90.00000000
_cell_angle_beta   104.40956691
_cell_angle_gamma   90.00000000
_symmetry_Int_Tables_number   1
_chemical_formula_structural   P3H4N5Cl4
_chemical_formula_sum   'P24 H32 N40 Cl32'
_cell_volume   2256.51780637
_cell_formula_units_Z   8
loop_
 _symmetry_equiv_pos_site_id
 _symmetry_equiv_pos_as_xyz
  1  'x, y, z'
loop_
 _atom_site_type_symbol
 _atom_site_label
 _atom_site_symmetry_multiplicity
 _atom_site_fract_x
 _atom_site_fract_y
 _atom_site_fract_z
 _atom_site_occupancy
  P  P0  1  0.69264200  0.86293500  0.49048700  1
  P  P1  1  0.30735800  0.36293500  0.00951300  1
  P  P2  1  0.30735800  0.13706500  0.50951300  1
  P  P3  1  0.69264200  0.63706500  0.99048700  1
  P  P4  1  0.50307300  0.78122300  0.34071600  1
  P  P5  1  0.49692700  0.28122300  0.15928400  1
  P  P6  1  0.49692700  0.21877700  0.65928400  1
  P  P7  1  0.50307300  0.71877700  0.84071600  1
  P  P8  1  0.80787100  0.80851200  0.31434400  1
  P  P9  1  0.19212900  0.30851200  0.18565600  1
  P  P10  1  0.19212900  0.19148800  0.68565600  1
  P  P11  1  0.80787100  0.69148800  0.81434400  1
  P  P12  1  0.77146900  0.08165800  0.38873200  1
  P  P13  1  0.22853100  0.58165800  0.11126800  1
  P  P14  1  0.22853100  0.91834200  0.61126800  1
  P  P15  1  0.77146900  0.41834200  0.88873200  1
  P  P16  1  0.84944900  0.05288500  0.17383100  1
  P  P17  1  0.15055100  0.55288500  0.32616900  1
  P  P18  1  0.15055100  0.94711500  0.82616900  1
  P  P19  1  0.84944900  0.44711500  0.67383100  1
  P  P20  1  0.54609600  0.02650400  0.20119600  1
  P  P21  1  0.45390400  0.52650400  0.29880400  1
  P  P22  1  0.45390400  0.97349600  0.79880400  1
  P  P23  1  0.54609600  0.47349600  0.70119600  1
  H  H24  1  0.62724600  0.95504000  0.43214400  1
  H  H25  1  0.37275400  0.45504000  0.06785600  1
  H  H26  1  0.37275400  0.04496000  0.56785600  1
  H  H27  1  0.62724600  0.54496000  0.93214400  1
  H  H28  1  0.59781200  0.94010600  0.56718100  1
  H  H29  1  0.40218800  0.44010600  0.93281900  1
  H  H30  1  0.40218800  0.05989400  0.43281900  1
  H  H31  1  0.59781200  0.55989400  0.06718100  1
  H  H32  1  0.72007700  0.80861200  0.66171900  1
  H  H33  1  0.27992300  0.30861200  0.83828100  1
  H  H34  1  0.27992300  0.19138800  0.33828100  1
  H  H35  1  0.72007700  0.69138800  0.16171900  1
  H  H36  1  0.87772300  0.85834500  0.67265200  1
  H  H37  1  0.12227700  0.35834500  0.82734800  1
  H  H38  1  0.12227700  0.14165500  0.32734800  1
  H  H39  1  0.87772300  0.64165500  0.17265200  1
  H  H40  1  0.95062700  0.07725300  0.56966500  1
  H  H41  1  0.04937300  0.57725300  0.93033500  1
  H  H42  1  0.04937300  0.92274700  0.43033500  1
  H  H43  1  0.95062700  0.42274700  0.06966500  1
  H  H44  1  0.84073500  0.01474500  0.53974900  1
  H  H45  1  0.15926500  0.51474500  0.96025100  1
  H  H46  1  0.15926500  0.98525500  0.46025100  1
  H  H47  1  0.84073500  0.48525500  0.03974900  1
  H  H48  1  0.74266200  0.17686300  0.34811300  1
  H  H49  1  0.25733800  0.67686300  0.15188700  1
  H  H50  1  0.25733800  0.82313700  0.65188700  1
  H  H51  1  0.74266200  0.32313700  0.84811300  1
  H  H52  1  0.67789200  0.15969200  0.47252500  1
  H  H53  1  0.32210800  0.65969200  0.02747500  1
  H  H54  1  0.32210800  0.84030800  0.52747500  1
  H  H55  1  0.67789200  0.34030800  0.97252500  1
  N  N56  1  0.81292700  0.86024800  0.40088300  1
  N  N57  1  0.18707300  0.36024800  0.09911700  1
  N  N58  1  0.18707300  0.13975200  0.59911700  1
  N  N59  1  0.81292700  0.63975200  0.90088300  1
  N  N60  1  0.52408500  0.82652700  0.44272100  1
  N  N61  1  0.47591500  0.32652700  0.05727900  1
  N  N62  1  0.47591500  0.17347300  0.55727900  1
  N  N63  1  0.52408500  0.67347300  0.94272100  1
  N  N64  1  0.64947100  0.76860500  0.27969600  1
  N  N65  1  0.35052900  0.26860500  0.22030400  1
  N  N66  1  0.35052900  0.23139500  0.72030400  1
  N  N67  1  0.64947100  0.73139500  0.77969600  1
  N  N68  1  0.66478700  0.93119100  0.50710500  1
  N  N69  1  0.33521300  0.43119100  0.99289500  1
  N  N70  1  0.33521300  0.06880900  0.49289500  1
  N  N71  1  0.66478700  0.56880900  0.00710500  1
  N  N72  1  0.77197500  0.84056400  0.62509000  1
  N  N73  1  0.22802500  0.34056400  0.87491000  1
  N  N74  1  0.22802500  0.15943600  0.37491000  1
  N  N75  1  0.77197500  0.65943600  0.12509000  1
  N  N76  1  0.60720800  0.04326600  0.33711500  1
  N  N77  1  0.39279200  0.54326600  0.16288500  1
  N  N78  1  0.39279200  0.95673400  0.66288500  1
  N  N79  1  0.60720800  0.45673400  0.83711500  1
  N  N80  1  0.89244300  0.08256800  0.29903000  1
  N  N81  1  0.10755700  0.58256800  0.20097000  1
  N  N82  1  0.10755700  0.91743200  0.70097000  1
  N  N83  1  0.89244300  0.41743200  0.79903000  1
  N  N84  1  0.66961900  0.02971100  0.11778900  1
  N  N85  1  0.33038100  0.52971100  0.38221100  1
  N  N86  1  0.33038100  0.97028900  0.88221100  1
  N  N87  1  0.66961900  0.47028900  0.61778900  1
  N  N88  1  0.84821200  0.05693200  0.52266600  1
  N  N89  1  0.15178800  0.55693200  0.97733400  1
  N  N90  1  0.15178800  0.94306800  0.47733400  1
  N  N91  1  0.84821200  0.44306800  0.02266600  1
  N  N92  1  0.74661700  0.14887500  0.41491700  1
  N  N93  1  0.25338300  0.64887500  0.08508300  1
  N  N94  1  0.25338300  0.85112500  0.58508300  1
  N  N95  1  0.74661700  0.35112500  0.91491700  1
  Cl  Cl96  1  0.30152100  0.79926000  0.20848000  1
  Cl  Cl97  1  0.69847900  0.29926000  0.29152000  1
  Cl  Cl98  1  0.69847900  0.20074000  0.79152000  1
  Cl  Cl99  1  0.30152100  0.70074000  0.70848000  1
  Cl  Cl100  1  0.43385500  0.70601400  0.39699600  1
  Cl  Cl101  1  0.56614500  0.20601400  0.10300400  1
  Cl  Cl102  1  0.56614500  0.29398600  0.60300400  1
  Cl  Cl103  1  0.43385500  0.79398600  0.89699600  1
  Cl  Cl104  1  0.00046700  0.75564700  0.37345900  1
  Cl  Cl105  1  0.99953300  0.25564700  0.12654100  1
  Cl  Cl106  1  0.99953300  0.24435300  0.62654100  1
  Cl  Cl107  1  0.00046700  0.74435300  0.87345900  1
  Cl  Cl108  1  0.85262400  0.83822700  0.16317600  1
  Cl  Cl109  1  0.14737600  0.33822700  0.33682400  1
  Cl  Cl110  1  0.14737600  0.16177300  0.83682400  1
  Cl  Cl111  1  0.85262400  0.66177300  0.66317600  1
  Cl  Cl112  1  0.90465400  0.10709100  0.05405300  1
  Cl  Cl113  1  0.09534600  0.60709100  0.44594700  1
  Cl  Cl114  1  0.09534600  0.89290900  0.94594700  1
  Cl  Cl115  1  0.90465400  0.39290900  0.55405300  1
  Cl  Cl116  1  0.00867700  0.98906900  0.17038300  1
  Cl  Cl117  1  0.99132300  0.48906900  0.32961700  1
  Cl  Cl118  1  0.99132300  0.01093100  0.82961700  1
  Cl  Cl119  1  0.00867700  0.51093100  0.67038300  1
  Cl  Cl120  1  0.34474200  0.07131300  0.12095400  1
  Cl  Cl121  1  0.65525800  0.57131300  0.37904600  1
  Cl  Cl122  1  0.65525800  0.92868700  0.87904600  1
  Cl  Cl123  1  0.34474200  0.42868700  0.62095400  1
  Cl  Cl124  1  0.45425700  0.94705000  0.19322900  1
  Cl  Cl125  1  0.54574300  0.44705000  0.30677100  1
  Cl  Cl126  1  0.54574300  0.05295000  0.80677100  1
  Cl  Cl127  1  0.45425700  0.55295000  0.69322900  1
