# generated using pymatgen
data_Li3CuS2
_symmetry_space_group_name_H-M   'P 1'
_cell_length_a   7.89774400
_cell_length_b   7.89774400
_cell_length_c   11.98714800
_cell_angle_alpha   90.00000000
_cell_angle_beta   90.00000000
_cell_angle_gamma   90.00000000
_symmetry_Int_Tables_number   1
_chemical_formula_structural   Li3CuS2
_chemical_formula_sum   'Li24 Cu8 S16'
_cell_volume   747.69068820
_cell_formula_units_Z   8
loop_
 _symmetry_equiv_pos_site_id
 _symmetry_equiv_pos_as_xyz
  1  'x, y, z'
loop_
 _atom_site_type_symbol
 _atom_site_label
 _atom_site_symmetry_multiplicity
 _atom_site_fract_x
 _atom_site_fract_y
 _atom_site_fract_z
 _atom_site_occupancy
  Li  Li0  1  0.28764200  0.71235800  0.00000000  1
  Li  Li1  1  0.00000000  0.75000000  0.12500000  1
  Li  Li2  1  0.00000000  0.25000000  0.12500000  1
  Li  Li3  1  0.71235800  0.71235800  0.00000000  1
  Li  Li4  1  0.71235800  0.28764200  0.00000000  1
  Li  Li5  1  0.71235800  0.21235800  0.25000000  1
  Li  Li6  1  0.25000000  0.50000000  0.37500000  1
  Li  Li7  1  0.75000000  0.50000000  0.37500000  1
  Li  Li8  1  0.28764200  0.78764200  0.25000000  1
  Li  Li9  1  0.28764200  0.21235800  0.25000000  1
  Li  Li10  1  0.78764200  0.78764200  0.50000000  1
  Li  Li11  1  0.71235800  0.78764200  0.25000000  1
  Li  Li12  1  0.78764200  0.21235800  0.50000000  1
  Li  Li13  1  0.50000000  0.25000000  0.62500000  1
  Li  Li14  1  0.50000000  0.75000000  0.62500000  1
  Li  Li15  1  0.21235800  0.21235800  0.50000000  1
  Li  Li16  1  0.21235800  0.78764200  0.50000000  1
  Li  Li17  1  0.21235800  0.71235800  0.75000000  1
  Li  Li18  1  0.75000000  0.00000000  0.87500000  1
  Li  Li19  1  0.25000000  0.00000000  0.87500000  1
  Li  Li20  1  0.78764200  0.28764200  0.75000000  1
  Li  Li21  1  0.78764200  0.71235800  0.75000000  1
  Li  Li22  1  0.28764200  0.28764200  0.00000000  1
  Li  Li23  1  0.21235800  0.28764200  0.75000000  1
  Cu  Cu24  1  0.00000000  0.00000000  0.35246300  1
  Cu  Cu25  1  0.50000000  0.50000000  0.14753700  1
  Cu  Cu26  1  0.50000000  0.00000000  0.10246300  1
  Cu  Cu27  1  0.50000000  0.00000000  0.39753700  1
  Cu  Cu28  1  0.50000000  0.50000000  0.85246300  1
  Cu  Cu29  1  0.00000000  0.00000000  0.64753700  1
  Cu  Cu30  1  0.00000000  0.50000000  0.60246300  1
  Cu  Cu31  1  0.00000000  0.50000000  0.89753700  1
  S  S32  1  0.50000000  0.27034950  0.39473750  1
  S  S33  1  0.00000000  0.27034950  0.35526250  1
  S  S34  1  0.22965050  0.00000000  0.10526250  1
  S  S35  1  0.22965050  0.50000000  0.14473750  1
  S  S36  1  0.77034950  0.00000000  0.10526250  1
  S  S37  1  0.77034950  0.50000000  0.14473750  1
  S  S38  1  0.00000000  0.72965050  0.35526250  1
  S  S39  1  0.50000000  0.72965050  0.39473750  1
  S  S40  1  0.00000000  0.77034950  0.89473750  1
  S  S41  1  0.50000000  0.77034950  0.85526250  1
  S  S42  1  0.72965050  0.50000000  0.60526250  1
  S  S43  1  0.72965050  0.00000000  0.64473750  1
  S  S44  1  0.27034950  0.50000000  0.60526250  1
  S  S45  1  0.27034950  0.00000000  0.64473750  1
  S  S46  1  0.50000000  0.22965050  0.85526250  1
  S  S47  1  0.00000000  0.22965050  0.89473750  1
