# generated using pymatgen
data_K2PtS2
_symmetry_space_group_name_H-M   'P 1'
_cell_length_a   3.65681400
_cell_length_b   7.15184800
_cell_length_c   9.57235000
_cell_angle_alpha   90.00000000
_cell_angle_beta   90.00000000
_cell_angle_gamma   90.00000000
_symmetry_Int_Tables_number   1
_chemical_formula_structural   K2PtS2
_chemical_formula_sum   'K4 Pt2 S4'
_cell_volume   250.34545793
_cell_formula_units_Z   2
loop_
 _symmetry_equiv_pos_site_id
 _symmetry_equiv_pos_as_xyz
  1  'x, y, z'
loop_
 _atom_site_type_symbol
 _atom_site_label
 _atom_site_symmetry_multiplicity
 _atom_site_fract_x
 _atom_site_fract_y
 _atom_site_fract_z
 _atom_site_occupancy
  K  K0  1  0.00000000  0.50000000  0.19431500  1
  K  K1  1  0.00000000  0.50000000  0.80568500  1
  K  K2  1  0.50000000  0.00000000  0.69431500  1
  K  K3  1  0.50000000  0.00000000  0.30568500  1
  Pt  Pt4  1  0.00000000  0.00000000  0.00000000  1
  Pt  Pt5  1  0.50000000  0.50000000  0.50000000  1
  S  S6  1  0.50000000  0.78520700  0.00000000  1
  S  S7  1  0.50000000  0.21479300  0.00000000  1
  S  S8  1  0.00000000  0.28520700  0.50000000  1
  S  S9  1  0.00000000  0.71479300  0.50000000  1
