# generated using pymatgen
data_Mn3NiO4
_symmetry_space_group_name_H-M   'P 1'
_cell_length_a   6.26074041
_cell_length_b   8.86985200
_cell_length_c   3.14062467
_cell_angle_alpha   90.00000000
_cell_angle_beta   90.00000000
_cell_angle_gamma   90.00000000
_symmetry_Int_Tables_number   1
_chemical_formula_structural   Mn3NiO4
_chemical_formula_sum   'Mn6 Ni2 O8'
_cell_volume   174.40466926
_cell_formula_units_Z   2
loop_
 _symmetry_equiv_pos_site_id
 _symmetry_equiv_pos_as_xyz
  1  'x, y, z'
loop_
 _atom_site_type_symbol
 _atom_site_label
 _atom_site_symmetry_multiplicity
 _atom_site_fract_x
 _atom_site_fract_y
 _atom_site_fract_z
 _atom_site_occupancy
  Mn  Mn0  1  0.50000000  0.00000000  0.00000000  1
  Mn  Mn1  1  0.25000000  0.25000000  0.50000000  1
  Mn  Mn2  1  0.25000000  0.75000000  0.50000000  1
  Mn  Mn3  1  0.00000000  0.50000000  0.00000000  1
  Mn  Mn4  1  0.75000000  0.75000000  0.50000000  1
  Mn  Mn5  1  0.75000000  0.25000000  0.50000000  1
  Ni  Ni6  1  0.00000000  0.00000000  0.00000000  1
  Ni  Ni7  1  0.50000000  0.50000000  0.00000000  1
  O  O8  1  0.50000000  0.25311800  0.00000000  1
  O  O9  1  0.75911800  0.00000000  0.50000000  1
  O  O10  1  0.24088200  0.00000000  0.50000000  1
  O  O11  1  0.50000000  0.74688200  0.00000000  1
  O  O12  1  0.00000000  0.75311800  0.00000000  1
  O  O13  1  0.25911800  0.50000000  0.50000000  1
  O  O14  1  0.74088200  0.50000000  0.50000000  1
  O  O15  1  0.00000000  0.24688200  0.00000000  1
