# generated using pymatgen
data_Li2VP2O7
_symmetry_space_group_name_H-M   'P 1'
_cell_length_a   7.30528200
_cell_length_b   12.94481600
_cell_length_c   11.68354093
_cell_angle_alpha   90.00000000
_cell_angle_beta   92.81275933
_cell_angle_gamma   90.00000000
_symmetry_Int_Tables_number   1
_chemical_formula_structural   Li2VP2O7
_chemical_formula_sum   'Li16 V8 P16 O56'
_cell_volume   1103.52915792
_cell_formula_units_Z   8
loop_
 _symmetry_equiv_pos_site_id
 _symmetry_equiv_pos_as_xyz
  1  'x, y, z'
loop_
 _atom_site_type_symbol
 _atom_site_label
 _atom_site_symmetry_multiplicity
 _atom_site_fract_x
 _atom_site_fract_y
 _atom_site_fract_z
 _atom_site_occupancy
  Li  Li0  1  0.51691950  0.78253950  0.50653300  1
  Li  Li1  1  0.01691950  0.71746050  0.00653300  1
  Li  Li2  1  0.50000000  0.77626400  0.75000000  1
  Li  Li3  1  0.00000000  0.71199600  0.75000000  1
  Li  Li4  1  0.50000000  0.78800400  0.25000000  1
  Li  Li5  1  0.00000000  0.72373600  0.25000000  1
  Li  Li6  1  0.48308050  0.78253950  0.99346700  1
  Li  Li7  1  0.98308050  0.71746050  0.49346700  1
  Li  Li8  1  0.01691950  0.28253950  0.50653300  1
  Li  Li9  1  0.51691950  0.21746050  0.00653300  1
  Li  Li10  1  0.00000000  0.27626400  0.75000000  1
  Li  Li11  1  0.50000000  0.21199600  0.75000000  1
  Li  Li12  1  0.00000000  0.28800400  0.25000000  1
  Li  Li13  1  0.50000000  0.22373600  0.25000000  1
  Li  Li14  1  0.98308050  0.28253950  0.99346700  1
  Li  Li15  1  0.48308050  0.21746050  0.49346700  1
  V  V16  1  0.66919300  0.99596900  0.61065900  1
  V  V17  1  0.16919300  0.50403100  0.11065900  1
  V  V18  1  0.33080700  0.99596900  0.88934100  1
  V  V19  1  0.83080700  0.50403100  0.38934100  1
  V  V20  1  0.16919300  0.49596900  0.61065900  1
  V  V21  1  0.66919300  0.00403100  0.11065900  1
  V  V22  1  0.83080700  0.49596900  0.88934100  1
  V  V23  1  0.33080700  0.00403100  0.38934100  1
  P  P24  1  0.32269600  0.60406500  0.87037300  1
  P  P25  1  0.82269600  0.89593500  0.37037300  1
  P  P26  1  0.78885000  0.88586500  0.86223100  1
  P  P27  1  0.28885000  0.61413500  0.36223100  1
  P  P28  1  0.21115000  0.88586500  0.63776900  1
  P  P29  1  0.71115000  0.61413500  0.13776900  1
  P  P30  1  0.67730400  0.60406500  0.62962700  1
  P  P31  1  0.17730400  0.89593500  0.12962700  1
  P  P32  1  0.82269600  0.10406500  0.87037300  1
  P  P33  1  0.32269600  0.39593500  0.37037300  1
  P  P34  1  0.28885000  0.38586500  0.86223100  1
  P  P35  1  0.78885000  0.11413500  0.36223100  1
  P  P36  1  0.71115000  0.38586500  0.63776900  1
  P  P37  1  0.21115000  0.11413500  0.13776900  1
  P  P38  1  0.17730400  0.10406500  0.62962700  1
  P  P39  1  0.67730400  0.39593500  0.12962700  1
  O  O40  1  0.92057700  0.98874600  0.87494300  1
  O  O41  1  0.42057700  0.51125400  0.37494300  1
  O  O42  1  0.21355200  0.61511600  0.97953500  1
  O  O43  1  0.71355200  0.88488400  0.47953500  1
  O  O44  1  0.69948300  0.88260500  0.74050900  1
  O  O45  1  0.19948300  0.61739500  0.24050900  1
  O  O46  1  0.19522900  0.60272700  0.76145700  1
  O  O47  1  0.69522900  0.89727300  0.26145700  1
  O  O48  1  0.63765800  0.90463300  0.95057200  1
  O  O49  1  0.13765800  0.59536700  0.45057200  1
  O  O50  1  0.08993900  0.79312700  0.61700900  1
  O  O51  1  0.58993900  0.70687300  0.11700900  1
  O  O52  1  0.52187850  0.68082450  0.62846000  1
  O  O53  1  0.02187850  0.81917550  0.12846000  1
  O  O54  1  0.47812150  0.68082450  0.87154000  1
  O  O55  1  0.97812150  0.81917550  0.37154000  1
  O  O56  1  0.91006100  0.79312700  0.88299100  1
  O  O57  1  0.41006100  0.70687300  0.38299100  1
  O  O58  1  0.36234200  0.90463300  0.54942800  1
  O  O59  1  0.86234200  0.59536700  0.04942800  1
  O  O60  1  0.80477100  0.60272700  0.73854300  1
  O  O61  1  0.30477100  0.89727300  0.23854300  1
  O  O62  1  0.30051700  0.88260500  0.75949100  1
  O  O63  1  0.80051700  0.61739500  0.25949100  1
  O  O64  1  0.78644800  0.61511600  0.52046500  1
  O  O65  1  0.28644800  0.88488400  0.02046500  1
  O  O66  1  0.07942300  0.98874600  0.62505700  1
  O  O67  1  0.57942300  0.51125400  0.12505700  1
  O  O68  1  0.42057700  0.48874600  0.87494300  1
  O  O69  1  0.92057700  0.01125400  0.37494300  1
  O  O70  1  0.71355200  0.11511600  0.97953500  1
  O  O71  1  0.21355200  0.38488400  0.47953500  1
  O  O72  1  0.19948300  0.38260500  0.74050900  1
  O  O73  1  0.69948300  0.11739500  0.24050900  1
  O  O74  1  0.69522900  0.10272700  0.76145700  1
  O  O75  1  0.19522900  0.39727300  0.26145700  1
  O  O76  1  0.13765800  0.40463300  0.95057200  1
  O  O77  1  0.63765800  0.09536700  0.45057200  1
  O  O78  1  0.58993900  0.29312700  0.61700900  1
  O  O79  1  0.08993900  0.20687300  0.11700900  1
  O  O80  1  0.02187850  0.18082450  0.62846000  1
  O  O81  1  0.52187850  0.31917550  0.12846000  1
  O  O82  1  0.97812150  0.18082450  0.87154000  1
  O  O83  1  0.47812150  0.31917550  0.37154000  1
  O  O84  1  0.41006100  0.29312700  0.88299100  1
  O  O85  1  0.91006100  0.20687300  0.38299100  1
  O  O86  1  0.86234200  0.40463300  0.54942800  1
  O  O87  1  0.36234200  0.09536700  0.04942800  1
  O  O88  1  0.30477100  0.10272700  0.73854300  1
  O  O89  1  0.80477100  0.39727300  0.23854300  1
  O  O90  1  0.80051700  0.38260500  0.75949100  1
  O  O91  1  0.30051700  0.11739500  0.25949100  1
  O  O92  1  0.28644800  0.11511600  0.52046500  1
  O  O93  1  0.78644800  0.38488400  0.02046500  1
  O  O94  1  0.57942300  0.48874600  0.62505700  1
  O  O95  1  0.07942300  0.01125400  0.12505700  1
