# generated using pymatgen
data_Dy2P4O13
_symmetry_space_group_name_H-M   'P 1'
_cell_length_a   11.97754800
_cell_length_b   6.78864000
_cell_length_c   13.00046559
_cell_angle_alpha   90.00000000
_cell_angle_beta   106.06379437
_cell_angle_gamma   90.00000000
_symmetry_Int_Tables_number   1
_chemical_formula_structural   Dy2P4O13
_chemical_formula_sum   'Dy8 P16 O52'
_cell_volume   1015.80955529
_cell_formula_units_Z   4
loop_
 _symmetry_equiv_pos_site_id
 _symmetry_equiv_pos_as_xyz
  1  'x, y, z'
loop_
 _atom_site_type_symbol
 _atom_site_label
 _atom_site_symmetry_multiplicity
 _atom_site_fract_x
 _atom_site_fract_y
 _atom_site_fract_z
 _atom_site_occupancy
  Dy  Dy0  1  0.69178100  0.00222600  0.54998000  1
  Dy  Dy1  1  0.69178100  0.99777400  0.04998000  1
  Dy  Dy2  1  0.80821900  0.50222600  0.95002000  1
  Dy  Dy3  1  0.80821900  0.49777400  0.45002000  1
  Dy  Dy4  1  0.19178100  0.50222600  0.54998000  1
  Dy  Dy5  1  0.19178100  0.49777400  0.04998000  1
  Dy  Dy6  1  0.30821900  0.00222600  0.95002000  1
  Dy  Dy7  1  0.30821900  0.99777400  0.45002000  1
  P  P8  1  0.76673300  0.00653700  0.84033800  1
  P  P9  1  0.76673300  0.99346300  0.34033800  1
  P  P10  1  0.98847550  0.14861550  0.63396200  1
  P  P11  1  0.51152450  0.64861550  0.86603800  1
  P  P12  1  0.98847550  0.85138450  0.13396200  1
  P  P13  1  0.51152450  0.35138450  0.36603800  1
  P  P14  1  0.73326700  0.50653700  0.65966200  1
  P  P15  1  0.73326700  0.49346300  0.15966200  1
  P  P16  1  0.26673300  0.50653700  0.84033800  1
  P  P17  1  0.26673300  0.49346300  0.34033800  1
  P  P18  1  0.48847550  0.64861550  0.63396200  1
  P  P19  1  0.01152450  0.14861550  0.86603800  1
  P  P20  1  0.48847550  0.35138450  0.13396200  1
  P  P21  1  0.01152450  0.85138450  0.36603800  1
  P  P22  1  0.23326700  0.00653700  0.65966200  1
  P  P23  1  0.23326700  0.99346300  0.15966200  1
  O  O24  1  0.88736600  0.01055500  0.60291700  1
  O  O25  1  0.90302700  0.00472000  0.84680400  1
  O  O26  1  0.88736600  0.98944500  0.10291700  1
  O  O27  1  0.90302700  0.99528000  0.34680400  1
  O  O28  1  0.69935750  0.00596550  0.72408900  1
  O  O29  1  0.74931650  0.82531750  0.90507700  1
  O  O30  1  0.74407000  0.18141900  0.90670200  1
  O  O31  1  0.99562550  0.32081450  0.56024100  1
  O  O32  1  0.69935750  0.99403450  0.22408900  1
  O  O33  1  0.74931650  0.17468250  0.40507700  1
  O  O34  1  0.74407000  0.81858100  0.40670200  1
  O  O35  1  0.00000000  0.24493000  0.75000000  1
  O  O36  1  0.50437450  0.82081450  0.93975900  1
  O  O37  1  0.99562550  0.67918550  0.06024100  1
  O  O38  1  0.00000000  0.75507000  0.25000000  1
  O  O39  1  0.75593000  0.68141900  0.59329800  1
  O  O40  1  0.75068350  0.32531750  0.59492300  1
  O  O41  1  0.80064250  0.50596550  0.77591100  1
  O  O42  1  0.50437450  0.17918550  0.43975900  1
  O  O43  1  0.75593000  0.31858100  0.09329800  1
  O  O44  1  0.75068350  0.67468250  0.09492300  1
  O  O45  1  0.80064250  0.49403450  0.27591100  1
  O  O46  1  0.59697300  0.50472000  0.65319600  1
  O  O47  1  0.61263400  0.51055500  0.89708300  1
  O  O48  1  0.59697300  0.49528000  0.15319600  1
  O  O49  1  0.61263400  0.48944500  0.39708300  1
  O  O50  1  0.38736600  0.51055500  0.60291700  1
  O  O51  1  0.40302700  0.50472000  0.84680400  1
  O  O52  1  0.38736600  0.48944500  0.10291700  1
  O  O53  1  0.40302700  0.49528000  0.34680400  1
  O  O54  1  0.19935750  0.50596550  0.72408900  1
  O  O55  1  0.24931650  0.32531750  0.90507700  1
  O  O56  1  0.24407000  0.68141900  0.90670200  1
  O  O57  1  0.49562550  0.82081450  0.56024100  1
  O  O58  1  0.19935750  0.49403450  0.22408900  1
  O  O59  1  0.24931650  0.67468250  0.40507700  1
  O  O60  1  0.24407000  0.31858100  0.40670200  1
  O  O61  1  0.50000000  0.74493000  0.75000000  1
  O  O62  1  0.00437450  0.32081450  0.93975900  1
  O  O63  1  0.49562550  0.17918550  0.06024100  1
  O  O64  1  0.50000000  0.25507000  0.25000000  1
  O  O65  1  0.25593000  0.18141900  0.59329800  1
  O  O66  1  0.25068350  0.82531750  0.59492300  1
  O  O67  1  0.30064250  0.00596550  0.77591100  1
  O  O68  1  0.00437450  0.67918550  0.43975900  1
  O  O69  1  0.25593000  0.81858100  0.09329800  1
  O  O70  1  0.25068350  0.17468250  0.09492300  1
  O  O71  1  0.30064250  0.99403450  0.27591100  1
  O  O72  1  0.09697300  0.00472000  0.65319600  1
  O  O73  1  0.11263400  0.01055500  0.89708300  1
  O  O74  1  0.09697300  0.99528000  0.15319600  1
  O  O75  1  0.11263400  0.98944500  0.39708300  1
