# generated using pymatgen
data_SrCaI4
_symmetry_space_group_name_H-M   'P 1'
_cell_length_a   7.40825700
_cell_length_b   7.90118000
_cell_length_c   19.98311694
_cell_angle_alpha   90.00000000
_cell_angle_beta   111.00970946
_cell_angle_gamma   90.00000000
_symmetry_Int_Tables_number   1
_chemical_formula_structural   SrCaI4
_chemical_formula_sum   'Sr4 Ca4 I16'
_cell_volume   1091.92976650
_cell_formula_units_Z   4
loop_
 _symmetry_equiv_pos_site_id
 _symmetry_equiv_pos_as_xyz
  1  'x, y, z'
loop_
 _atom_site_type_symbol
 _atom_site_label
 _atom_site_symmetry_multiplicity
 _atom_site_fract_x
 _atom_site_fract_y
 _atom_site_fract_z
 _atom_site_occupancy
  Sr  Sr0  1  0.17194900  0.74913200  0.17899700  1
  Sr  Sr1  1  0.82805100  0.24913200  0.32100300  1
  Sr  Sr2  1  0.17194900  0.75086800  0.67899700  1
  Sr  Sr3  1  0.82805100  0.25086800  0.82100300  1
  Ca  Ca4  1  0.42749000  0.75446000  0.43523900  1
  Ca  Ca5  1  0.42749000  0.74554000  0.93523900  1
  Ca  Ca6  1  0.57251000  0.25446000  0.06476100  1
  Ca  Ca7  1  0.57251000  0.24554000  0.56476100  1
  I  I8  1  0.46972700  0.07465000  0.68907300  1
  I  I9  1  0.33046300  0.57520000  0.55993500  1
  I  I10  1  0.66953700  0.07520000  0.94006500  1
  I  I11  1  0.20136900  0.07964600  0.45120600  1
  I  I12  1  0.53027300  0.57465000  0.81092700  1
  I  I13  1  0.94346400  0.11235900  0.18484200  1
  I  I14  1  0.05653600  0.61235900  0.31515800  1
  I  I15  1  0.79863100  0.57964600  0.04879400  1
  I  I16  1  0.20136900  0.42035400  0.95120600  1
  I  I17  1  0.94346400  0.38764100  0.68484200  1
  I  I18  1  0.05653600  0.88764100  0.81515800  1
  I  I19  1  0.46972700  0.42535000  0.18907300  1
  I  I20  1  0.79863100  0.92035400  0.54879400  1
  I  I21  1  0.33046300  0.92480000  0.05993500  1
  I  I22  1  0.66953700  0.42480000  0.44006500  1
  I  I23  1  0.53027300  0.92535000  0.31092700  1
