# generated using pymatgen
data_Li3FeF6
_symmetry_space_group_name_H-M   'P 1'
_cell_length_a   8.63546845
_cell_length_b   8.63546845
_cell_length_c   10.23512900
_cell_angle_alpha   90.00000000
_cell_angle_beta   90.00000000
_cell_angle_gamma   120.00000000
_symmetry_Int_Tables_number   1
_chemical_formula_structural   Li3FeF6
_chemical_formula_sum   'Li18 Fe6 F36'
_cell_volume   660.99131980
_cell_formula_units_Z   6
loop_
 _symmetry_equiv_pos_site_id
 _symmetry_equiv_pos_as_xyz
  1  'x, y, z'
loop_
 _atom_site_type_symbol
 _atom_site_label
 _atom_site_symmetry_multiplicity
 _atom_site_fract_x
 _atom_site_fract_y
 _atom_site_fract_z
 _atom_site_occupancy
  Li  Li0  1  0.22632800  0.96082400  0.71230200  1
  Li  Li1  1  0.26550400  0.22632800  0.28769800  1
  Li  Li2  1  0.96082400  0.73449600  0.28769800  1
  Li  Li3  1  0.03917600  0.26550400  0.71230200  1
  Li  Li4  1  0.73449600  0.77367200  0.71230200  1
  Li  Li5  1  0.77367200  0.03917600  0.28769800  1
  Li  Li6  1  0.89299467  0.29415733  0.04563533  1
  Li  Li7  1  0.93217067  0.55966133  0.62103133  1
  Li  Li8  1  0.62749067  0.06782933  0.62103133  1
  Li  Li9  1  0.70584267  0.59883733  0.04563533  1
  Li  Li10  1  0.40116267  0.10700533  0.04563533  1
  Li  Li11  1  0.44033867  0.37250933  0.62103133  1
  Li  Li12  1  0.55966133  0.62749067  0.37896867  1
  Li  Li13  1  0.59883733  0.89299467  0.95436467  1
  Li  Li14  1  0.29415733  0.40116267  0.95436467  1
  Li  Li15  1  0.37250933  0.93217067  0.37896867  1
  Li  Li16  1  0.06782933  0.44033867  0.37896867  1
  Li  Li17  1  0.10700533  0.70584267  0.95436467  1
  Fe  Fe18  1  0.00000000  0.00000000  0.00000000  1
  Fe  Fe19  1  0.00000000  0.00000000  0.50000000  1
  Fe  Fe20  1  0.66666667  0.33333333  0.33333333  1
  Fe  Fe21  1  0.66666667  0.33333333  0.83333333  1
  Fe  Fe22  1  0.33333333  0.66666667  0.66666667  1
  Fe  Fe23  1  0.33333333  0.66666667  0.16666667  1
  F  F24  1  0.35842767  0.86792133  0.56296933  1
  F  F25  1  0.49050633  0.35842767  0.43703067  1
  F  F26  1  0.16698300  0.98022200  0.38160300  1
  F  F27  1  0.86792133  0.50949367  0.43703067  1
  F  F28  1  0.18676100  0.16698300  0.61839700  1
  F  F29  1  0.98022200  0.81323900  0.61839700  1
  F  F30  1  0.01977800  0.18676100  0.38160300  1
  F  F31  1  0.81323900  0.83301700  0.38160300  1
  F  F32  1  0.13207867  0.49050633  0.56296933  1
  F  F33  1  0.83301700  0.01977800  0.61839700  1
  F  F34  1  0.50949367  0.64157233  0.56296933  1
  F  F35  1  0.64157233  0.13207867  0.43703067  1
  F  F36  1  0.02509433  0.20125467  0.89630267  1
  F  F37  1  0.15717300  0.69176100  0.77036400  1
  F  F38  1  0.83364967  0.31355533  0.71493633  1
  F  F39  1  0.53458800  0.84282700  0.77036400  1
  F  F40  1  0.85342767  0.50031633  0.95173033  1
  F  F41  1  0.64688867  0.14657233  0.95173033  1
  F  F42  1  0.68644467  0.52009433  0.71493633  1
  F  F43  1  0.47990567  0.16635033  0.71493633  1
  F  F44  1  0.79874533  0.82383967  0.89630267  1
  F  F45  1  0.49968367  0.35311133  0.95173033  1
  F  F46  1  0.17616033  0.97490567  0.89630267  1
  F  F47  1  0.30823900  0.46541200  0.77036400  1
  F  F48  1  0.69176100  0.53458800  0.22963600  1
  F  F49  1  0.82383967  0.02509433  0.10369733  1
  F  F50  1  0.50031633  0.64688867  0.04826967  1
  F  F51  1  0.20125467  0.17616033  0.10369733  1
  F  F52  1  0.52009433  0.83364967  0.28506367  1
  F  F53  1  0.31355533  0.47990567  0.28506367  1
  F  F54  1  0.35311133  0.85342767  0.04826967  1
  F  F55  1  0.14657233  0.49968367  0.04826967  1
  F  F56  1  0.46541200  0.15717300  0.22963600  1
  F  F57  1  0.16635033  0.68644467  0.28506367  1
  F  F58  1  0.84282700  0.30823900  0.22963600  1
  F  F59  1  0.97490567  0.79874533  0.10369733  1
