# generated using pymatgen
data_VO2
_symmetry_space_group_name_H-M   'P 1'
_cell_length_a   3.77790300
_cell_length_b   5.95650306
_cell_length_c   8.64513208
_cell_angle_alpha   90.00000000
_cell_angle_beta   90.00000000
_cell_angle_gamma   90.00000000
_symmetry_Int_Tables_number   1
_chemical_formula_structural   VO2
_chemical_formula_sum   'V4 O8'
_cell_volume   194.54219198
_cell_formula_units_Z   4
loop_
 _symmetry_equiv_pos_site_id
 _symmetry_equiv_pos_as_xyz
  1  'x, y, z'
loop_
 _atom_site_type_symbol
 _atom_site_label
 _atom_site_symmetry_multiplicity
 _atom_site_fract_x
 _atom_site_fract_y
 _atom_site_fract_z
 _atom_site_occupancy
  V  V0  1  0.25000000  0.95984100  0.86550000  1
  V  V1  1  0.75000000  0.04015900  0.13450000  1
  V  V2  1  0.25000000  0.45984100  0.63450000  1
  V  V3  1  0.75000000  0.54015900  0.36550000  1
  O  O4  1  0.75000000  0.92499600  0.92689200  1
  O  O5  1  0.25000000  0.16423700  0.72637200  1
  O  O6  1  0.75000000  0.83576300  0.27362800  1
  O  O7  1  0.25000000  0.07500400  0.07310800  1
  O  O8  1  0.75000000  0.42499600  0.57310800  1
  O  O9  1  0.25000000  0.66423700  0.77362800  1
  O  O10  1  0.75000000  0.33576300  0.22637200  1
  O  O11  1  0.25000000  0.57500400  0.42689200  1
