# generated using pymatgen
data_LiFeF4
_symmetry_space_group_name_H-M   'P 1'
_cell_length_a   12.54895400
_cell_length_b   3.91858600
_cell_length_c   6.84163063
_cell_angle_alpha   90.00000000
_cell_angle_beta   105.89299229
_cell_angle_gamma   90.00000000
_symmetry_Int_Tables_number   1
_chemical_formula_structural   LiFeF4
_chemical_formula_sum   'Li4 Fe4 F16'
_cell_volume   323.57125373
_cell_formula_units_Z   4
loop_
 _symmetry_equiv_pos_site_id
 _symmetry_equiv_pos_as_xyz
  1  'x, y, z'
loop_
 _atom_site_type_symbol
 _atom_site_label
 _atom_site_symmetry_multiplicity
 _atom_site_fract_x
 _atom_site_fract_y
 _atom_site_fract_z
 _atom_site_occupancy
  Li  Li0  1  0.08916100  0.00000000  0.70332700  1
  Li  Li1  1  0.41083900  0.50000000  0.29667300  1
  Li  Li2  1  0.58916100  0.50000000  0.70332700  1
  Li  Li3  1  0.91083900  0.00000000  0.29667300  1
  Fe  Fe4  1  0.19452600  0.00000000  0.27718500  1
  Fe  Fe5  1  0.30547400  0.50000000  0.72281500  1
  Fe  Fe6  1  0.69452600  0.50000000  0.27718500  1
  Fe  Fe7  1  0.80547400  0.00000000  0.72281500  1
  F  F8  1  0.06866600  0.00000000  0.37883300  1
  F  F9  1  0.13015300  0.00000000  0.00356600  1
  F  F10  1  0.21961000  0.50000000  0.34997500  1
  F  F11  1  0.14918900  0.50000000  0.71101900  1
  F  F12  1  0.35081100  0.00000000  0.28898100  1
  F  F13  1  0.28039000  0.00000000  0.65002500  1
  F  F14  1  0.36984700  0.50000000  0.99643400  1
  F  F15  1  0.43133400  0.50000000  0.62116700  1
  F  F16  1  0.56866600  0.50000000  0.37883300  1
  F  F17  1  0.63015300  0.50000000  0.00356600  1
  F  F18  1  0.71961000  0.00000000  0.34997500  1
  F  F19  1  0.64918900  0.00000000  0.71101900  1
  F  F20  1  0.85081100  0.50000000  0.28898100  1
  F  F21  1  0.78039000  0.50000000  0.65002500  1
  F  F22  1  0.86984700  0.00000000  0.99643400  1
  F  F23  1  0.93133400  0.00000000  0.62116700  1
