# generated using pymatgen
data_Cr3Sb5O16
_symmetry_space_group_name_H-M   'P 1'
_cell_length_a   10.64830200
_cell_length_b   6.16470200
_cell_length_c   9.90460599
_cell_angle_alpha   90.00000000
_cell_angle_beta   90.17269273
_cell_angle_gamma   90.00000000
_symmetry_Int_Tables_number   1
_chemical_formula_structural   Cr3Sb5O16
_chemical_formula_sum   'Cr6 Sb10 O32'
_cell_volume   650.17112600
_cell_formula_units_Z   2
loop_
 _symmetry_equiv_pos_site_id
 _symmetry_equiv_pos_as_xyz
  1  'x, y, z'
loop_
 _atom_site_type_symbol
 _atom_site_label
 _atom_site_symmetry_multiplicity
 _atom_site_fract_x
 _atom_site_fract_y
 _atom_site_fract_z
 _atom_site_occupancy
  Cr  Cr0  1  0.41290750  0.24439250  0.80405900  1
  Cr  Cr1  1  0.41290750  0.75560750  0.80405900  1
  Cr  Cr2  1  0.83375300  0.00000000  0.27416900  1
  Cr  Cr3  1  0.91290750  0.74439250  0.80405900  1
  Cr  Cr4  1  0.91290750  0.25560750  0.80405900  1
  Cr  Cr5  1  0.33375300  0.50000000  0.27416900  1
  Sb  Sb6  1  0.34696100  0.00000000  0.53713900  1
  Sb  Sb7  1  0.67351700  0.00000000  0.00390800  1
  Sb  Sb8  1  0.16726400  0.00000000  0.79988100  1
  Sb  Sb9  1  0.58055600  0.25309600  0.27293100  1
  Sb  Sb10  1  0.58055600  0.74690400  0.27293100  1
  Sb  Sb11  1  0.84696100  0.50000000  0.53713900  1
  Sb  Sb12  1  0.17351700  0.50000000  0.00390800  1
  Sb  Sb13  1  0.66726400  0.50000000  0.79988100  1
  Sb  Sb14  1  0.08055600  0.75309600  0.27293100  1
  Sb  Sb15  1  0.08055600  0.24690400  0.27293100  1
  O  O16  1  0.42359850  0.26327250  0.37433800  1
  O  O17  1  0.47959400  0.00000000  0.69089500  1
  O  O18  1  0.32845200  0.00000000  0.90438400  1
  O  O19  1  0.99999900  0.00000000  0.71368400  1
  O  O20  1  0.99748700  0.00000000  0.16600700  1
  O  O21  1  0.42359850  0.73672750  0.37433800  1
  O  O22  1  0.25893000  0.21914200  0.68276100  1
  O  O23  1  0.25893000  0.78085800  0.68276100  1
  O  O24  1  0.83308200  0.00000000  0.90914900  1
  O  O25  1  0.16321800  0.00000000  0.37071700  1
  O  O26  1  0.73481700  0.21491900  0.15203700  1
  O  O27  1  0.73481700  0.78508100  0.15203700  1
  O  O28  1  0.66284700  0.00000000  0.37706500  1
  O  O29  1  0.58581950  0.24762850  0.90964000  1
  O  O30  1  0.52043900  0.00000000  0.14577300  1
  O  O31  1  0.58581950  0.75237150  0.90964000  1
  O  O32  1  0.92359850  0.76327250  0.37433800  1
  O  O33  1  0.97959400  0.50000000  0.69089500  1
  O  O34  1  0.82845200  0.50000000  0.90438400  1
  O  O35  1  0.49999900  0.50000000  0.71368400  1
  O  O36  1  0.49748700  0.50000000  0.16600700  1
  O  O37  1  0.92359850  0.23672750  0.37433800  1
  O  O38  1  0.75893000  0.71914200  0.68276100  1
  O  O39  1  0.75893000  0.28085800  0.68276100  1
  O  O40  1  0.33308200  0.50000000  0.90914900  1
  O  O41  1  0.66321800  0.50000000  0.37071700  1
  O  O42  1  0.23481700  0.71491900  0.15203700  1
  O  O43  1  0.23481700  0.28508100  0.15203700  1
  O  O44  1  0.16284700  0.50000000  0.37706500  1
  O  O45  1  0.08581950  0.74762850  0.90964000  1
  O  O46  1  0.02043900  0.50000000  0.14577300  1
  O  O47  1  0.08581950  0.25237150  0.90964000  1
