# generated using pymatgen
data_Hf2N2O
_symmetry_space_group_name_H-M   'P 1'
_cell_length_a   9.50274400
_cell_length_b   5.46088200
_cell_length_c   14.61213032
_cell_angle_alpha   90.00000000
_cell_angle_beta   90.07132894
_cell_angle_gamma   90.00000000
_symmetry_Int_Tables_number   1
_chemical_formula_structural   Hf2N2O
_chemical_formula_sum   'Hf24 N24 O12'
_cell_volume   758.27200511
_cell_formula_units_Z   12
loop_
 _symmetry_equiv_pos_site_id
 _symmetry_equiv_pos_as_xyz
  1  'x, y, z'
loop_
 _atom_site_type_symbol
 _atom_site_label
 _atom_site_symmetry_multiplicity
 _atom_site_fract_x
 _atom_site_fract_y
 _atom_site_fract_z
 _atom_site_occupancy
  Hf  Hf0  1  0.99824700  0.00200200  0.35705300  1
  Hf  Hf1  1  0.99824700  0.99799800  0.85705300  1
  Hf  Hf2  1  0.67736650  0.00041550  0.19009900  1
  Hf  Hf3  1  0.67609750  0.99781850  0.47597400  1
  Hf  Hf4  1  0.67736650  0.99958450  0.69009900  1
  Hf  Hf5  1  0.67609750  0.00218150  0.97597400  1
  Hf  Hf6  1  0.82390250  0.49781850  0.02402600  1
  Hf  Hf7  1  0.82263350  0.50041550  0.30990100  1
  Hf  Hf8  1  0.82390250  0.50218150  0.52402600  1
  Hf  Hf9  1  0.82263350  0.49958450  0.80990100  1
  Hf  Hf10  1  0.50175300  0.50200200  0.14294700  1
  Hf  Hf11  1  0.50175300  0.49799800  0.64294700  1
  Hf  Hf12  1  0.49824700  0.50200200  0.35705300  1
  Hf  Hf13  1  0.49824700  0.49799800  0.85705300  1
  Hf  Hf14  1  0.17736650  0.50041550  0.19009900  1
  Hf  Hf15  1  0.17609750  0.49781850  0.47597400  1
  Hf  Hf16  1  0.17736650  0.49958450  0.69009900  1
  Hf  Hf17  1  0.17609750  0.50218150  0.97597400  1
  Hf  Hf18  1  0.32390250  0.99781850  0.02402600  1
  Hf  Hf19  1  0.32263350  0.00041550  0.30990100  1
  Hf  Hf20  1  0.32390250  0.00218150  0.52402600  1
  Hf  Hf21  1  0.32263350  0.99958450  0.80990100  1
  Hf  Hf22  1  0.00175300  0.00200200  0.14294700  1
  Hf  Hf23  1  0.00175300  0.99799800  0.64294700  1
  N  N24  1  0.64761250  0.64399450  0.24809400  1
  N  N25  1  0.64761250  0.35600550  0.74809400  1
  N  N26  1  0.66203750  0.29398550  0.08229600  1
  N  N27  1  0.66203750  0.70601450  0.58229600  1
  N  N28  1  0.68670700  0.34782500  0.41536600  1
  N  N29  1  0.68670700  0.65217500  0.91536600  1
  N  N30  1  0.81329300  0.84782500  0.08463400  1
  N  N31  1  0.81329300  0.15217500  0.58463400  1
  N  N32  1  0.83796250  0.79398550  0.41770400  1
  N  N33  1  0.83796250  0.20601450  0.91770400  1
  N  N34  1  0.85238750  0.14399450  0.25190600  1
  N  N35  1  0.85238750  0.85600550  0.75190600  1
  N  N36  1  0.14761250  0.14399450  0.24809400  1
  N  N37  1  0.14761250  0.85600550  0.74809400  1
  N  N38  1  0.16203750  0.79398550  0.08229600  1
  N  N39  1  0.16203750  0.20601450  0.58229600  1
  N  N40  1  0.18670700  0.84782500  0.41536600  1
  N  N41  1  0.18670700  0.15217500  0.91536600  1
  N  N42  1  0.31329300  0.34782500  0.08463400  1
  N  N43  1  0.31329300  0.65217500  0.58463400  1
  N  N44  1  0.33796250  0.29398550  0.41770400  1
  N  N45  1  0.33796250  0.70601450  0.91770400  1
  N  N46  1  0.35238750  0.64399450  0.25190600  1
  N  N47  1  0.35238750  0.35600550  0.75190600  1
  O  O48  1  0.51055300  0.84509900  0.08195400  1
  O  O49  1  0.51055300  0.15490100  0.58195400  1
  O  O50  1  0.98944700  0.34509900  0.41804600  1
  O  O51  1  0.98944700  0.65490100  0.91804600  1
  O  O52  1  0.00000000  0.68866400  0.25000000  1
  O  O53  1  0.00000000  0.31133600  0.75000000  1
  O  O54  1  0.01055300  0.34509900  0.08195400  1
  O  O55  1  0.01055300  0.65490100  0.58195400  1
  O  O56  1  0.48944700  0.84509900  0.41804600  1
  O  O57  1  0.48944700  0.15490100  0.91804600  1
  O  O58  1  0.50000000  0.18866400  0.25000000  1
  O  O59  1  0.50000000  0.81133600  0.75000000  1
