# generated using pymatgen
data_Li24Ti11CrO36
_symmetry_space_group_name_H-M   'P 1'
_cell_length_a   15.33724200
_cell_length_b   8.81666200
_cell_length_c   9.82405431
_cell_angle_alpha   90.00000000
_cell_angle_beta   99.57831487
_cell_angle_gamma   90.00000000
_symmetry_Int_Tables_number   1
_chemical_formula_structural   Li24Ti11CrO36
_chemical_formula_sum   'Li48 Ti22 Cr2 O72'
_cell_volume   1309.92115290
_cell_formula_units_Z   2
loop_
 _symmetry_equiv_pos_site_id
 _symmetry_equiv_pos_as_xyz
  1  'x, y, z'
loop_
 _atom_site_type_symbol
 _atom_site_label
 _atom_site_symmetry_multiplicity
 _atom_site_fract_x
 _atom_site_fract_y
 _atom_site_fract_z
 _atom_site_occupancy
  Li  Li0  1  0.91692300  0.08810500  0.75106600  1
  Li  Li1  1  0.00000000  0.25002800  0.00000000  1
  Li  Li2  1  0.91674000  0.25142100  0.25129100  1
  Li  Li3  1  0.83376700  0.25061900  0.49951700  1
  Li  Li4  1  0.91666000  0.41116500  0.74892200  1
  Li  Li5  1  0.75000700  0.25016400  0.75008900  1
  Li  Li6  1  0.75019850  0.41075150  0.24990800  1
  Li  Li7  1  0.91649500  0.58737800  0.25049800  1
  Li  Li8  1  0.00000000  0.74983100  0.50000000  1
  Li  Li9  1  0.75057000  0.58856100  0.75002500  1
  Li  Li10  1  0.91650200  0.75111600  0.75093200  1
  Li  Li11  1  0.83334000  0.75000200  0.00012500  1
  Li  Li12  1  0.91728650  0.91165050  0.25067400  1
  Li  Li13  1  0.74999300  0.75016400  0.24991100  1
  Li  Li14  1  0.58307700  0.58810500  0.24893400  1
  Li  Li15  1  0.66623300  0.75061900  0.50048300  1
  Li  Li16  1  0.74980150  0.91075150  0.75009200  1
  Li  Li17  1  0.58326000  0.75142100  0.74870900  1
  Li  Li18  1  0.58334000  0.91116500  0.25107800  1
  Li  Li19  1  0.74943000  0.08856100  0.24997500  1
  Li  Li20  1  0.58350500  0.08737800  0.74950200  1
  Li  Li21  1  0.66666000  0.25000200  0.99987500  1
  Li  Li22  1  0.58349800  0.25111600  0.24906800  1
  Li  Li23  1  0.58271350  0.41165050  0.74932600  1
  Li  Li24  1  0.41692300  0.58810500  0.75106600  1
  Li  Li25  1  0.50000000  0.75002800  0.00000000  1
  Li  Li26  1  0.41674000  0.75142100  0.25129100  1
  Li  Li27  1  0.33376700  0.75061900  0.49951700  1
  Li  Li28  1  0.41666000  0.91116500  0.74892200  1
  Li  Li29  1  0.25000700  0.75016400  0.75008900  1
  Li  Li30  1  0.25019850  0.91075150  0.24990800  1
  Li  Li31  1  0.41649500  0.08737800  0.25049800  1
  Li  Li32  1  0.50000000  0.24983100  0.50000000  1
  Li  Li33  1  0.25057000  0.08856100  0.75002500  1
  Li  Li34  1  0.41650200  0.25111600  0.75093200  1
  Li  Li35  1  0.33334000  0.25000200  0.00012500  1
  Li  Li36  1  0.41728650  0.41165050  0.25067400  1
  Li  Li37  1  0.24999300  0.25016400  0.24991100  1
  Li  Li38  1  0.08307700  0.08810500  0.24893400  1
  Li  Li39  1  0.16623300  0.25061900  0.50048300  1
  Li  Li40  1  0.24980150  0.41075150  0.75009200  1
  Li  Li41  1  0.08326000  0.25142100  0.74870900  1
  Li  Li42  1  0.08334000  0.41116500  0.25107800  1
  Li  Li43  1  0.24943000  0.58856100  0.24997500  1
  Li  Li44  1  0.08350500  0.58737800  0.74950200  1
  Li  Li45  1  0.16666000  0.75000200  0.99987500  1
  Li  Li46  1  0.08349800  0.75111600  0.24906800  1
  Li  Li47  1  0.08271350  0.91165050  0.74932600  1
  Ti  Ti48  1  0.00000000  0.08573100  0.50000000  1
  Ti  Ti49  1  0.00000000  0.58228100  0.00000000  1
  Ti  Ti50  1  0.83340950  0.41745650  0.99992300  1
  Ti  Ti51  1  0.83272100  0.58010300  0.49740000  1
  Ti  Ti52  1  0.66614400  0.41665000  0.50018000  1
  Ti  Ti53  1  0.00000000  0.91737400  0.00000000  1
  Ti  Ti54  1  0.66667600  0.58234500  0.99965300  1
  Ti  Ti55  1  0.83385600  0.91665000  0.49982000  1
  Ti  Ti56  1  0.83332400  0.08234500  0.00034700  1
  Ti  Ti57  1  0.66659050  0.91745650  0.00007700  1
  Ti  Ti58  1  0.66727900  0.08010300  0.50260000  1
  Ti  Ti59  1  0.50000000  0.58573100  0.50000000  1
  Ti  Ti60  1  0.50000000  0.08228100  0.00000000  1
  Ti  Ti61  1  0.33340950  0.91745650  0.99992300  1
  Ti  Ti62  1  0.33272100  0.08010300  0.49740000  1
  Ti  Ti63  1  0.16614400  0.91665000  0.50018000  1
  Ti  Ti64  1  0.50000000  0.41737400  0.00000000  1
  Ti  Ti65  1  0.16667600  0.08234500  0.99965300  1
  Ti  Ti66  1  0.33385600  0.41665000  0.49982000  1
  Ti  Ti67  1  0.33332400  0.58234500  0.00034700  1
  Ti  Ti68  1  0.16659050  0.41745650  0.00007700  1
  Ti  Ti69  1  0.16727900  0.58010300  0.50260000  1
  Cr  Cr70  1  0.00000000  0.42031000  0.50000000  1
  Cr  Cr71  1  0.50000000  0.92031000  0.50000000  1
  O  O72  1  0.95298200  0.07183600  0.11322200  1
  O  O73  1  0.96492000  0.25305700  0.61359900  1
  O  O74  1  0.86825600  0.24983400  0.88445900  1
  O  O75  1  0.79853500  0.24998200  0.11539900  1
  O  O76  1  0.95279050  0.42814250  0.11284800  1
  O  O77  1  0.87988150  0.42761750  0.38706400  1
  O  O78  1  0.88050400  0.57187500  0.88652200  1
  O  O79  1  0.95490700  0.56854500  0.61166900  1
  O  O80  1  0.71384700  0.42808700  0.88691000  1
  O  O81  1  0.78617550  0.42807850  0.61310000  1
  O  O82  1  0.96526100  0.74994100  0.11557400  1
  O  O83  1  0.78619350  0.57168350  0.11309400  1
  O  O84  1  0.61952950  0.42800550  0.11302500  1
  O  O85  1  0.71437300  0.57162800  0.38652600  1
  O  O86  1  0.86863900  0.75020600  0.38460400  1
  O  O87  1  0.54701800  0.57183600  0.88677800  1
  O  O88  1  0.79971900  0.74949200  0.61567500  1
  O  O89  1  0.61950300  0.57193500  0.61307400  1
  O  O90  1  0.88047050  0.92800550  0.88697500  1
  O  O91  1  0.70146500  0.74998200  0.88460100  1
  O  O92  1  0.95294650  0.92978850  0.61345900  1
  O  O93  1  0.63174400  0.74983400  0.11554100  1
  O  O94  1  0.78615300  0.92808700  0.11309000  1
  O  O95  1  0.88049700  0.07193500  0.38692600  1
  O  O96  1  0.71382450  0.92807850  0.38690000  1
  O  O97  1  0.53508000  0.75305700  0.38640100  1
  O  O98  1  0.71380650  0.07168350  0.88690600  1
  O  O99  1  0.78562700  0.07162800  0.61347400  1
  O  O100  1  0.54720950  0.92814250  0.88715200  1
  O  O101  1  0.62011850  0.92761750  0.61293600  1
  O  O102  1  0.61949600  0.07187500  0.11347800  1
  O  O103  1  0.54509300  0.06854500  0.38833100  1
  O  O104  1  0.70028100  0.24949200  0.38432500  1
  O  O105  1  0.63136100  0.25020600  0.61539600  1
  O  O106  1  0.53473900  0.24994100  0.88442600  1
  O  O107  1  0.54705350  0.42978850  0.38654100  1
  O  O108  1  0.45298200  0.57183600  0.11322200  1
  O  O109  1  0.46492000  0.75305700  0.61359900  1
  O  O110  1  0.36825600  0.74983400  0.88445900  1
  O  O111  1  0.29853500  0.74998200  0.11539900  1
  O  O112  1  0.45279050  0.92814250  0.11284800  1
  O  O113  1  0.37988150  0.92761750  0.38706400  1
  O  O114  1  0.38050400  0.07187500  0.88652200  1
  O  O115  1  0.45490700  0.06854500  0.61166900  1
  O  O116  1  0.21384700  0.92808700  0.88691000  1
  O  O117  1  0.28617550  0.92807850  0.61310000  1
  O  O118  1  0.46526100  0.24994100  0.11557400  1
  O  O119  1  0.28619350  0.07168350  0.11309400  1
  O  O120  1  0.11952950  0.92800550  0.11302500  1
  O  O121  1  0.21437300  0.07162800  0.38652600  1
  O  O122  1  0.36863900  0.25020600  0.38460400  1
  O  O123  1  0.04701800  0.07183600  0.88677800  1
  O  O124  1  0.29971900  0.24949200  0.61567500  1
  O  O125  1  0.11950300  0.07193500  0.61307400  1
  O  O126  1  0.38047050  0.42800550  0.88697500  1
  O  O127  1  0.20146500  0.24998200  0.88460100  1
  O  O128  1  0.45294650  0.42978850  0.61345900  1
  O  O129  1  0.13174400  0.24983400  0.11554100  1
  O  O130  1  0.28615300  0.42808700  0.11309000  1
  O  O131  1  0.38049700  0.57193500  0.38692600  1
  O  O132  1  0.21382450  0.42807850  0.38690000  1
  O  O133  1  0.03508000  0.25305700  0.38640100  1
  O  O134  1  0.21380650  0.57168350  0.88690600  1
  O  O135  1  0.28562700  0.57162800  0.61347400  1
  O  O136  1  0.04720950  0.42814250  0.88715200  1
  O  O137  1  0.12011850  0.42761750  0.61293600  1
  O  O138  1  0.11949600  0.57187500  0.11347800  1
  O  O139  1  0.04509300  0.56854500  0.38833100  1
  O  O140  1  0.20028100  0.74949200  0.38432500  1
  O  O141  1  0.13136100  0.75020600  0.61539600  1
  O  O142  1  0.03473900  0.74994100  0.88442600  1
  O  O143  1  0.04705350  0.92978850  0.38654100  1
