# generated using pymatgen
data_Li2FeF6
_symmetry_space_group_name_H-M   'P 1'
_cell_length_a   14.79221000
_cell_length_b   8.73247400
_cell_length_c   4.69317460
_cell_angle_alpha   90.00000000
_cell_angle_beta   90.60841308
_cell_angle_gamma   90.00000000
_symmetry_Int_Tables_number   1
_chemical_formula_structural   Li2FeF6
_chemical_formula_sum   'Li12 Fe6 F36'
_cell_volume   606.19533571
_cell_formula_units_Z   6
loop_
 _symmetry_equiv_pos_site_id
 _symmetry_equiv_pos_as_xyz
  1  'x, y, z'
loop_
 _atom_site_type_symbol
 _atom_site_label
 _atom_site_symmetry_multiplicity
 _atom_site_fract_x
 _atom_site_fract_y
 _atom_site_fract_z
 _atom_site_occupancy
  Li  Li0  1  0.18503550  0.17960350  0.97175300  1
  Li  Li1  1  0.34834700  0.34256000  0.51219200  1
  Li  Li2  1  0.81496450  0.17960350  0.02824700  1
  Li  Li3  1  0.50000000  0.80206900  0.50000000  1
  Li  Li4  1  0.65165300  0.34256000  0.48780800  1
  Li  Li5  1  0.50000000  0.14242200  0.00000000  1
  Li  Li6  1  0.68503550  0.67960350  0.97175300  1
  Li  Li7  1  0.84834700  0.84256000  0.51219200  1
  Li  Li8  1  0.31496450  0.67960350  0.02824700  1
  Li  Li9  1  0.00000000  0.30206900  0.50000000  1
  Li  Li10  1  0.15165300  0.84256000  0.48780800  1
  Li  Li11  1  0.00000000  0.64242200  0.00000000  1
  Fe  Fe12  1  0.66670050  0.99969250  0.51199000  1
  Fe  Fe13  1  0.50000000  0.50239600  0.00000000  1
  Fe  Fe14  1  0.33329950  0.99969250  0.48801000  1
  Fe  Fe15  1  0.16670050  0.49969250  0.51199000  1
  Fe  Fe16  1  0.00000000  0.00239600  0.00000000  1
  Fe  Fe17  1  0.83329950  0.49969250  0.48801000  1
  F  F18  1  0.55674700  0.65733100  0.77710200  1
  F  F19  1  0.61702900  0.84490500  0.28930700  1
  F  F20  1  0.72926100  0.84720200  0.73638100  1
  F  F21  1  0.56369950  0.98482250  0.73607900  1
  F  F22  1  0.89833600  0.00979900  0.77895200  1
  F  F23  1  0.77119600  0.00358800  0.29190400  1
  F  F24  1  0.44325300  0.65733100  0.22289800  1
  F  F25  1  0.71228600  0.15695100  0.73493700  1
  F  F26  1  0.60913450  0.15534050  0.28455500  1
  F  F27  1  0.38297100  0.84490500  0.71069300  1
  F  F28  1  0.27073900  0.84720200  0.26361900  1
  F  F29  1  0.55089450  0.34471050  0.77618600  1
  F  F30  1  0.43630050  0.98482250  0.26392100  1
  F  F31  1  0.22880400  0.00358800  0.70809600  1
  F  F32  1  0.10166400  0.00979900  0.22104800  1
  F  F33  1  0.39086550  0.15534050  0.71544500  1
  F  F34  1  0.28771400  0.15695100  0.26506300  1
  F  F35  1  0.44910550  0.34471050  0.22381400  1
  F  F36  1  0.05674700  0.15733100  0.77710200  1
  F  F37  1  0.11702900  0.34490500  0.28930700  1
  F  F38  1  0.22926100  0.34720200  0.73638100  1
  F  F39  1  0.06369950  0.48482250  0.73607900  1
  F  F40  1  0.39833600  0.50979900  0.77895200  1
  F  F41  1  0.27119600  0.50358800  0.29190400  1
  F  F42  1  0.94325300  0.15733100  0.22289800  1
  F  F43  1  0.21228600  0.65695100  0.73493700  1
  F  F44  1  0.10913450  0.65534050  0.28455500  1
  F  F45  1  0.88297100  0.34490500  0.71069300  1
  F  F46  1  0.77073900  0.34720200  0.26361900  1
  F  F47  1  0.05089450  0.84471050  0.77618600  1
  F  F48  1  0.93630050  0.48482250  0.26392100  1
  F  F49  1  0.72880400  0.50358800  0.70809600  1
  F  F50  1  0.60166400  0.50979900  0.22104800  1
  F  F51  1  0.89086550  0.65534050  0.71544500  1
  F  F52  1  0.78771400  0.65695100  0.26506300  1
  F  F53  1  0.94910550  0.84471050  0.22381400  1
