# generated using pymatgen
data_Mg3B2P2(H9O10)2
_symmetry_space_group_name_H-M   'P 1'
_cell_length_a   6.36484300
_cell_length_b   6.36772723
_cell_length_c   9.90827805
_cell_angle_alpha   84.06365060
_cell_angle_beta   85.19211568
_cell_angle_gamma   73.27630115
_symmetry_Int_Tables_number   1
_chemical_formula_structural   Mg3B2P2(H9O10)2
_chemical_formula_sum   'Mg3 B2 P2 H18 O20'
_cell_volume   381.91424691
_cell_formula_units_Z   1
loop_
 _symmetry_equiv_pos_site_id
 _symmetry_equiv_pos_as_xyz
  1  'x, y, z'
loop_
 _atom_site_type_symbol
 _atom_site_label
 _atom_site_symmetry_multiplicity
 _atom_site_fract_x
 _atom_site_fract_y
 _atom_site_fract_z
 _atom_site_occupancy
  Mg  Mg0  1  0.00000000  0.00000000  0.00000000  1
  Mg  Mg1  1  0.68309400  0.65781400  0.66792600  1
  Mg  Mg2  1  0.31690600  0.34218600  0.33207400  1
  B  B3  1  0.77280700  0.12116400  0.71208600  1
  B  B4  1  0.22719300  0.87883600  0.28791400  1
  P  P5  1  0.14299900  0.75663100  0.72152100  1
  P  P6  1  0.85700100  0.24336900  0.27847900  1
  H  H7  1  0.29738200  0.69440900  0.12323300  1
  H  H8  1  0.70261800  0.30559100  0.87676700  1
  H  H9  1  0.50440200  0.91026500  0.36592600  1
  H  H10  1  0.49559800  0.08973500  0.63407400  1
  H  H11  1  0.31023400  0.68205000  0.46208400  1
  H  H12  1  0.68976600  0.31795000  0.53791600  1
  H  H13  1  0.13074700  0.34955700  0.85230100  1
  H  H14  1  0.86925300  0.65044300  0.14769900  1
  H  H15  1  0.33181700  0.13818300  0.86240800  1
  H  H16  1  0.66818300  0.86181700  0.13759200  1
  H  H17  1  0.31860800  0.34416600  0.05481900  1
  H  H18  1  0.68139200  0.65583400  0.94518100  1
  H  H19  1  0.44511300  0.66159100  0.89272100  1
  H  H20  1  0.55488700  0.33840900  0.10727900  1
  H  H21  1  0.15695900  0.15949400  0.56669200  1
  H  H22  1  0.84304100  0.84050600  0.43330800  1
  H  H23  1  0.16892400  0.38984700  0.60014000  1
  H  H24  1  0.83107600  0.61015300  0.39986000  1
  O  O25  1  0.18441800  0.77263100  0.87138600  1
  O  O26  1  0.81558200  0.22736900  0.12861400  1
  O  O27  1  0.01814800  0.58205600  0.71240600  1
  O  O28  1  0.98185200  0.41794400  0.28759400  1
  O  O29  1  0.35603800  0.70850400  0.63144000  1
  O  O30  1  0.64396200  0.29149600  0.36856000  1
  O  O31  1  0.99751300  0.98884400  0.66279100  1
  O  O32  1  0.00248700  0.01115600  0.33720900  1
  O  O33  1  0.77599100  0.15103000  0.85766600  1
  O  O34  1  0.22400900  0.84897000  0.14233400  1
  O  O35  1  0.61304800  0.99756800  0.69141000  1
  O  O36  1  0.38695200  0.00243200  0.30859000  1
  O  O37  1  0.72323000  0.33317100  0.63236000  1
  O  O38  1  0.27677000  0.66682900  0.36764000  1
  O  O39  1  0.20575000  0.22393200  0.91615900  1
  O  O40  1  0.79425000  0.77606800  0.08384100  1
  O  O41  1  0.61004900  0.59709000  0.87881700  1
  O  O42  1  0.38995100  0.40291000  0.12118300  1
  O  O43  1  0.75414900  0.73498800  0.45584800  1
  O  O44  1  0.24585100  0.26501200  0.54415200  1
