# generated using pymatgen
data_Fe3OF5
_symmetry_space_group_name_H-M   'P 1'
_cell_length_a   9.34856400
_cell_length_b   6.81373600
_cell_length_c   7.50100418
_cell_angle_alpha   90.00000000
_cell_angle_beta   111.28752253
_cell_angle_gamma   90.00000000
_symmetry_Int_Tables_number   1
_chemical_formula_structural   Fe3OF5
_chemical_formula_sum   'Fe12 O4 F20'
_cell_volume   445.20341222
_cell_formula_units_Z   4
loop_
 _symmetry_equiv_pos_site_id
 _symmetry_equiv_pos_as_xyz
  1  'x, y, z'
loop_
 _atom_site_type_symbol
 _atom_site_label
 _atom_site_symmetry_multiplicity
 _atom_site_fract_x
 _atom_site_fract_y
 _atom_site_fract_z
 _atom_site_occupancy
  Fe  Fe0  1  0.00000000  0.50000000  0.00000000  1
  Fe  Fe1  1  0.35429000  0.50000000  0.84911800  1
  Fe  Fe2  1  0.00000000  0.50000000  0.50000000  1
  Fe  Fe3  1  0.33624300  0.50000000  0.32747100  1
  Fe  Fe4  1  0.66375700  0.50000000  0.67252900  1
  Fe  Fe5  1  0.64571000  0.50000000  0.15088200  1
  Fe  Fe6  1  0.50000000  0.00000000  0.00000000  1
  Fe  Fe7  1  0.85429000  0.00000000  0.84911800  1
  Fe  Fe8  1  0.50000000  0.00000000  0.50000000  1
  Fe  Fe9  1  0.83624300  0.00000000  0.32747100  1
  Fe  Fe10  1  0.16375700  0.00000000  0.67252900  1
  Fe  Fe11  1  0.14571000  0.00000000  0.15088200  1
  O  O12  1  0.43359400  0.50000000  0.12397300  1
  O  O13  1  0.56640600  0.50000000  0.87602700  1
  O  O14  1  0.93359400  0.00000000  0.12397300  1
  O  O15  1  0.06640600  0.00000000  0.87602700  1
  F  F16  1  0.83610600  0.69947700  0.82377000  1
  F  F17  1  0.00000000  0.20151800  0.50000000  1
  F  F18  1  0.75717100  0.50000000  0.44644900  1
  F  F19  1  0.11661500  0.50000000  0.81068200  1
  F  F20  1  0.88338500  0.50000000  0.18931800  1
  F  F21  1  0.24282900  0.50000000  0.55355100  1
  F  F22  1  0.00000000  0.79848200  0.50000000  1
  F  F23  1  0.83610600  0.30052300  0.82377000  1
  F  F24  1  0.16389400  0.30052300  0.17623000  1
  F  F25  1  0.16389400  0.69947700  0.17623000  1
  F  F26  1  0.33610600  0.19947700  0.82377000  1
  F  F27  1  0.50000000  0.70151800  0.50000000  1
  F  F28  1  0.25717100  0.00000000  0.44644900  1
  F  F29  1  0.61661500  0.00000000  0.81068200  1
  F  F30  1  0.38338500  0.00000000  0.18931800  1
  F  F31  1  0.74282900  0.00000000  0.55355100  1
  F  F32  1  0.50000000  0.29848200  0.50000000  1
  F  F33  1  0.33610600  0.80052300  0.82377000  1
  F  F34  1  0.66389400  0.80052300  0.17623000  1
  F  F35  1  0.66389400  0.19947700  0.17623000  1
