# generated using pymatgen
data_V9PO25
_symmetry_space_group_name_H-M   'P 1'
_cell_length_a   15.14631200
_cell_length_b   15.14631200
_cell_length_c   3.63186400
_cell_angle_alpha   90.00000000
_cell_angle_beta   90.00000000
_cell_angle_gamma   90.00000000
_symmetry_Int_Tables_number   1
_chemical_formula_structural   V9PO25
_chemical_formula_sum   'V18 P2 O50'
_cell_volume   833.18870661
_cell_formula_units_Z   2
loop_
 _symmetry_equiv_pos_site_id
 _symmetry_equiv_pos_as_xyz
  1  'x, y, z'
loop_
 _atom_site_type_symbol
 _atom_site_label
 _atom_site_symmetry_multiplicity
 _atom_site_fract_x
 _atom_site_fract_y
 _atom_site_fract_z
 _atom_site_occupancy
  V  V0  1  0.00000000  0.00000000  0.00000000  1
  V  V1  1  0.38697150  0.28633850  0.49828250  1
  V  V2  1  0.61505400  0.16677200  0.48632900  1
  V  V3  1  0.33322800  0.11505400  0.01367100  1
  V  V4  1  0.78633850  0.11302850  0.00171750  1
  V  V5  1  0.21366150  0.88697150  0.00171750  1
  V  V6  1  0.66677200  0.88494600  0.01367100  1
  V  V7  1  0.38494600  0.83322800  0.48632900  1
  V  V8  1  0.61302850  0.71366150  0.49828250  1
  V  V9  1  0.50000000  0.50000000  0.50000000  1
  V  V10  1  0.88697150  0.78633850  0.99828250  1
  V  V11  1  0.11505400  0.66677200  0.98632900  1
  V  V12  1  0.83322800  0.61505400  0.51367100  1
  V  V13  1  0.28633850  0.61302850  0.50171750  1
  V  V14  1  0.71366150  0.38697150  0.50171750  1
  V  V15  1  0.16677200  0.38494600  0.51367100  1
  V  V16  1  0.88494600  0.33322800  0.98632900  1
  V  V17  1  0.11302850  0.21366150  0.99828250  1
  P  P18  1  0.50000000  0.00000000  0.75000000  1
  P  P19  1  0.00000000  0.50000000  0.25000000  1
  O  O20  1  0.00000000  0.00000000  0.50000000  1
  O  O21  1  0.44561600  0.38536500  0.49920600  1
  O  O22  1  0.67841100  0.28134500  0.50956900  1
  O  O23  1  0.39289300  0.25088000  0.99329200  1
  O  O24  1  0.51974400  0.21859600  0.49270700  1
  O  O25  1  0.21865500  0.17841100  0.99043100  1
  O  O26  1  0.34396850  0.14729250  0.49340950  1
  O  O27  1  0.64729250  0.15603150  0.00659050  1
  O  O28  1  0.75088000  0.10710700  0.50670800  1
  O  O29  1  0.45102000  0.07092700  0.97860000  1
  O  O30  1  0.88536500  0.05438400  0.00079400  1
  O  O31  1  0.57092700  0.04898000  0.52140000  1
  O  O32  1  0.28140400  0.01974400  0.00729300  1
  O  O33  1  0.71859600  0.98025600  0.00729300  1
  O  O34  1  0.42907300  0.95102000  0.52140000  1
  O  O35  1  0.11463500  0.94561600  0.00079400  1
  O  O36  1  0.54898000  0.92907300  0.97860000  1
  O  O37  1  0.24912000  0.89289300  0.50670800  1
  O  O38  1  0.35270750  0.84396850  0.00659050  1
  O  O39  1  0.65603150  0.85270750  0.49340950  1
  O  O40  1  0.78134500  0.82158900  0.99043100  1
  O  O41  1  0.48025600  0.78140400  0.49270700  1
  O  O42  1  0.60710700  0.74912000  0.99329200  1
  O  O43  1  0.32158900  0.71865500  0.50956900  1
  O  O44  1  0.55438400  0.61463500  0.49920600  1
  O  O45  1  0.50000000  0.50000000  0.00000000  1
  O  O46  1  0.94561600  0.88536500  0.99920600  1
  O  O47  1  0.17841100  0.78134500  0.00956900  1
  O  O48  1  0.89289300  0.75088000  0.49329200  1
  O  O49  1  0.01974400  0.71859600  0.99270700  1
  O  O50  1  0.71865500  0.67841100  0.49043100  1
  O  O51  1  0.84396850  0.64729250  0.99340950  1
  O  O52  1  0.14729250  0.65603150  0.50659050  1
  O  O53  1  0.25088000  0.60710700  0.00670800  1
  O  O54  1  0.95102000  0.57092700  0.47860000  1
  O  O55  1  0.38536500  0.55438400  0.50079400  1
  O  O56  1  0.07092700  0.54898000  0.02140000  1
  O  O57  1  0.78140400  0.51974400  0.50729300  1
  O  O58  1  0.21859600  0.48025600  0.50729300  1
  O  O59  1  0.92907300  0.45102000  0.02140000  1
  O  O60  1  0.61463500  0.44561600  0.50079400  1
  O  O61  1  0.04898000  0.42907300  0.47860000  1
  O  O62  1  0.74912000  0.39289300  0.00670800  1
  O  O63  1  0.85270750  0.34396850  0.50659050  1
  O  O64  1  0.15603150  0.35270750  0.99340950  1
  O  O65  1  0.28134500  0.32158900  0.49043100  1
  O  O66  1  0.98025600  0.28140400  0.99270700  1
  O  O67  1  0.10710700  0.24912000  0.49329200  1
  O  O68  1  0.82158900  0.21865500  0.00956900  1
  O  O69  1  0.05438400  0.11463500  0.99920600  1
