# generated using pymatgen
data_ScFeO3
_symmetry_space_group_name_H-M   'P 1'
_cell_length_a   5.84717982
_cell_length_b   5.84717982
_cell_length_c   11.58148600
_cell_angle_alpha   90.00000000
_cell_angle_beta   90.00000000
_cell_angle_gamma   120.00000000
_symmetry_Int_Tables_number   1
_chemical_formula_structural   ScFeO3
_chemical_formula_sum   'Sc6 Fe6 O18'
_cell_volume   342.91605431
_cell_formula_units_Z   6
loop_
 _symmetry_equiv_pos_site_id
 _symmetry_equiv_pos_as_xyz
  1  'x, y, z'
loop_
 _atom_site_type_symbol
 _atom_site_label
 _atom_site_symmetry_multiplicity
 _atom_site_fract_x
 _atom_site_fract_y
 _atom_site_fract_z
 _atom_site_occupancy
  Sc  Sc0  1  0.66666667  0.33333333  0.73488800  1
  Sc  Sc1  1  0.00000000  0.00000000  0.77690900  1
  Sc  Sc2  1  0.00000000  0.00000000  0.27690900  1
  Sc  Sc3  1  0.66666667  0.33333333  0.23488800  1
  Sc  Sc4  1  0.33333333  0.66666667  0.23488800  1
  Sc  Sc5  1  0.33333333  0.66666667  0.73488800  1
  Fe  Fe6  1  0.66611950  0.66611950  0.00271900  1
  Fe  Fe7  1  0.33388050  0.33388050  0.50271900  1
  Fe  Fe8  1  0.33388050  0.00000000  0.00271900  1
  Fe  Fe9  1  0.66611950  0.00000000  0.50271900  1
  Fe  Fe10  1  0.00000000  0.66611950  0.50271900  1
  Fe  Fe11  1  0.00000000  0.33388050  0.00271900  1
  O  O12  1  0.69867050  0.69867050  0.17307000  1
  O  O13  1  0.63249950  0.63249950  0.83610700  1
  O  O14  1  0.36750050  0.36750050  0.33610700  1
  O  O15  1  0.30132950  0.30132950  0.67307000  1
  O  O16  1  0.66666667  0.33333333  0.53029400  1
  O  O17  1  0.00000000  0.00000000  0.97185200  1
  O  O18  1  0.00000000  0.00000000  0.47185200  1
  O  O19  1  0.66666667  0.33333333  0.03029400  1
  O  O20  1  0.30132950  0.00000000  0.17307000  1
  O  O21  1  0.36750050  0.00000000  0.83610700  1
  O  O22  1  0.00000000  0.69867050  0.67307000  1
  O  O23  1  0.63249950  0.00000000  0.33610700  1
  O  O24  1  0.69867050  0.00000000  0.67307000  1
  O  O25  1  0.00000000  0.63249950  0.33610700  1
  O  O26  1  0.33333333  0.66666667  0.03029400  1
  O  O27  1  0.33333333  0.66666667  0.53029400  1
  O  O28  1  0.00000000  0.36750050  0.83610700  1
  O  O29  1  0.00000000  0.30132950  0.17307000  1
