# generated using pymatgen
data_Li4Ti5Fe3O16
_symmetry_space_group_name_H-M   'P 1'
_cell_length_a   10.39220000
_cell_length_b   5.93942400
_cell_length_c   9.62887227
_cell_angle_alpha   90.00000000
_cell_angle_beta   90.08366286
_cell_angle_gamma   90.00000000
_symmetry_Int_Tables_number   1
_chemical_formula_structural   Li4Ti5Fe3O16
_chemical_formula_sum   'Li8 Ti10 Fe6 O32'
_cell_volume   594.32881700
_cell_formula_units_Z   2
loop_
 _symmetry_equiv_pos_site_id
 _symmetry_equiv_pos_as_xyz
  1  'x, y, z'
loop_
 _atom_site_type_symbol
 _atom_site_label
 _atom_site_symmetry_multiplicity
 _atom_site_fract_x
 _atom_site_fract_y
 _atom_site_fract_z
 _atom_site_occupancy
  Li  Li0  1  0.66159200  0.00000000  0.89748300  1
  Li  Li1  1  0.99914900  0.00000000  0.99298300  1
  Li  Li2  1  0.50282100  0.50000000  0.49323700  1
  Li  Li3  1  0.83235900  0.50000000  0.39866000  1
  Li  Li4  1  0.16159200  0.50000000  0.89748300  1
  Li  Li5  1  0.49914900  0.50000000  0.99298300  1
  Li  Li6  1  0.00282100  0.00000000  0.49323700  1
  Li  Li7  1  0.33235900  0.00000000  0.39866000  1
  Ti  Ti8  1  0.67619600  0.50000000  0.72933900  1
  Ti  Ti9  1  0.59436750  0.24563950  0.22063800  1
  Ti  Ti10  1  0.66661000  0.00000000  0.49983300  1
  Ti  Ti11  1  0.59436750  0.75436050  0.22063800  1
  Ti  Ti12  1  0.84678700  0.50000000  0.99754900  1
  Ti  Ti13  1  0.17619600  0.00000000  0.72933900  1
  Ti  Ti14  1  0.09436750  0.74563950  0.22063800  1
  Ti  Ti15  1  0.16661000  0.50000000  0.49983300  1
  Ti  Ti16  1  0.09436750  0.25436050  0.22063800  1
  Ti  Ti17  1  0.34678700  0.00000000  0.99754900  1
  Fe  Fe18  1  0.82915800  0.00000000  0.21091700  1
  Fe  Fe19  1  0.91589850  0.74395150  0.71013700  1
  Fe  Fe20  1  0.91589850  0.25604850  0.71013700  1
  Fe  Fe21  1  0.32915800  0.50000000  0.21091700  1
  Fe  Fe22  1  0.41589850  0.24395150  0.71013700  1
  Fe  Fe23  1  0.41589850  0.75604850  0.71013700  1
  O  O24  1  0.58346000  0.24344900  0.59475600  1
  O  O25  1  0.51853500  0.00000000  0.33573400  1
  O  O26  1  0.65353500  0.00000000  0.10328900  1
  O  O27  1  0.50804500  0.50000000  0.30481100  1
  O  O28  1  0.50284300  0.50000000  0.80405500  1
  O  O29  1  0.58346000  0.75655100  0.59475600  1
  O  O30  1  0.73114600  0.22678300  0.34638200  1
  O  O31  1  0.73114600  0.77321700  0.34638200  1
  O  O32  1  0.66918700  0.50000000  0.09915200  1
  O  O33  1  0.83138800  0.00000000  0.59076500  1
  O  O34  1  0.75422250  0.72150250  0.83910500  1
  O  O35  1  0.75422250  0.27849750  0.83910500  1
  O  O36  1  0.82489100  0.50000000  0.60406200  1
  O  O37  1  0.92112600  0.74088100  0.09057200  1
  O  O38  1  0.97556200  0.50000000  0.84275700  1
  O  O39  1  0.92112600  0.25911900  0.09057200  1
  O  O40  1  0.08346000  0.74344900  0.59475600  1
  O  O41  1  0.01853500  0.50000000  0.33573400  1
  O  O42  1  0.15353500  0.50000000  0.10328900  1
  O  O43  1  0.00804500  0.00000000  0.30481100  1
  O  O44  1  0.00284300  0.00000000  0.80405500  1
  O  O45  1  0.08346000  0.25655100  0.59475600  1
  O  O46  1  0.23114600  0.72678300  0.34638200  1
  O  O47  1  0.23114600  0.27321700  0.34638200  1
  O  O48  1  0.16918700  0.00000000  0.09915200  1
  O  O49  1  0.33138800  0.50000000  0.59076500  1
  O  O50  1  0.25422250  0.22150250  0.83910500  1
  O  O51  1  0.25422250  0.77849750  0.83910500  1
  O  O52  1  0.32489100  0.00000000  0.60406200  1
  O  O53  1  0.42112600  0.24088100  0.09057200  1
  O  O54  1  0.47556200  0.00000000  0.84275700  1
  O  O55  1  0.42112600  0.75911900  0.09057200  1
