# generated using pymatgen
data_LuBO3
_symmetry_space_group_name_H-M   'P 1'
_cell_length_a   3.46687400
_cell_length_b   8.52265800
_cell_length_c   7.96624800
_cell_angle_alpha   90.00000000
_cell_angle_beta   90.00000000
_cell_angle_gamma   90.00000000
_symmetry_Int_Tables_number   1
_chemical_formula_structural   LuBO3
_chemical_formula_sum   'Lu4 B4 O12'
_cell_volume   235.37858173
_cell_formula_units_Z   4
loop_
 _symmetry_equiv_pos_site_id
 _symmetry_equiv_pos_as_xyz
  1  'x, y, z'
loop_
 _atom_site_type_symbol
 _atom_site_label
 _atom_site_symmetry_multiplicity
 _atom_site_fract_x
 _atom_site_fract_y
 _atom_site_fract_z
 _atom_site_occupancy
  Lu  Lu0  1  0.00000000  0.00000000  0.50000000  1
  Lu  Lu1  1  0.00000000  0.00000000  0.00000000  1
  Lu  Lu2  1  0.50000000  0.50000000  0.50000000  1
  Lu  Lu3  1  0.50000000  0.50000000  0.00000000  1
  B  B4  1  0.50000000  0.21813700  0.75000000  1
  B  B5  1  0.00000000  0.28186300  0.25000000  1
  B  B6  1  0.00000000  0.71813700  0.75000000  1
  B  B7  1  0.50000000  0.78186300  0.25000000  1
  O  O8  1  0.50000000  0.37910300  0.75000000  1
  O  O9  1  0.50000000  0.13505500  0.59999300  1
  O  O10  1  0.50000000  0.13505500  0.90000700  1
  O  O11  1  0.00000000  0.36494500  0.09999300  1
  O  O12  1  0.00000000  0.36494500  0.40000700  1
  O  O13  1  0.00000000  0.12089700  0.25000000  1
  O  O14  1  0.00000000  0.87910300  0.75000000  1
  O  O15  1  0.00000000  0.63505500  0.59999300  1
  O  O16  1  0.00000000  0.63505500  0.90000700  1
  O  O17  1  0.50000000  0.86494500  0.09999300  1
  O  O18  1  0.50000000  0.86494500  0.40000700  1
  O  O19  1  0.50000000  0.62089700  0.25000000  1
