# generated using pymatgen
data_Lu2(SO4)3
_symmetry_space_group_name_H-M   'P 1'
_cell_length_a   9.08329227
_cell_length_b   9.08329227
_cell_length_c   23.36978516
_cell_angle_alpha   90.00000000
_cell_angle_beta   90.00000000
_cell_angle_gamma   120.00000000
_symmetry_Int_Tables_number   1
_chemical_formula_structural   Lu2(SO4)3
_chemical_formula_sum   'Lu12 S18 O72'
_cell_volume   1669.82872719
_cell_formula_units_Z   6
loop_
 _symmetry_equiv_pos_site_id
 _symmetry_equiv_pos_as_xyz
  1  'x, y, z'
loop_
 _atom_site_type_symbol
 _atom_site_label
 _atom_site_symmetry_multiplicity
 _atom_site_fract_x
 _atom_site_fract_y
 _atom_site_fract_z
 _atom_site_occupancy
  Lu  Lu0  1  0.33333333  0.66666667  0.02263967  1
  Lu  Lu1  1  0.66666667  0.33333333  0.18930633  1
  Lu  Lu2  1  0.00000000  0.00000000  0.14402700  1
  Lu  Lu3  1  0.33333333  0.66666667  0.31069367  1
  Lu  Lu4  1  0.00000000  0.00000000  0.35597300  1
  Lu  Lu5  1  0.33333333  0.66666667  0.52263967  1
  Lu  Lu6  1  0.66666667  0.33333333  0.47736033  1
  Lu  Lu7  1  0.00000000  0.00000000  0.64402700  1
  Lu  Lu8  1  0.66666667  0.33333333  0.68930633  1
  Lu  Lu9  1  0.00000000  0.00000000  0.85597300  1
  Lu  Lu10  1  0.33333333  0.66666667  0.81069367  1
  Lu  Lu11  1  0.66666667  0.33333333  0.97736033  1
  S  S12  1  0.37921967  0.04588633  0.08333333  1
  S  S13  1  0.71255300  1.00000000  0.25000000  1
  S  S14  1  0.00000000  0.71255300  0.25000000  1
  S  S15  1  0.66666667  0.62078033  0.08333333  1
  S  S16  1  0.95411367  0.33333333  0.08333333  1
  S  S17  1  0.28744700  0.28744700  0.25000000  1
  S  S18  1  0.04588633  0.37921967  0.41666667  1
  S  S19  1  0.37921967  0.33333333  0.58333333  1
  S  S20  1  0.66666667  0.04588633  0.58333333  1
  S  S21  1  0.33333333  0.95411367  0.41666667  1
  S  S22  1  0.62078033  0.66666667  0.41666667  1
  S  S23  1  0.95411367  0.62078033  0.58333333  1
  S  S24  1  0.71255300  0.71255300  0.75000000  1
  S  S25  1  0.04588633  0.66666667  0.91666667  1
  S  S26  1  0.33333333  0.37921967  0.91666667  1
  S  S27  1  0.00000000  0.28744700  0.75000000  1
  S  S28  1  0.28744700  0.00000000  0.75000000  1
  S  S29  1  0.62078033  0.95411367  0.91666667  1
  O  O30  1  0.02810133  0.81991067  0.19885567  1
  O  O31  1  0.18008933  0.20819067  0.19885567  1
  O  O32  1  0.36089233  0.87609567  0.07519167  1
  O  O33  1  0.45847600  0.15324400  0.03218900  1
  O  O34  1  0.79180933  0.97189867  0.19885567  1
  O  O35  1  0.81991067  0.02810133  0.30114433  1
  O  O36  1  0.15146333  0.69422567  0.25814167  1
  O  O37  1  0.20942900  0.02755900  0.09147500  1
  O  O38  1  0.69422567  0.15146333  0.24185833  1
  O  O39  1  0.54276233  0.84853667  0.25814167  1
  O  O40  1  0.84853667  0.54276233  0.24185833  1
  O  O41  1  0.97189867  0.79180933  0.30114433  1
  O  O42  1  0.69476800  0.54152400  0.03218900  1
  O  O43  1  0.81813000  0.79057100  0.09147500  1
  O  O44  1  0.12390433  0.48479667  0.07519167  1
  O  O45  1  0.97244100  0.18187000  0.09147500  1
  O  O46  1  0.45723767  0.30577433  0.24185833  1
  O  O47  1  0.51520333  0.63910767  0.07519167  1
  O  O48  1  0.84675600  0.30523200  0.03218900  1
  O  O49  1  0.87485733  0.36143467  0.13447767  1
  O  O50  1  0.20819067  0.18008933  0.30114433  1
  O  O51  1  0.30577433  0.45723767  0.25814167  1
  O  O52  1  0.48657733  0.12514267  0.13447767  1
  O  O53  1  0.63856533  0.51342267  0.13447767  1
  O  O54  1  0.69476800  0.15324400  0.53218900  1
  O  O55  1  0.84675600  0.54152400  0.53218900  1
  O  O56  1  0.02755900  0.20942900  0.40852500  1
  O  O57  1  0.12514267  0.48657733  0.36552233  1
  O  O58  1  0.45847600  0.30523200  0.53218900  1
  O  O59  1  0.48657733  0.36143467  0.63447767  1
  O  O60  1  0.81813000  0.02755900  0.59147500  1
  O  O61  1  0.87609567  0.36089233  0.42480833  1
  O  O62  1  0.36089233  0.48479667  0.57519167  1
  O  O63  1  0.20942900  0.18187000  0.59147500  1
  O  O64  1  0.51520333  0.87609567  0.57519167  1
  O  O65  1  0.63856533  0.12514267  0.63447767  1
  O  O66  1  0.36143467  0.87485733  0.36552233  1
  O  O67  1  0.48479667  0.12390433  0.42480833  1
  O  O68  1  0.79057100  0.81813000  0.40852500  1
  O  O69  1  0.63910767  0.51520333  0.42480833  1
  O  O70  1  0.12390433  0.63910767  0.57519167  1
  O  O71  1  0.18187000  0.97244100  0.40852500  1
  O  O72  1  0.51342267  0.63856533  0.36552233  1
  O  O73  1  0.54152400  0.69476800  0.46781100  1
  O  O74  1  0.87485733  0.51342267  0.63447767  1
  O  O75  1  0.97244100  0.79057100  0.59147500  1
  O  O76  1  0.15324400  0.45847600  0.46781100  1
  O  O77  1  0.30523200  0.84675600  0.46781100  1
  O  O78  1  0.36143467  0.48657733  0.86552233  1
  O  O79  1  0.51342267  0.87485733  0.86552233  1
  O  O80  1  0.69422567  0.54276233  0.74185833  1
  O  O81  1  0.79180933  0.81991067  0.69885567  1
  O  O82  1  0.12514267  0.63856533  0.86552233  1
  O  O83  1  0.15324400  0.69476800  0.96781100  1
  O  O84  1  0.48479667  0.36089233  0.92480833  1
  O  O85  1  0.54276233  0.69422567  0.75814167  1
  O  O86  1  0.02755900  0.81813000  0.90852500  1
  O  O87  1  0.87609567  0.51520333  0.92480833  1
  O  O88  1  0.18187000  0.20942900  0.90852500  1
  O  O89  1  0.30523200  0.45847600  0.96781100  1
  O  O90  1  0.02810133  0.20819067  0.69885567  1
  O  O91  1  0.15146333  0.45723767  0.75814167  1
  O  O92  1  0.45723767  0.15146333  0.74185833  1
  O  O93  1  0.30577433  0.84853667  0.75814167  1
  O  O94  1  0.79057100  0.97244100  0.90852500  1
  O  O95  1  0.84853667  0.30577433  0.74185833  1
  O  O96  1  0.18008933  0.97189867  0.69885567  1
  O  O97  1  0.20819067  0.02810133  0.80114433  1
  O  O98  1  0.54152400  0.84675600  0.96781100  1
  O  O99  1  0.63910767  0.12390433  0.92480833  1
  O  O100  1  0.81991067  0.79180933  0.80114433  1
  O  O101  1  0.97189867  0.18008933  0.80114433  1
