# generated using pymatgen
data_Ca3Ta2O8
_symmetry_space_group_name_H-M   'P 1'
_cell_length_a   11.79025000
_cell_length_b   11.79025000
_cell_length_c   10.12975400
_cell_angle_alpha   90.00000000
_cell_angle_beta   90.00000000
_cell_angle_gamma   90.00000000
_symmetry_Int_Tables_number   1
_chemical_formula_structural   Ca3Ta2O8
_chemical_formula_sum   'Ca24 Ta16 O64'
_cell_volume   1408.13705352
_cell_formula_units_Z   8
loop_
 _symmetry_equiv_pos_site_id
 _symmetry_equiv_pos_as_xyz
  1  'x, y, z'
loop_
 _atom_site_type_symbol
 _atom_site_label
 _atom_site_symmetry_multiplicity
 _atom_site_fract_x
 _atom_site_fract_y
 _atom_site_fract_z
 _atom_site_occupancy
  Ca  Ca0  1  0.79942300  0.12665100  0.72443700  1
  Ca  Ca1  1  0.00000000  0.00000000  0.50000000  1
  Ca  Ca2  1  0.50000000  0.50000000  0.50000000  1
  Ca  Ca3  1  0.12665100  0.20057700  0.27556300  1
  Ca  Ca4  1  0.62665100  0.20057700  0.97443700  1
  Ca  Ca5  1  0.70057700  0.37334900  0.22443700  1
  Ca  Ca6  1  0.79942300  0.62665100  0.02556300  1
  Ca  Ca7  1  0.37334900  0.29942300  0.77556300  1
  Ca  Ca8  1  0.87334900  0.29942300  0.47443700  1
  Ca  Ca9  1  0.50000000  0.00000000  0.75000000  1
  Ca  Ca10  1  0.50000000  0.00000000  0.25000000  1
  Ca  Ca11  1  0.70057700  0.87334900  0.52556300  1
  Ca  Ca12  1  0.29942300  0.62665100  0.22443700  1
  Ca  Ca13  1  0.50000000  0.50000000  0.00000000  1
  Ca  Ca14  1  0.00000000  0.00000000  0.00000000  1
  Ca  Ca15  1  0.62665100  0.70057700  0.77556300  1
  Ca  Ca16  1  0.12665100  0.70057700  0.47443700  1
  Ca  Ca17  1  0.20057700  0.87334900  0.72443700  1
  Ca  Ca18  1  0.29942300  0.12665100  0.52556300  1
  Ca  Ca19  1  0.87334900  0.79942300  0.27556300  1
  Ca  Ca20  1  0.37334900  0.79942300  0.97443700  1
  Ca  Ca21  1  0.00000000  0.50000000  0.25000000  1
  Ca  Ca22  1  0.00000000  0.50000000  0.75000000  1
  Ca  Ca23  1  0.20057700  0.37334900  0.02556300  1
  Ta  Ta24  1  0.58072450  0.19499550  0.50022550  1
  Ta  Ta25  1  0.58072450  0.69499550  0.24977450  1
  Ta  Ta26  1  0.69499550  0.91927550  0.99977450  1
  Ta  Ta27  1  0.69499550  0.41927550  0.75022550  1
  Ta  Ta28  1  0.80500450  0.58072450  0.49977450  1
  Ta  Ta29  1  0.80500450  0.08072450  0.25022550  1
  Ta  Ta30  1  0.91927550  0.30500450  0.00022550  1
  Ta  Ta31  1  0.91927550  0.80500450  0.74977450  1
  Ta  Ta32  1  0.08072450  0.69499550  0.00022550  1
  Ta  Ta33  1  0.08072450  0.19499550  0.74977450  1
  Ta  Ta34  1  0.19499550  0.41927550  0.49977450  1
  Ta  Ta35  1  0.19499550  0.91927550  0.25022550  1
  Ta  Ta36  1  0.30500450  0.08072450  0.99977450  1
  Ta  Ta37  1  0.30500450  0.58072450  0.75022550  1
  Ta  Ta38  1  0.41927550  0.80500450  0.50022550  1
  Ta  Ta39  1  0.41927550  0.30500450  0.24977450  1
  O  O40  1  0.69027550  0.04002150  0.87185850  1
  O  O41  1  0.34805400  0.46082300  0.61423300  1
  O  O42  1  0.84805400  0.46082300  0.63576700  1
  O  O43  1  0.86477800  0.94498400  0.67979800  1
  O  O44  1  0.95997850  0.19027550  0.62185850  1
  O  O45  1  0.46082300  0.65194600  0.38576700  1
  O  O46  1  0.53917700  0.34805400  0.38576700  1
  O  O47  1  0.05501600  0.36477800  0.42979800  1
  O  O48  1  0.55501600  0.36477800  0.82020200  1
  O  O49  1  0.04002150  0.80972450  0.62185850  1
  O  O50  1  0.63522200  0.55501600  0.17979800  1
  O  O51  1  0.68727850  0.78819250  0.14498450  1
  O  O52  1  0.68727850  0.28819250  0.60501550  1
  O  O53  1  0.19027550  0.04002150  0.37814150  1
  O  O54  1  0.71180750  0.18727850  0.35501550  1
  O  O55  1  0.71180750  0.68727850  0.39498450  1
  O  O56  1  0.78819250  0.31272150  0.85501550  1
  O  O57  1  0.78819250  0.81272150  0.89498450  1
  O  O58  1  0.80972450  0.45997850  0.37185850  1
  O  O59  1  0.81272150  0.21180750  0.10501550  1
  O  O60  1  0.81272150  0.71180750  0.64498450  1
  O  O61  1  0.86477800  0.44498400  0.07020200  1
  O  O62  1  0.45997850  0.19027550  0.62814150  1
  O  O63  1  0.94498400  0.13522200  0.32020200  1
  O  O64  1  0.44498400  0.13522200  0.92979800  1
  O  O65  1  0.46082300  0.15194600  0.36423300  1
  O  O66  1  0.53917700  0.84805400  0.36423300  1
  O  O67  1  0.04002150  0.30972450  0.12814150  1
  O  O68  1  0.63522200  0.05501600  0.57020200  1
  O  O69  1  0.65194600  0.53917700  0.61423300  1
  O  O70  1  0.15194600  0.53917700  0.63576700  1
  O  O71  1  0.80972450  0.95997850  0.37814150  1
  O  O72  1  0.19027550  0.54002150  0.37185850  1
  O  O73  1  0.84805400  0.96082300  0.11423300  1
  O  O74  1  0.34805400  0.96082300  0.13576700  1
  O  O75  1  0.36477800  0.44498400  0.17979800  1
  O  O76  1  0.45997850  0.69027550  0.12185850  1
  O  O77  1  0.96082300  0.15194600  0.88576700  1
  O  O78  1  0.03917700  0.84805400  0.88576700  1
  O  O79  1  0.55501600  0.86477800  0.92979800  1
  O  O80  1  0.05501600  0.86477800  0.32020200  1
  O  O81  1  0.54002150  0.30972450  0.12185850  1
  O  O82  1  0.13522200  0.05501600  0.67979800  1
  O  O83  1  0.18727850  0.28819250  0.64498450  1
  O  O84  1  0.18727850  0.78819250  0.10501550  1
  O  O85  1  0.69027550  0.54002150  0.87814150  1
  O  O86  1  0.21180750  0.68727850  0.85501550  1
  O  O87  1  0.21180750  0.18727850  0.89498450  1
  O  O88  1  0.28819250  0.81272150  0.35501550  1
  O  O89  1  0.28819250  0.31272150  0.39498450  1
  O  O90  1  0.30972450  0.95997850  0.87185850  1
  O  O91  1  0.31272150  0.71180750  0.60501550  1
  O  O92  1  0.31272150  0.21180750  0.14498450  1
  O  O93  1  0.36477800  0.94498400  0.57020200  1
  O  O94  1  0.95997850  0.69027550  0.12814150  1
  O  O95  1  0.44498400  0.63522200  0.82020200  1
  O  O96  1  0.94498400  0.63522200  0.42979800  1
  O  O97  1  0.96082300  0.65194600  0.86423300  1
  O  O98  1  0.03917700  0.34805400  0.86423300  1
  O  O99  1  0.54002150  0.80972450  0.62814150  1
  O  O100  1  0.13522200  0.55501600  0.07020200  1
  O  O101  1  0.15194600  0.03917700  0.11423300  1
  O  O102  1  0.65194600  0.03917700  0.13576700  1
  O  O103  1  0.30972450  0.45997850  0.87814150  1
