# generated using pymatgen
data_LiBi(PO3)4
_symmetry_space_group_name_H-M   'P 1'
_cell_length_a   8.08411800
_cell_length_b   11.89312600
_cell_length_c   10.37809238
_cell_angle_alpha   90.00000000
_cell_angle_beta   96.29479658
_cell_angle_gamma   90.00000000
_symmetry_Int_Tables_number   1
_chemical_formula_structural   LiBi(PO3)4
_chemical_formula_sum   'Li4 Bi4 P16 O48'
_cell_volume   991.79033935
_cell_formula_units_Z   4
loop_
 _symmetry_equiv_pos_site_id
 _symmetry_equiv_pos_as_xyz
  1  'x, y, z'
loop_
 _atom_site_type_symbol
 _atom_site_label
 _atom_site_symmetry_multiplicity
 _atom_site_fract_x
 _atom_site_fract_y
 _atom_site_fract_z
 _atom_site_occupancy
  Li  Li0  1  0.50000000  0.17103200  0.75000000  1
  Li  Li1  1  0.50000000  0.82896800  0.25000000  1
  Li  Li2  1  0.00000000  0.67103200  0.75000000  1
  Li  Li3  1  0.00000000  0.32896800  0.25000000  1
  Bi  Bi4  1  0.50000000  0.88097900  0.75000000  1
  Bi  Bi5  1  0.50000000  0.11902100  0.25000000  1
  Bi  Bi6  1  0.00000000  0.38097900  0.75000000  1
  Bi  Bi7  1  0.00000000  0.61902100  0.25000000  1
  P  P8  1  0.52782350  0.31417950  0.00598200  1
  P  P9  1  0.52782350  0.68582050  0.50598200  1
  P  P10  1  0.23797900  0.02514000  0.94380500  1
  P  P11  1  0.76202100  0.02514000  0.55619500  1
  P  P12  1  0.23797900  0.97486000  0.44380500  1
  P  P13  1  0.76202100  0.97486000  0.05619500  1
  P  P14  1  0.47217650  0.31417950  0.49401800  1
  P  P15  1  0.47217650  0.68582050  0.99401800  1
  P  P16  1  0.02782350  0.81417950  0.00598200  1
  P  P17  1  0.02782350  0.18582050  0.50598200  1
  P  P18  1  0.73797900  0.52514000  0.94380500  1
  P  P19  1  0.26202100  0.52514000  0.55619500  1
  P  P20  1  0.73797900  0.47486000  0.44380500  1
  P  P21  1  0.26202100  0.47486000  0.05619500  1
  P  P22  1  0.97217650  0.81417950  0.49401800  1
  P  P23  1  0.97217650  0.18582050  0.99401800  1
  O  O24  1  0.44315250  0.24933350  0.89581900  1
  O  O25  1  0.63851800  0.74567800  0.61140000  1
  O  O26  1  0.32738400  0.01462500  0.82340200  1
  O  O27  1  0.44315250  0.75066650  0.39581900  1
  O  O28  1  0.66082350  0.96092750  0.92718500  1
  O  O29  1  0.63851800  0.25432200  0.11140000  1
  O  O30  1  0.88392400  0.91998600  0.55412000  1
  O  O31  1  0.60940700  0.62552700  0.91249000  1
  O  O32  1  0.39059300  0.62552700  0.58751000  1
  O  O33  1  0.11607600  0.91998600  0.94588000  1
  O  O34  1  0.32738400  0.98537500  0.32340200  1
  O  O35  1  0.33917650  0.96092750  0.57281500  1
  O  O36  1  0.66082350  0.03907250  0.42718500  1
  O  O37  1  0.67261600  0.01462500  0.67659800  1
  O  O38  1  0.88392400  0.08001400  0.05412000  1
  O  O39  1  0.60940700  0.37447300  0.41249000  1
  O  O40  1  0.39059300  0.37447300  0.08751000  1
  O  O41  1  0.11607600  0.08001400  0.44588000  1
  O  O42  1  0.36148200  0.74567800  0.88860000  1
  O  O43  1  0.33917650  0.03907250  0.07281500  1
  O  O44  1  0.55684750  0.24933350  0.60418100  1
  O  O45  1  0.67261600  0.98537500  0.17659800  1
  O  O46  1  0.36148200  0.25432200  0.38860000  1
  O  O47  1  0.55684750  0.75066650  0.10418100  1
  O  O48  1  0.94315250  0.74933350  0.89581900  1
  O  O49  1  0.13851800  0.24567800  0.61140000  1
  O  O50  1  0.82738400  0.51462500  0.82340200  1
  O  O51  1  0.94315250  0.25066650  0.39581900  1
  O  O52  1  0.16082350  0.46092750  0.92718500  1
  O  O53  1  0.13851800  0.75432200  0.11140000  1
  O  O54  1  0.38392400  0.41998600  0.55412000  1
  O  O55  1  0.10940700  0.12552700  0.91249000  1
  O  O56  1  0.89059300  0.12552700  0.58751000  1
  O  O57  1  0.61607600  0.41998600  0.94588000  1
  O  O58  1  0.82738400  0.48537500  0.32340200  1
  O  O59  1  0.83917650  0.46092750  0.57281500  1
  O  O60  1  0.16082350  0.53907250  0.42718500  1
  O  O61  1  0.17261600  0.51462500  0.67659800  1
  O  O62  1  0.38392400  0.58001400  0.05412000  1
  O  O63  1  0.10940700  0.87447300  0.41249000  1
  O  O64  1  0.89059300  0.87447300  0.08751000  1
  O  O65  1  0.61607600  0.58001400  0.44588000  1
  O  O66  1  0.86148200  0.24567800  0.88860000  1
  O  O67  1  0.83917650  0.53907250  0.07281500  1
  O  O68  1  0.05684750  0.74933350  0.60418100  1
  O  O69  1  0.17261600  0.48537500  0.17659800  1
  O  O70  1  0.86148200  0.75432200  0.38860000  1
  O  O71  1  0.05684750  0.25066650  0.10418100  1
