# generated using pymatgen
data_Li4Si2NiO7
_symmetry_space_group_name_H-M   'P 1'
_cell_length_a   13.29343600
_cell_length_b   5.46078200
_cell_length_c   8.01996211
_cell_angle_alpha   90.00000000
_cell_angle_beta   95.53038682
_cell_angle_gamma   90.00000000
_symmetry_Int_Tables_number   1
_chemical_formula_structural   Li4Si2NiO7
_chemical_formula_sum   'Li16 Si8 Ni4 O28'
_cell_volume   579.47958811
_cell_formula_units_Z   4
loop_
 _symmetry_equiv_pos_site_id
 _symmetry_equiv_pos_as_xyz
  1  'x, y, z'
loop_
 _atom_site_type_symbol
 _atom_site_label
 _atom_site_symmetry_multiplicity
 _atom_site_fract_x
 _atom_site_fract_y
 _atom_site_fract_z
 _atom_site_occupancy
  Li  Li0  1  0.57592650  0.15819450  0.87552500  1
  Li  Li1  1  0.57592650  0.84180550  0.37552500  1
  Li  Li2  1  0.70816550  0.17290150  0.59598600  1
  Li  Li3  1  0.70816550  0.82709850  0.09598600  1
  Li  Li4  1  0.77790600  0.35258700  0.94733400  1
  Li  Li5  1  0.77790600  0.64741300  0.44733400  1
  Li  Li6  1  0.50343650  0.68788750  0.02220700  1
  Li  Li7  1  0.50343650  0.31211250  0.52220700  1
  Li  Li8  1  0.07592650  0.65819450  0.87552500  1
  Li  Li9  1  0.07592650  0.34180550  0.37552500  1
  Li  Li10  1  0.20816550  0.67290150  0.59598600  1
  Li  Li11  1  0.20816550  0.32709850  0.09598600  1
  Li  Li12  1  0.27790600  0.85258700  0.94733400  1
  Li  Li13  1  0.27790600  0.14741300  0.44733400  1
  Li  Li14  1  0.00343650  0.18788750  0.02220700  1
  Li  Li15  1  0.00343650  0.81211250  0.52220700  1
  Si  Si16  1  0.63665900  0.66968000  0.74065800  1
  Si  Si17  1  0.63665900  0.33032000  0.24065800  1
  Si  Si18  1  0.92475300  0.33139800  0.66773900  1
  Si  Si19  1  0.92475300  0.66860200  0.16773900  1
  Si  Si20  1  0.13665900  0.16968000  0.74065800  1
  Si  Si21  1  0.13665900  0.83032000  0.24065800  1
  Si  Si22  1  0.42475300  0.83139800  0.66773900  1
  Si  Si23  1  0.42475300  0.16860200  0.16773900  1
  Ni  Ni24  1  0.85371350  0.83881550  0.79687200  1
  Ni  Ni25  1  0.85371350  0.16118450  0.29687200  1
  Ni  Ni26  1  0.35371350  0.33881550  0.79687200  1
  Ni  Ni27  1  0.35371350  0.66118450  0.29687200  1
  O  O28  1  0.52785700  0.68810100  0.60201200  1
  O  O29  1  0.52785700  0.31189900  0.10201200  1
  O  O30  1  0.60972950  0.81796350  0.90602900  1
  O  O31  1  0.60972950  0.18203650  0.40602900  1
  O  O32  1  0.66235600  0.38227800  0.77338000  1
  O  O33  1  0.66235600  0.61772200  0.27338000  1
  O  O34  1  0.72638250  0.80929050  0.64699700  1
  O  O35  1  0.72638250  0.19070950  0.14699700  1
  O  O36  1  0.83397700  0.30837700  0.51495500  1
  O  O37  1  0.83397700  0.69162300  0.01495500  1
  O  O38  1  0.89063600  0.19007100  0.83482600  1
  O  O39  1  0.89063600  0.80992900  0.33482600  1
  O  O40  1  0.95301750  0.61988250  0.70516100  1
  O  O41  1  0.95301750  0.38011750  0.20516100  1
  O  O42  1  0.02785700  0.18810100  0.60201200  1
  O  O43  1  0.02785700  0.81189900  0.10201200  1
  O  O44  1  0.10972950  0.31796350  0.90602900  1
  O  O45  1  0.10972950  0.68203650  0.40602900  1
  O  O46  1  0.16235600  0.88227800  0.77338000  1
  O  O47  1  0.16235600  0.11772200  0.27338000  1
  O  O48  1  0.22638250  0.30929050  0.64699700  1
  O  O49  1  0.22638250  0.69070950  0.14699700  1
  O  O50  1  0.33397700  0.80837700  0.51495500  1
  O  O51  1  0.33397700  0.19162300  0.01495500  1
  O  O52  1  0.39063600  0.69007100  0.83482600  1
  O  O53  1  0.39063600  0.30992900  0.33482600  1
  O  O54  1  0.45301750  0.11988250  0.70516100  1
  O  O55  1  0.45301750  0.88011750  0.20516100  1
