# generated using pymatgen
data_LaSCl
_symmetry_space_group_name_H-M   'P 1'
_cell_length_a   6.98150600
_cell_length_b   7.07965700
_cell_length_c   42.19815000
_cell_angle_alpha   90.00000000
_cell_angle_beta   90.00000000
_cell_angle_gamma   90.00000000
_symmetry_Int_Tables_number   1
_chemical_formula_structural   LaSCl
_chemical_formula_sum   'La24 S24 Cl24'
_cell_volume   2085.71394281
_cell_formula_units_Z   24
loop_
 _symmetry_equiv_pos_site_id
 _symmetry_equiv_pos_as_xyz
  1  'x, y, z'
loop_
 _atom_site_type_symbol
 _atom_site_label
 _atom_site_symmetry_multiplicity
 _atom_site_fract_x
 _atom_site_fract_y
 _atom_site_fract_z
 _atom_site_occupancy
  La  La0  1  0.28605400  0.25000000  0.00000000  1
  La  La1  1  0.28605400  0.25000000  0.50000000  1
  La  La2  1  0.31493300  0.79443900  0.25000000  1
  La  La3  1  0.31493300  0.70556100  0.75000000  1
  La  La4  1  0.30145100  0.23010600  0.16545900  1
  La  La5  1  0.30145100  0.23010600  0.33454100  1
  La  La6  1  0.30145100  0.26989400  0.66545900  1
  La  La7  1  0.30145100  0.26989400  0.83454100  1
  La  La8  1  0.30333900  0.80595200  0.08287500  1
  La  La9  1  0.30333900  0.80595200  0.41712500  1
  La  La10  1  0.30333900  0.69404800  0.58287500  1
  La  La11  1  0.30333900  0.69404800  0.91712500  1
  La  La12  1  0.69666100  0.30595200  0.08287500  1
  La  La13  1  0.69666100  0.30595200  0.41712500  1
  La  La14  1  0.69666100  0.19404800  0.58287500  1
  La  La15  1  0.69666100  0.19404800  0.91712500  1
  La  La16  1  0.69854900  0.73010600  0.16545900  1
  La  La17  1  0.69854900  0.73010600  0.33454100  1
  La  La18  1  0.69854900  0.76989400  0.83454100  1
  La  La19  1  0.69854900  0.76989400  0.66545900  1
  La  La20  1  0.68506700  0.29443900  0.25000000  1
  La  La21  1  0.68506700  0.20556100  0.75000000  1
  La  La22  1  0.71394600  0.75000000  0.00000000  1
  La  La23  1  0.71394600  0.75000000  0.50000000  1
  S  S24  1  0.45364100  0.51473700  0.37409500  1
  S  S25  1  0.45364100  0.51473700  0.12590500  1
  S  S26  1  0.45364100  0.98526300  0.62590500  1
  S  S27  1  0.45364100  0.98526300  0.87409500  1
  S  S28  1  0.45686000  0.51471100  0.20883800  1
  S  S29  1  0.45686000  0.51471100  0.29116200  1
  S  S30  1  0.45686000  0.98528900  0.70883800  1
  S  S31  1  0.45686000  0.98528900  0.79116200  1
  S  S32  1  0.46687600  0.53648900  0.04130400  1
  S  S33  1  0.46687600  0.96351100  0.54130400  1
  S  S34  1  0.46687600  0.53648900  0.45869600  1
  S  S35  1  0.46687600  0.96351100  0.95869600  1
  S  S36  1  0.53312400  0.03648900  0.04130400  1
  S  S37  1  0.53312400  0.03648900  0.45869600  1
  S  S38  1  0.53312400  0.46351100  0.54130400  1
  S  S39  1  0.53312400  0.46351100  0.95869600  1
  S  S40  1  0.54314000  0.01471100  0.20883800  1
  S  S41  1  0.54314000  0.01471100  0.29116200  1
  S  S42  1  0.54314000  0.48528900  0.70883800  1
  S  S43  1  0.54314000  0.48528900  0.79116200  1
  S  S44  1  0.54635900  0.01473700  0.12590500  1
  S  S45  1  0.54635900  0.01473700  0.37409500  1
  S  S46  1  0.54635900  0.48526300  0.62590500  1
  S  S47  1  0.54635900  0.48526300  0.87409500  1
  Cl  Cl48  1  0.04420800  0.91870500  0.03488700  1
  Cl  Cl49  1  0.04420800  0.91870500  0.46511300  1
  Cl  Cl50  1  0.04420800  0.58129500  0.53488700  1
  Cl  Cl51  1  0.04420800  0.58129500  0.96511300  1
  Cl  Cl52  1  0.06647600  0.14042700  0.11055300  1
  Cl  Cl53  1  0.06647600  0.14042700  0.38944700  1
  Cl  Cl54  1  0.06647600  0.35957300  0.61055300  1
  Cl  Cl55  1  0.06647600  0.35957300  0.88944700  1
  Cl  Cl56  1  0.06922600  0.88531900  0.19344900  1
  Cl  Cl57  1  0.06922600  0.88531900  0.30655100  1
  Cl  Cl58  1  0.06922600  0.61468100  0.69344900  1
  Cl  Cl59  1  0.06922600  0.61468100  0.80655100  1
  Cl  Cl60  1  0.93077400  0.11468100  0.80655100  1
  Cl  Cl61  1  0.93077400  0.38531900  0.19344900  1
  Cl  Cl62  1  0.93077400  0.38531900  0.30655100  1
  Cl  Cl63  1  0.93077400  0.11468100  0.69344900  1
  Cl  Cl64  1  0.93352400  0.64042700  0.11055300  1
  Cl  Cl65  1  0.93352400  0.64042700  0.38944700  1
  Cl  Cl66  1  0.93352400  0.85957300  0.61055300  1
  Cl  Cl67  1  0.93352400  0.85957300  0.88944700  1
  Cl  Cl68  1  0.95579200  0.41870500  0.03488700  1
  Cl  Cl69  1  0.95579200  0.41870500  0.46511300  1
  Cl  Cl70  1  0.95579200  0.08129500  0.53488700  1
  Cl  Cl71  1  0.95579200  0.08129500  0.96511300  1
