# generated using pymatgen
data_CrP2O7
_symmetry_space_group_name_H-M   'P 1'
_cell_length_a   5.11666900
_cell_length_b   8.20738100
_cell_length_c   13.68289130
_cell_angle_alpha   90.00000000
_cell_angle_beta   106.46322215
_cell_angle_gamma   90.00000000
_symmetry_Int_Tables_number   1
_chemical_formula_structural   CrP2O7
_chemical_formula_sum   'Cr4 P8 O28'
_cell_volume   551.04775473
_cell_formula_units_Z   4
loop_
 _symmetry_equiv_pos_site_id
 _symmetry_equiv_pos_as_xyz
  1  'x, y, z'
loop_
 _atom_site_type_symbol
 _atom_site_label
 _atom_site_symmetry_multiplicity
 _atom_site_fract_x
 _atom_site_fract_y
 _atom_site_fract_z
 _atom_site_occupancy
  Cr  Cr0  1  0.14264400  0.84826700  0.86711600  1
  Cr  Cr1  1  0.85735600  0.15173300  0.13288400  1
  Cr  Cr2  1  0.14264400  0.65173300  0.36711600  1
  Cr  Cr3  1  0.85735600  0.34826700  0.63288400  1
  P  P4  1  0.04830200  0.45529700  0.81357900  1
  P  P5  1  0.04830200  0.04470300  0.31357900  1
  P  P6  1  0.95169800  0.95529700  0.68642100  1
  P  P7  1  0.95169800  0.54470300  0.18642100  1
  P  P8  1  0.76539200  0.80081800  0.02060500  1
  P  P9  1  0.76539200  0.69918200  0.52060500  1
  P  P10  1  0.23460800  0.19918200  0.97939500  1
  P  P11  1  0.23460800  0.30081800  0.47939500  1
  O  O12  1  0.02781400  0.67112700  0.49039600  1
  O  O13  1  0.80020200  0.62809100  0.08116800  1
  O  O14  1  0.19979800  0.12809100  0.41883200  1
  O  O15  1  0.99202000  0.13063900  0.65956600  1
  O  O16  1  0.19979800  0.37190900  0.91883200  1
  O  O17  1  0.22697200  0.86815400  0.73761300  1
  O  O18  1  0.48555800  0.27017800  0.56747700  1
  O  O19  1  0.99202000  0.36936100  0.15956600  1
  O  O20  1  0.97218600  0.32887300  0.50960400  1
  O  O21  1  0.73066500  0.93212200  0.09576600  1
  O  O22  1  0.80558100  0.56450600  0.27023900  1
  O  O23  1  0.22697200  0.63184600  0.23761300  1
  O  O24  1  0.77302800  0.13184600  0.26238700  1
  O  O25  1  0.19441900  0.06450600  0.22976100  1
  O  O26  1  0.48555800  0.22982200  0.06747700  1
  O  O27  1  0.80020200  0.87190900  0.58116800  1
  O  O28  1  0.51444200  0.72982200  0.43252300  1
  O  O29  1  0.73066500  0.56787800  0.59576600  1
  O  O30  1  0.26933500  0.43212200  0.40423400  1
  O  O31  1  0.02781400  0.82887300  0.99039600  1
  O  O32  1  0.80558100  0.93549400  0.77023900  1
  O  O33  1  0.51444200  0.77017800  0.93252300  1
  O  O34  1  0.19441900  0.43549400  0.72976100  1
  O  O35  1  0.00798000  0.86936100  0.34043400  1
  O  O36  1  0.97218600  0.17112700  0.00960400  1
  O  O37  1  0.26933500  0.06787800  0.90423400  1
  O  O38  1  0.77302800  0.36815400  0.76238700  1
  O  O39  1  0.00798000  0.63063900  0.84043400  1
