# generated using pymatgen
data_LiTi2P3O11
_symmetry_space_group_name_H-M   'P 1'
_cell_length_a   11.76290800
_cell_length_b   8.78911200
_cell_length_c   8.86025720
_cell_angle_alpha   90.00000000
_cell_angle_beta   115.67668556
_cell_angle_gamma   90.00000000
_symmetry_Int_Tables_number   1
_chemical_formula_structural   LiTi2P3O11
_chemical_formula_sum   'Li4 Ti8 P12 O44'
_cell_volume   825.56818504
_cell_formula_units_Z   4
loop_
 _symmetry_equiv_pos_site_id
 _symmetry_equiv_pos_as_xyz
  1  'x, y, z'
loop_
 _atom_site_type_symbol
 _atom_site_label
 _atom_site_symmetry_multiplicity
 _atom_site_fract_x
 _atom_site_fract_y
 _atom_site_fract_z
 _atom_site_occupancy
  Li  Li0  1  0.25110400  0.73578200  0.73898300  1
  Li  Li1  1  0.74889600  0.73578200  0.26101700  1
  Li  Li2  1  0.75110400  0.23578200  0.73898300  1
  Li  Li3  1  0.24889600  0.23578200  0.26101700  1
  Ti  Ti4  1  0.12450300  0.23469500  0.79400900  1
  Ti  Ti5  1  0.12394450  0.76476650  0.29271700  1
  Ti  Ti6  1  0.87549700  0.23469500  0.20599100  1
  Ti  Ti7  1  0.87605550  0.76476650  0.70728300  1
  Ti  Ti8  1  0.62450300  0.73469500  0.79400900  1
  Ti  Ti9  1  0.62394450  0.26476650  0.29271700  1
  Ti  Ti10  1  0.37549700  0.73469500  0.20599100  1
  Ti  Ti11  1  0.37605550  0.26476650  0.70728300  1
  P  P12  1  0.11128300  0.56282000  0.96300800  1
  P  P13  1  0.00000000  0.04587700  0.00000000  1
  P  P14  1  0.11233000  0.43593700  0.46420400  1
  P  P15  1  0.88871700  0.56282000  0.03699200  1
  P  P16  1  0.00000000  0.95473900  0.50000000  1
  P  P17  1  0.88767000  0.43593700  0.53579600  1
  P  P18  1  0.61128300  0.06282000  0.96300800  1
  P  P19  1  0.50000000  0.54587700  0.00000000  1
  P  P20  1  0.61233000  0.93593700  0.46420400  1
  P  P21  1  0.38871700  0.06282000  0.03699200  1
  P  P22  1  0.50000000  0.45473900  0.50000000  1
  P  P23  1  0.38767000  0.93593700  0.53579600  1
  O  O24  1  0.43606050  0.44424150  0.84288700  1
  O  O25  1  0.43649250  0.55699250  0.34361000  1
  O  O26  1  0.18138500  0.42679200  0.93814000  1
  O  O27  1  0.19072150  0.65344450  0.12562400  1
  O  O28  1  0.05769200  0.66899200  0.81169100  1
  O  O29  1  0.10698500  0.14710000  0.99694700  1
  O  O30  1  0.18275400  0.57455500  0.44465200  1
  O  O31  1  0.00000000  0.49103200  0.00000000  1
  O  O32  1  0.19137150  0.34505750  0.62669400  1
  O  O33  1  0.06039450  0.33028350  0.31269900  1
  O  O34  1  0.10637550  0.85311450  0.49533100  1
  O  O35  1  0.89301500  0.14710000  0.00305300  1
  O  O36  1  0.94230800  0.66899200  0.18830900  1
  O  O37  1  0.80927850  0.65344450  0.87437600  1
  O  O38  1  0.00000000  0.50623700  0.50000000  1
  O  O39  1  0.81861500  0.42679200  0.06186000  1
  O  O40  1  0.89362450  0.85311450  0.50466900  1
  O  O41  1  0.93960550  0.33028350  0.68730100  1
  O  O42  1  0.80862850  0.34505750  0.37330600  1
  O  O43  1  0.81724600  0.57455500  0.55534800  1
  O  O44  1  0.56393950  0.44424150  0.15711300  1
  O  O45  1  0.56350750  0.55699250  0.65639000  1
  O  O46  1  0.93606050  0.94424150  0.84288700  1
  O  O47  1  0.93649250  0.05699250  0.34361000  1
  O  O48  1  0.68138500  0.92679200  0.93814000  1
  O  O49  1  0.69072150  0.15344450  0.12562400  1
  O  O50  1  0.55769200  0.16899200  0.81169100  1
  O  O51  1  0.60698500  0.64710000  0.99694700  1
  O  O52  1  0.68275400  0.07455500  0.44465200  1
  O  O53  1  0.50000000  0.99103200  0.00000000  1
  O  O54  1  0.69137150  0.84505750  0.62669400  1
  O  O55  1  0.56039450  0.83028350  0.31269900  1
  O  O56  1  0.60637550  0.35311450  0.49533100  1
  O  O57  1  0.39301500  0.64710000  0.00305300  1
  O  O58  1  0.44230800  0.16899200  0.18830900  1
  O  O59  1  0.30927850  0.15344450  0.87437600  1
  O  O60  1  0.50000000  0.00623700  0.50000000  1
  O  O61  1  0.31861500  0.92679200  0.06186000  1
  O  O62  1  0.39362450  0.35311450  0.50466900  1
  O  O63  1  0.43960550  0.83028350  0.68730100  1
  O  O64  1  0.30862850  0.84505750  0.37330600  1
  O  O65  1  0.31724600  0.07455500  0.55534800  1
  O  O66  1  0.06393950  0.94424150  0.15711300  1
  O  O67  1  0.06350750  0.05699250  0.65639000  1
