# generated using pymatgen
data_Sr3La4O9
_symmetry_space_group_name_H-M   'P 1'
_cell_length_a   11.86183000
_cell_length_b   7.34606600
_cell_length_c   13.53559925
_cell_angle_alpha   90.00000000
_cell_angle_beta   115.43717423
_cell_angle_gamma   90.00000000
_symmetry_Int_Tables_number   1
_chemical_formula_structural   Sr3La4O9
_chemical_formula_sum   'Sr12 La16 O36'
_cell_volume   1065.12132120
_cell_formula_units_Z   4
loop_
 _symmetry_equiv_pos_site_id
 _symmetry_equiv_pos_as_xyz
  1  'x, y, z'
loop_
 _atom_site_type_symbol
 _atom_site_label
 _atom_site_symmetry_multiplicity
 _atom_site_fract_x
 _atom_site_fract_y
 _atom_site_fract_z
 _atom_site_occupancy
  Sr  Sr0  1  0.02078600  0.56273900  0.55314000  1
  Sr  Sr1  1  0.11880150  0.66343750  0.82837600  1
  Sr  Sr2  1  0.52078600  0.93726100  0.05314000  1
  Sr  Sr3  1  0.70476100  0.41301000  0.49766100  1
  Sr  Sr4  1  0.61880150  0.83656250  0.32837600  1
  Sr  Sr5  1  0.70476100  0.58699000  0.99766100  1
  Sr  Sr6  1  0.52078600  0.06273900  0.55314000  1
  Sr  Sr7  1  0.61880150  0.16343750  0.82837600  1
  Sr  Sr8  1  0.02078600  0.43726100  0.05314000  1
  Sr  Sr9  1  0.20476100  0.91301000  0.49766100  1
  Sr  Sr10  1  0.11880150  0.33656250  0.32837600  1
  Sr  Sr11  1  0.20476100  0.08699000  0.99766100  1
  La  La12  1  0.82623000  0.11904700  0.11769000  1
  La  La13  1  0.88094100  0.68516000  0.27821600  1
  La  La14  1  0.82623000  0.88095300  0.61769000  1
  La  La15  1  0.62143000  0.36202700  0.20950400  1
  La  La16  1  0.88094100  0.31484000  0.77821600  1
  La  La17  1  0.89759500  0.86916500  0.91347600  1
  La  La18  1  0.62143000  0.63797300  0.70950400  1
  La  La19  1  0.39759500  0.63083500  0.41347600  1
  La  La20  1  0.32623000  0.61904700  0.11769000  1
  La  La21  1  0.38094100  0.18516000  0.27821600  1
  La  La22  1  0.32623000  0.38095300  0.61769000  1
  La  La23  1  0.12143000  0.86202700  0.20950400  1
  La  La24  1  0.38094100  0.81484000  0.77821600  1
  La  La25  1  0.39759500  0.36916500  0.91347600  1
  La  La26  1  0.12143000  0.13797300  0.70950400  1
  La  La27  1  0.89759500  0.13083500  0.41347600  1
  O  O28  1  0.89500650  0.80740650  0.09602200  1
  O  O29  1  0.15543750  0.84148750  0.66095100  1
  O  O30  1  0.08908700  0.36948400  0.90447400  1
  O  O31  1  0.85427450  0.82401150  0.44803900  1
  O  O32  1  0.61500300  0.26967900  0.02336900  1
  O  O33  1  0.00192400  0.98159600  0.80267000  1
  O  O34  1  0.71874850  0.06204550  0.23297200  1
  O  O35  1  0.65543750  0.65851250  0.16095100  1
  O  O36  1  0.90198000  0.58348400  0.67418700  1
  O  O37  1  0.58908700  0.13051600  0.40447400  1
  O  O38  1  0.85427450  0.17598850  0.94803900  1
  O  O39  1  0.81486800  0.56804300  0.87148800  1
  O  O40  1  0.61500300  0.73032100  0.52336900  1
  O  O41  1  0.50192400  0.51840400  0.30267000  1
  O  O42  1  0.71874850  0.93795450  0.73297200  1
  O  O43  1  0.40198000  0.91651600  0.17418700  1
  O  O44  1  0.31486800  0.93195700  0.37148800  1
  O  O45  1  0.39500650  0.69259350  0.59602200  1
  O  O46  1  0.39500650  0.30740650  0.09602200  1
  O  O47  1  0.65543750  0.34148750  0.66095100  1
  O  O48  1  0.58908700  0.86948400  0.90447400  1
  O  O49  1  0.35427450  0.32401150  0.44803900  1
  O  O50  1  0.11500300  0.76967900  0.02336900  1
  O  O51  1  0.50192400  0.48159600  0.80267000  1
  O  O52  1  0.21874850  0.56204550  0.23297200  1
  O  O53  1  0.15543750  0.15851250  0.16095100  1
  O  O54  1  0.40198000  0.08348400  0.67418700  1
  O  O55  1  0.08908700  0.63051600  0.40447400  1
  O  O56  1  0.35427450  0.67598850  0.94803900  1
  O  O57  1  0.31486800  0.06804300  0.87148800  1
  O  O58  1  0.11500300  0.23032100  0.52336900  1
  O  O59  1  0.00192400  0.01840400  0.30267000  1
  O  O60  1  0.21874850  0.43795450  0.73297200  1
  O  O61  1  0.90198000  0.41651600  0.17418700  1
  O  O62  1  0.81486800  0.43195700  0.37148800  1
  O  O63  1  0.89500650  0.19259350  0.59602200  1
