# generated using pymatgen
data_GdIO
_symmetry_space_group_name_H-M   'P 1'
_cell_length_a   8.07634800
_cell_length_b   11.53615600
_cell_length_c   12.22882000
_cell_angle_alpha   90.00000000
_cell_angle_beta   90.00000000
_cell_angle_gamma   90.00000000
_symmetry_Int_Tables_number   1
_chemical_formula_structural   GdIO
_chemical_formula_sum   'Gd16 I16 O16'
_cell_volume   1139.35928705
_cell_formula_units_Z   16
loop_
 _symmetry_equiv_pos_site_id
 _symmetry_equiv_pos_as_xyz
  1  'x, y, z'
loop_
 _atom_site_type_symbol
 _atom_site_label
 _atom_site_symmetry_multiplicity
 _atom_site_fract_x
 _atom_site_fract_y
 _atom_site_fract_z
 _atom_site_occupancy
  Gd  Gd0  1  0.50000000  0.85153300  0.00000000  1
  Gd  Gd1  1  0.75000000  0.10153300  0.25000000  1
  Gd  Gd2  1  0.50000000  0.14846700  0.00000000  1
  Gd  Gd3  1  0.75000000  0.39846700  0.25000000  1
  Gd  Gd4  1  0.50000000  0.35153300  0.50000000  1
  Gd  Gd5  1  0.75000000  0.60153300  0.75000000  1
  Gd  Gd6  1  0.50000000  0.64846700  0.50000000  1
  Gd  Gd7  1  0.75000000  0.89846700  0.75000000  1
  Gd  Gd8  1  0.00000000  0.85153300  0.50000000  1
  Gd  Gd9  1  0.25000000  0.10153300  0.75000000  1
  Gd  Gd10  1  0.00000000  0.14846700  0.50000000  1
  Gd  Gd11  1  0.25000000  0.39846700  0.75000000  1
  Gd  Gd12  1  0.00000000  0.35153300  0.00000000  1
  Gd  Gd13  1  0.25000000  0.60153300  0.25000000  1
  Gd  Gd14  1  0.00000000  0.64846700  0.00000000  1
  Gd  Gd15  1  0.25000000  0.89846700  0.25000000  1
  I  I16  1  0.62500000  0.62500000  0.12500000  1
  I  I17  1  0.62500000  0.87500000  0.37500000  1
  I  I18  1  0.87500000  0.87500000  0.12500000  1
  I  I19  1  0.87500000  0.62500000  0.37500000  1
  I  I20  1  0.62500000  0.12500000  0.62500000  1
  I  I21  1  0.62500000  0.37500000  0.87500000  1
  I  I22  1  0.87500000  0.37500000  0.62500000  1
  I  I23  1  0.87500000  0.12500000  0.87500000  1
  I  I24  1  0.12500000  0.62500000  0.62500000  1
  I  I25  1  0.12500000  0.87500000  0.87500000  1
  I  I26  1  0.37500000  0.87500000  0.62500000  1
  I  I27  1  0.37500000  0.62500000  0.87500000  1
  I  I28  1  0.12500000  0.12500000  0.12500000  1
  I  I29  1  0.12500000  0.37500000  0.37500000  1
  I  I30  1  0.37500000  0.37500000  0.12500000  1
  I  I31  1  0.37500000  0.12500000  0.37500000  1
  O  O32  1  0.50000000  0.00000000  0.11554900  1
  O  O33  1  0.00000000  0.00000000  0.38445100  1
  O  O34  1  0.75000000  0.25000000  0.36554900  1
  O  O35  1  0.75000000  0.25000000  0.13445100  1
  O  O36  1  0.50000000  0.50000000  0.61554900  1
  O  O37  1  0.00000000  0.50000000  0.88445100  1
  O  O38  1  0.75000000  0.75000000  0.86554900  1
  O  O39  1  0.75000000  0.75000000  0.63445100  1
  O  O40  1  0.00000000  0.00000000  0.61554900  1
  O  O41  1  0.50000000  0.00000000  0.88445100  1
  O  O42  1  0.25000000  0.25000000  0.86554900  1
  O  O43  1  0.25000000  0.25000000  0.63445100  1
  O  O44  1  0.00000000  0.50000000  0.11554900  1
  O  O45  1  0.50000000  0.50000000  0.38445100  1
  O  O46  1  0.25000000  0.75000000  0.36554900  1
  O  O47  1  0.25000000  0.75000000  0.13445100  1
