# generated using pymatgen
data_LiCr4O12
_symmetry_space_group_name_H-M   'P 1'
_cell_length_a   8.54567000
_cell_length_b   8.54567000
_cell_length_c   28.83485400
_cell_angle_alpha   90.00000000
_cell_angle_beta   90.00000000
_cell_angle_gamma   90.00000000
_symmetry_Int_Tables_number   1
_chemical_formula_structural   LiCr4O12
_chemical_formula_sum   'Li8 Cr32 O96'
_cell_volume   2105.76543606
_cell_formula_units_Z   8
loop_
 _symmetry_equiv_pos_site_id
 _symmetry_equiv_pos_as_xyz
  1  'x, y, z'
loop_
 _atom_site_type_symbol
 _atom_site_label
 _atom_site_symmetry_multiplicity
 _atom_site_fract_x
 _atom_site_fract_y
 _atom_site_fract_z
 _atom_site_occupancy
  Li  Li0  1  0.50000000  0.00000000  0.00000000  1
  Li  Li1  1  0.00000000  0.00000000  0.25000000  1
  Li  Li2  1  0.00000000  0.50000000  0.00000000  1
  Li  Li3  1  0.50000000  0.50000000  0.25000000  1
  Li  Li4  1  0.00000000  0.50000000  0.50000000  1
  Li  Li5  1  0.50000000  0.50000000  0.75000000  1
  Li  Li6  1  0.50000000  0.00000000  0.50000000  1
  Li  Li7  1  0.00000000  0.00000000  0.75000000  1
  Cr  Cr8  1  0.64502600  0.85880400  0.17553400  1
  Cr  Cr9  1  0.85880400  0.85497400  0.42553400  1
  Cr  Cr10  1  0.85880400  0.64502600  0.32446600  1
  Cr  Cr11  1  0.85497400  0.35880400  0.17553400  1
  Cr  Cr12  1  0.64502600  0.35880400  0.07446600  1
  Cr  Cr13  1  0.14502600  0.64119600  0.17553400  1
  Cr  Cr14  1  0.14119600  0.35497400  0.32446600  1
  Cr  Cr15  1  0.14119600  0.14502600  0.42553400  1
  Cr  Cr16  1  0.35880400  0.85497400  0.32446600  1
  Cr  Cr17  1  0.35880400  0.64502600  0.42553400  1
  Cr  Cr18  1  0.85497400  0.85880400  0.07446600  1
  Cr  Cr19  1  0.35497400  0.14119600  0.17553400  1
  Cr  Cr20  1  0.14502600  0.14119600  0.07446600  1
  Cr  Cr21  1  0.64119600  0.35497400  0.42553400  1
  Cr  Cr22  1  0.64119600  0.14502600  0.32446600  1
  Cr  Cr23  1  0.35497400  0.64119600  0.07446600  1
  Cr  Cr24  1  0.14502600  0.35880400  0.67553400  1
  Cr  Cr25  1  0.35880400  0.35497400  0.92553400  1
  Cr  Cr26  1  0.35880400  0.14502600  0.82446600  1
  Cr  Cr27  1  0.35497400  0.85880400  0.67553400  1
  Cr  Cr28  1  0.14502600  0.85880400  0.57446600  1
  Cr  Cr29  1  0.64502600  0.14119600  0.67553400  1
  Cr  Cr30  1  0.64119600  0.85497400  0.82446600  1
  Cr  Cr31  1  0.64119600  0.64502600  0.92553400  1
  Cr  Cr32  1  0.85880400  0.35497400  0.82446600  1
  Cr  Cr33  1  0.85880400  0.14502600  0.92553400  1
  Cr  Cr34  1  0.35497400  0.35880400  0.57446600  1
  Cr  Cr35  1  0.85497400  0.64119600  0.67553400  1
  Cr  Cr36  1  0.64502600  0.64119600  0.57446600  1
  Cr  Cr37  1  0.14119600  0.85497400  0.92553400  1
  Cr  Cr38  1  0.14119600  0.64502600  0.82446600  1
  Cr  Cr39  1  0.85497400  0.14119600  0.57446600  1
  O  O40  1  0.69908350  0.56125450  0.30502050  1
  O  O41  1  0.73721300  0.42980000  0.21433000  1
  O  O42  1  0.75000000  0.81232700  0.12500000  1
  O  O43  1  0.76278700  0.92980000  0.21433000  1
  O  O44  1  0.80091650  0.06125450  0.30502050  1
  O  O45  1  0.81232700  0.75000000  0.37500000  1
  O  O46  1  0.92980000  0.76278700  0.28567000  1
  O  O47  1  0.92980000  0.73721300  0.46433000  1
  O  O48  1  0.93874550  0.19908350  0.19497950  1
  O  O49  1  0.43874550  0.80091650  0.05502050  1
  O  O50  1  0.00000000  0.50000000  0.33721000  1
  O  O51  1  0.50000000  0.50000000  0.08721000  1
  O  O52  1  0.00000000  0.00000000  0.41279000  1
  O  O53  1  0.00000000  0.50000000  0.16279000  1
  O  O54  1  0.56125450  0.19908350  0.05502050  1
  O  O55  1  0.06125450  0.80091650  0.19497950  1
  O  O56  1  0.07020000  0.26278700  0.46433000  1
  O  O57  1  0.07020000  0.23721300  0.28567000  1
  O  O58  1  0.18767300  0.25000000  0.37500000  1
  O  O59  1  0.19908350  0.93874550  0.30502050  1
  O  O60  1  0.19908350  0.56125450  0.44497950  1
  O  O61  1  0.23721300  0.07020000  0.21433000  1
  O  O62  1  0.73721300  0.92980000  0.03567000  1
  O  O63  1  0.25000000  0.18767300  0.12500000  1
  O  O64  1  0.75000000  0.31232700  0.12500000  1
  O  O65  1  0.26278700  0.57020000  0.21433000  1
  O  O66  1  0.76278700  0.42980000  0.03567000  1
  O  O67  1  0.30091650  0.43874550  0.30502050  1
  O  O68  1  0.30091650  0.06125450  0.44497950  1
  O  O69  1  0.31232700  0.75000000  0.37500000  1
  O  O70  1  0.42980000  0.76278700  0.46433000  1
  O  O71  1  0.42980000  0.73721300  0.28567000  1
  O  O72  1  0.93874550  0.69908350  0.05502050  1
  O  O73  1  0.43874550  0.30091650  0.19497950  1
  O  O74  1  0.00000000  0.00000000  0.08721000  1
  O  O75  1  0.50000000  0.50000000  0.41279000  1
  O  O76  1  0.50000000  0.00000000  0.16279000  1
  O  O77  1  0.50000000  0.00000000  0.33721000  1
  O  O78  1  0.56125450  0.69908350  0.19497950  1
  O  O79  1  0.06125450  0.30091650  0.05502050  1
  O  O80  1  0.57020000  0.26278700  0.28567000  1
  O  O81  1  0.57020000  0.23721300  0.46433000  1
  O  O82  1  0.68767300  0.25000000  0.37500000  1
  O  O83  1  0.69908350  0.93874550  0.44497950  1
  O  O84  1  0.23721300  0.57020000  0.03567000  1
  O  O85  1  0.25000000  0.68767300  0.12500000  1
  O  O86  1  0.26278700  0.07020000  0.03567000  1
  O  O87  1  0.80091650  0.43874550  0.44497950  1
  O  O88  1  0.19908350  0.06125450  0.80502050  1
  O  O89  1  0.23721300  0.92980000  0.71433000  1
  O  O90  1  0.25000000  0.31232700  0.62500000  1
  O  O91  1  0.26278700  0.42980000  0.71433000  1
  O  O92  1  0.30091650  0.56125450  0.80502050  1
  O  O93  1  0.31232700  0.25000000  0.87500000  1
  O  O94  1  0.42980000  0.26278700  0.78567000  1
  O  O95  1  0.42980000  0.23721300  0.96433000  1
  O  O96  1  0.43874550  0.69908350  0.69497950  1
  O  O97  1  0.93874550  0.30091650  0.55502050  1
  O  O98  1  0.50000000  0.00000000  0.83721000  1
  O  O99  1  0.00000000  0.00000000  0.58721000  1
  O  O100  1  0.50000000  0.50000000  0.91279000  1
  O  O101  1  0.50000000  0.00000000  0.66279000  1
  O  O102  1  0.06125450  0.69908350  0.55502050  1
  O  O103  1  0.56125450  0.30091650  0.69497950  1
  O  O104  1  0.57020000  0.76278700  0.96433000  1
  O  O105  1  0.57020000  0.73721300  0.78567000  1
  O  O106  1  0.68767300  0.75000000  0.87500000  1
  O  O107  1  0.69908350  0.43874550  0.80502050  1
  O  O108  1  0.69908350  0.06125450  0.94497950  1
  O  O109  1  0.73721300  0.57020000  0.71433000  1
  O  O110  1  0.23721300  0.42980000  0.53567000  1
  O  O111  1  0.75000000  0.68767300  0.62500000  1
  O  O112  1  0.25000000  0.81232700  0.62500000  1
  O  O113  1  0.76278700  0.07020000  0.71433000  1
  O  O114  1  0.26278700  0.92980000  0.53567000  1
  O  O115  1  0.80091650  0.93874550  0.80502050  1
  O  O116  1  0.80091650  0.56125450  0.94497950  1
  O  O117  1  0.81232700  0.25000000  0.87500000  1
  O  O118  1  0.92980000  0.26278700  0.96433000  1
  O  O119  1  0.92980000  0.23721300  0.78567000  1
  O  O120  1  0.43874550  0.19908350  0.55502050  1
  O  O121  1  0.93874550  0.80091650  0.69497950  1
  O  O122  1  0.50000000  0.50000000  0.58721000  1
  O  O123  1  0.00000000  0.00000000  0.91279000  1
  O  O124  1  0.00000000  0.50000000  0.66279000  1
  O  O125  1  0.00000000  0.50000000  0.83721000  1
  O  O126  1  0.06125450  0.19908350  0.69497950  1
  O  O127  1  0.56125450  0.80091650  0.55502050  1
  O  O128  1  0.07020000  0.76278700  0.78567000  1
  O  O129  1  0.07020000  0.73721300  0.96433000  1
  O  O130  1  0.18767300  0.75000000  0.87500000  1
  O  O131  1  0.19908350  0.43874550  0.94497950  1
  O  O132  1  0.73721300  0.07020000  0.53567000  1
  O  O133  1  0.75000000  0.18767300  0.62500000  1
  O  O134  1  0.76278700  0.57020000  0.53567000  1
  O  O135  1  0.30091650  0.93874550  0.94497950  1
