# generated using pymatgen
data_CrSb3(PO4)6
_symmetry_space_group_name_H-M   'P 1'
_cell_length_a   8.62236207
_cell_length_b   8.62236207
_cell_length_c   22.09401513
_cell_angle_alpha   90.00000000
_cell_angle_beta   90.00000000
_cell_angle_gamma   120.00000000
_symmetry_Int_Tables_number   1
_chemical_formula_structural   CrSb3(PO4)6
_chemical_formula_sum   'Cr3 Sb9 P18 O72'
_cell_volume   1422.51806340
_cell_formula_units_Z   3
loop_
 _symmetry_equiv_pos_site_id
 _symmetry_equiv_pos_as_xyz
  1  'x, y, z'
loop_
 _atom_site_type_symbol
 _atom_site_label
 _atom_site_symmetry_multiplicity
 _atom_site_fract_x
 _atom_site_fract_y
 _atom_site_fract_z
 _atom_site_occupancy
  Cr  Cr0  1  0.66666667  0.33333333  0.19049033  1
  Cr  Cr1  1  0.33333333  0.66666667  0.52382367  1
  Cr  Cr2  1  0.00000000  0.00000000  0.85715700  1
  Sb  Sb3  1  0.00000000  0.00000000  0.14325000  1
  Sb  Sb4  1  0.33333333  0.66666667  0.02312967  1
  Sb  Sb5  1  0.33333333  0.66666667  0.31018067  1
  Sb  Sb6  1  0.66666667  0.33333333  0.47658333  1
  Sb  Sb7  1  0.00000000  0.00000000  0.35646300  1
  Sb  Sb8  1  0.00000000  0.00000000  0.64351400  1
  Sb  Sb9  1  0.33333333  0.66666667  0.80991667  1
  Sb  Sb10  1  0.66666667  0.33333333  0.68979633  1
  Sb  Sb11  1  0.66666667  0.33333333  0.97684733  1
  P  P12  1  0.66604667  0.61808633  0.08501033  1
  P  P13  1  0.95203967  0.33395333  0.08501033  1
  P  P14  1  0.38191367  0.04796033  0.08501033  1
  P  P15  1  0.29267167  0.28856433  0.24983333  1
  P  P16  1  0.71143567  0.00410733  0.24983333  1
  P  P17  1  0.99589267  0.70732833  0.24983333  1
  P  P18  1  0.33271333  0.95141967  0.41834367  1
  P  P19  1  0.61870633  0.66728667  0.41834367  1
  P  P20  1  0.04858033  0.38129367  0.41834367  1
  P  P21  1  0.95933833  0.62189767  0.58316667  1
  P  P22  1  0.37810233  0.33744067  0.58316667  1
  P  P23  1  0.66255933  0.04066167  0.58316667  1
  P  P24  1  0.99938000  0.28475300  0.75167700  1
  P  P25  1  0.28537300  0.00062000  0.75167700  1
  P  P26  1  0.71524700  0.71462700  0.75167700  1
  P  P27  1  0.62600500  0.95523100  0.91650000  1
  P  P28  1  0.04476900  0.67077400  0.91650000  1
  P  P29  1  0.32922600  0.37399500  0.91650000  1
  O  O30  1  0.96968167  0.79528833  0.30758733  1
  O  O31  1  0.20471167  0.17439333  0.30758733  1
  O  O32  1  0.83593733  0.80796467  0.08776567  1
  O  O33  1  0.82560667  0.03031833  0.30758733  1
  O  O34  1  0.49776500  0.63872200  0.07795600  1
  O  O35  1  0.63588600  0.50681900  0.14034800  1
  O  O36  1  0.97202733  0.16406267  0.08776567  1
  O  O37  1  0.14095700  0.50223500  0.07795600  1
  O  O38  1  0.36127800  0.85904300  0.07795600  1
  O  O39  1  0.17115033  0.20673567  0.19287467  1
  O  O40  1  0.47233500  0.30418300  0.24463900  1
  O  O41  1  0.79326433  0.96441467  0.19287467  1
  O  O42  1  0.87093300  0.36411400  0.14034800  1
  O  O43  1  0.19203533  0.02797267  0.08776567  1
  O  O44  1  0.49318100  0.12906700  0.14034800  1
  O  O45  1  0.30117467  0.47277933  0.25516433  1
  O  O46  1  0.52722067  0.82839533  0.25516433  1
  O  O47  1  0.69581700  0.16815200  0.24463900  1
  O  O48  1  0.03558533  0.82884967  0.19287467  1
  O  O49  1  0.17160467  0.69882533  0.25516433  1
  O  O50  1  0.84222633  0.30067867  0.02536067  1
  O  O51  1  0.83184800  0.52766500  0.24463900  1
  O  O52  1  0.45845233  0.15777367  0.02536067  1
  O  O53  1  0.69932133  0.54154767  0.02536067  1
  O  O54  1  0.63634833  0.12862167  0.64092067  1
  O  O55  1  0.87137833  0.50772667  0.64092067  1
  O  O56  1  0.50260400  0.14129800  0.42109900  1
  O  O57  1  0.49227333  0.36365167  0.64092067  1
  O  O58  1  0.16443167  0.97205533  0.41128933  1
  O  O59  1  0.30255267  0.84015233  0.47368133  1
  O  O60  1  0.63869400  0.49739600  0.42109900  1
  O  O61  1  0.80762367  0.83556833  0.41128933  1
  O  O62  1  0.02794467  0.19237633  0.41128933  1
  O  O63  1  0.83781700  0.54006900  0.52620800  1
  O  O64  1  0.13900167  0.63751633  0.57797233  1
  O  O65  1  0.45993100  0.29774800  0.52620800  1
  O  O66  1  0.53759967  0.69744733  0.47368133  1
  O  O67  1  0.85870200  0.36130600  0.42109900  1
  O  O68  1  0.15984767  0.46240033  0.47368133  1
  O  O69  1  0.96784133  0.80611267  0.58849767  1
  O  O70  1  0.19388733  0.16172867  0.58849767  1
  O  O71  1  0.36248367  0.50148533  0.57797233  1
  O  O72  1  0.70225200  0.16218300  0.52620800  1
  O  O73  1  0.83827133  0.03215867  0.58849767  1
  O  O74  1  0.50889300  0.63401200  0.35869400  1
  O  O75  1  0.49851467  0.86099833  0.57797233  1
  O  O76  1  0.12511900  0.49110700  0.35869400  1
  O  O77  1  0.36598800  0.87488100  0.35869400  1
  O  O78  1  0.30301500  0.46195500  0.97425400  1
  O  O79  1  0.53804500  0.84106000  0.97425400  1
  O  O80  1  0.16927067  0.47463133  0.75443233  1
  O  O81  1  0.15894000  0.69698500  0.97425400  1
  O  O82  1  0.83109833  0.30538867  0.74462267  1
  O  O83  1  0.96921933  0.17348567  0.80701467  1
  O  O84  1  0.30536067  0.83072933  0.75443233  1
  O  O85  1  0.47429033  0.16890167  0.74462267  1
  O  O86  1  0.69461133  0.52570967  0.74462267  1
  O  O87  1  0.50448367  0.87340233  0.85954133  1
  O  O88  1  0.80566833  0.97084967  0.91130567  1
  O  O89  1  0.12659767  0.63108133  0.85954133  1
  O  O90  1  0.20426633  0.03078067  0.80701467  1
  O  O91  1  0.52536867  0.69463933  0.75443233  1
  O  O92  1  0.82651433  0.79573367  0.80701467  1
  O  O93  1  0.63450800  0.13944600  0.92183100  1
  O  O94  1  0.86055400  0.49506200  0.92183100  1
  O  O95  1  0.02915033  0.83481867  0.91130567  1
  O  O96  1  0.36891867  0.49551633  0.85954133  1
  O  O97  1  0.50493800  0.36549200  0.92183100  1
  O  O98  1  0.17555967  0.96734533  0.69202733  1
  O  O99  1  0.16518133  0.19433167  0.91130567  1
  O  O100  1  0.79178567  0.82444033  0.69202733  1
  O  O101  1  0.03265467  0.20821433  0.69202733  1
