# generated using pymatgen
data_LiTi(PO3)4
_symmetry_space_group_name_H-M   'P 1'
_cell_length_a   17.20528600
_cell_length_b   12.09357600
_cell_length_c   5.27033852
_cell_angle_alpha   90.00000000
_cell_angle_beta   101.08669558
_cell_angle_gamma   90.00000000
_symmetry_Int_Tables_number   1
_chemical_formula_structural   LiTi(PO3)4
_chemical_formula_sum   'Li4 Ti4 P16 O48'
_cell_volume   1076.15163837
_cell_formula_units_Z   4
loop_
 _symmetry_equiv_pos_site_id
 _symmetry_equiv_pos_as_xyz
  1  'x, y, z'
loop_
 _atom_site_type_symbol
 _atom_site_label
 _atom_site_symmetry_multiplicity
 _atom_site_fract_x
 _atom_site_fract_y
 _atom_site_fract_z
 _atom_site_occupancy
  Li  Li0  1  0.43453500  0.00000000  0.36453300  1
  Li  Li1  1  0.56546500  0.00000000  0.63546700  1
  Li  Li2  1  0.93453500  0.50000000  0.36453300  1
  Li  Li3  1  0.06546500  0.50000000  0.63546700  1
  Ti  Ti4  1  0.25000000  0.75000000  0.00000000  1
  Ti  Ti5  1  0.25000000  0.25000000  0.00000000  1
  Ti  Ti6  1  0.75000000  0.25000000  0.00000000  1
  Ti  Ti7  1  0.75000000  0.75000000  0.00000000  1
  P  P8  1  0.57541700  0.20912600  0.17257100  1
  P  P9  1  0.57541700  0.79087400  0.17257100  1
  P  P10  1  0.81609900  0.87916400  0.53741900  1
  P  P11  1  0.81609900  0.12083600  0.53741900  1
  P  P12  1  0.18390100  0.12083600  0.46258100  1
  P  P13  1  0.18390100  0.87916400  0.46258100  1
  P  P14  1  0.42458300  0.20912600  0.82742900  1
  P  P15  1  0.42458300  0.79087400  0.82742900  1
  P  P16  1  0.07541700  0.70912600  0.17257100  1
  P  P17  1  0.07541700  0.29087400  0.17257100  1
  P  P18  1  0.31609900  0.37916400  0.53741900  1
  P  P19  1  0.31609900  0.62083600  0.53741900  1
  P  P20  1  0.68390100  0.62083600  0.46258100  1
  P  P21  1  0.68390100  0.37916400  0.46258100  1
  P  P22  1  0.92458300  0.70912600  0.82742900  1
  P  P23  1  0.92458300  0.29087400  0.82742900  1
  O  O24  1  0.50000000  0.27216400  0.00000000  1
  O  O25  1  0.50000000  0.72783600  0.00000000  1
  O  O26  1  0.79084000  0.12652700  0.24751600  1
  O  O27  1  0.79084000  0.87347300  0.24751600  1
  O  O28  1  0.36402800  0.19308500  0.99838600  1
  O  O29  1  0.36402800  0.80691500  0.99838600  1
  O  O30  1  0.54980450  0.11347850  0.31375800  1
  O  O31  1  0.54980450  0.88652150  0.31375800  1
  O  O32  1  0.60535000  0.69143300  0.37653900  1
  O  O33  1  0.60535000  0.30856700  0.37653900  1
  O  O34  1  0.85101600  0.00000000  0.61488300  1
  O  O35  1  0.24657750  0.14741150  0.30811900  1
  O  O36  1  0.24657750  0.85258850  0.30811900  1
  O  O37  1  0.75342250  0.14741150  0.69188100  1
  O  O38  1  0.75342250  0.85258850  0.69188100  1
  O  O39  1  0.14898400  0.00000000  0.38511700  1
  O  O40  1  0.39465000  0.30856700  0.62346100  1
  O  O41  1  0.39465000  0.69143300  0.62346100  1
  O  O42  1  0.45019550  0.11347850  0.68624200  1
  O  O43  1  0.45019550  0.88652150  0.68624200  1
  O  O44  1  0.63597200  0.19308500  0.00161400  1
  O  O45  1  0.63597200  0.80691500  0.00161400  1
  O  O46  1  0.20916000  0.12652700  0.75248400  1
  O  O47  1  0.20916000  0.87347300  0.75248400  1
  O  O48  1  0.00000000  0.77216400  0.00000000  1
  O  O49  1  0.00000000  0.22783600  0.00000000  1
  O  O50  1  0.29084000  0.62652700  0.24751600  1
  O  O51  1  0.29084000  0.37347300  0.24751600  1
  O  O52  1  0.86402800  0.69308500  0.99838600  1
  O  O53  1  0.86402800  0.30691500  0.99838600  1
  O  O54  1  0.04980450  0.61347850  0.31375800  1
  O  O55  1  0.04980450  0.38652150  0.31375800  1
  O  O56  1  0.10535000  0.19143300  0.37653900  1
  O  O57  1  0.10535000  0.80856700  0.37653900  1
  O  O58  1  0.35101600  0.50000000  0.61488300  1
  O  O59  1  0.74657750  0.64741150  0.30811900  1
  O  O60  1  0.74657750  0.35258850  0.30811900  1
  O  O61  1  0.25342250  0.64741150  0.69188100  1
  O  O62  1  0.25342250  0.35258850  0.69188100  1
  O  O63  1  0.64898400  0.50000000  0.38511700  1
  O  O64  1  0.89465000  0.80856700  0.62346100  1
  O  O65  1  0.89465000  0.19143300  0.62346100  1
  O  O66  1  0.95019550  0.61347850  0.68624200  1
  O  O67  1  0.95019550  0.38652150  0.68624200  1
  O  O68  1  0.13597200  0.69308500  0.00161400  1
  O  O69  1  0.13597200  0.30691500  0.00161400  1
  O  O70  1  0.70916000  0.62652700  0.75248400  1
  O  O71  1  0.70916000  0.37347300  0.75248400  1
