# generated using pymatgen
data_Bi2(SO4)3
_symmetry_space_group_name_H-M   'P 1'
_cell_length_a   9.14581383
_cell_length_b   9.14581383
_cell_length_c   24.65953109
_cell_angle_alpha   90.00000000
_cell_angle_beta   90.00000000
_cell_angle_gamma   120.00000000
_symmetry_Int_Tables_number   1
_chemical_formula_structural   Bi2(SO4)3
_chemical_formula_sum   'Bi12 S18 O72'
_cell_volume   1786.32369386
_cell_formula_units_Z   6
loop_
 _symmetry_equiv_pos_site_id
 _symmetry_equiv_pos_as_xyz
  1  'x, y, z'
loop_
 _atom_site_type_symbol
 _atom_site_label
 _atom_site_symmetry_multiplicity
 _atom_site_fract_x
 _atom_site_fract_y
 _atom_site_fract_z
 _atom_site_occupancy
  Bi  Bi0  1  0.33333333  0.66666667  0.01528467  1
  Bi  Bi1  1  0.00000000  0.00000000  0.14363300  1
  Bi  Bi2  1  0.66666667  0.33333333  0.18970033  1
  Bi  Bi3  1  0.33333333  0.66666667  0.31804867  1
  Bi  Bi4  1  0.00000000  0.00000000  0.34861800  1
  Bi  Bi5  1  0.66666667  0.33333333  0.47696633  1
  Bi  Bi6  1  0.33333333  0.66666667  0.52303367  1
  Bi  Bi7  1  0.00000000  0.00000000  0.65138200  1
  Bi  Bi8  1  0.66666667  0.33333333  0.68195133  1
  Bi  Bi9  1  0.33333333  0.66666667  0.81029967  1
  Bi  Bi10  1  0.00000000  0.00000000  0.85636700  1
  Bi  Bi11  1  0.66666667  0.33333333  0.98471533  1
  S  S12  1  0.95154100  0.32813400  0.08290300  1
  S  S13  1  0.99480067  0.70992633  0.25043033  1
  S  S14  1  0.37659300  0.04845900  0.08290300  1
  S  S15  1  0.29007367  0.28487433  0.25043033  1
  S  S16  1  0.67186600  0.62340700  0.08290300  1
  S  S17  1  0.71512567  0.00519933  0.25043033  1
  S  S18  1  0.61820767  0.66146733  0.41623633  1
  S  S19  1  0.66146733  0.04325967  0.58376367  1
  S  S20  1  0.04325967  0.38179233  0.41623633  1
  S  S21  1  0.95674033  0.61820767  0.58376367  1
  S  S22  1  0.33853267  0.95674033  0.41623633  1
  S  S23  1  0.38179233  0.33853267  0.58376367  1
  S  S24  1  0.28487433  0.99480067  0.74956967  1
  S  S25  1  0.32813400  0.37659300  0.91709700  1
  S  S26  1  0.70992633  0.71512567  0.74956967  1
  S  S27  1  0.62340700  0.95154100  0.91709700  1
  S  S28  1  0.00519933  0.29007367  0.74956967  1
  S  S29  1  0.04845900  0.67186600  0.91709700  1
  O  O30  1  0.88640667  0.33950933  0.13712233  1
  O  O31  1  0.03174300  0.22103000  0.08673200  1
  O  O32  1  0.88769667  0.52262033  0.24660133  1
  O  O33  1  0.07817967  0.50050333  0.06472533  1
  O  O34  1  0.91406400  0.77129800  0.29029400  1
  O  O35  1  0.00617600  0.78643600  0.19621100  1
  O  O36  1  0.16717000  0.75565700  0.26860800  1
  O  O37  1  0.85723400  0.08593600  0.29029400  1
  O  O38  1  0.18928700  0.96825700  0.08673200  1
  O  O39  1  0.42232367  0.92182033  0.06472533  1
  O  O40  1  0.22870200  0.14276600  0.29029400  1
  O  O41  1  0.21356400  0.21974000  0.19621100  1
  O  O42  1  0.45310267  0.11359333  0.13712233  1
  O  O43  1  0.43796467  0.19056733  0.04303933  1
  O  O44  1  0.24434300  0.41151300  0.26860800  1
  O  O45  1  0.47737967  0.36507633  0.24660133  1
  O  O46  1  0.80943267  0.24739733  0.04303933  1
  O  O47  1  0.49949667  0.57767633  0.06472533  1
  O  O48  1  0.66049067  0.54689733  0.13712233  1
  O  O49  1  0.75260267  0.56203533  0.04303933  1
  O  O50  1  0.58848700  0.83283000  0.26860800  1
  O  O51  1  0.77897000  0.81071300  0.08673200  1
  O  O52  1  0.63492367  0.11230333  0.24660133  1
  O  O53  1  0.78026000  0.99382400  0.19621100  1
  O  O54  1  0.55307333  0.67284267  0.47045567  1
  O  O55  1  0.69840967  0.55436333  0.42006533  1
  O  O56  1  0.55436333  0.85595367  0.57993467  1
  O  O57  1  0.74484633  0.83383667  0.39805867  1
  O  O58  1  0.58073067  0.10463133  0.62362733  1
  O  O59  1  0.67284267  0.11976933  0.52954433  1
  O  O60  1  0.83383667  0.08899033  0.60194133  1
  O  O61  1  0.52390067  0.41926933  0.62362733  1
  O  O62  1  0.85595367  0.30159033  0.42006533  1
  O  O63  1  0.08899033  0.25515367  0.39805867  1
  O  O64  1  0.89536867  0.47609933  0.62362733  1
  O  O65  1  0.88023067  0.55307333  0.52954433  1
  O  O66  1  0.11976933  0.44692667  0.47045567  1
  O  O67  1  0.10463133  0.52390067  0.37637267  1
  O  O68  1  0.91100967  0.74484633  0.60194133  1
  O  O69  1  0.14404633  0.69840967  0.57993467  1
  O  O70  1  0.47609933  0.58073067  0.37637267  1
  O  O71  1  0.16616333  0.91100967  0.39805867  1
  O  O72  1  0.32715733  0.88023067  0.47045567  1
  O  O73  1  0.41926933  0.89536867  0.37637267  1
  O  O74  1  0.25515367  0.16616333  0.60194133  1
  O  O75  1  0.44563667  0.14404633  0.42006533  1
  O  O76  1  0.30159033  0.44563667  0.57993467  1
  O  O77  1  0.44692667  0.32715733  0.52954433  1
  O  O78  1  0.21974000  0.00617600  0.80378900  1
  O  O79  1  0.36507633  0.88769667  0.75339867  1
  O  O80  1  0.22103000  0.18928700  0.91326800  1
  O  O81  1  0.41151300  0.16717000  0.73139200  1
  O  O82  1  0.24739733  0.43796467  0.95696067  1
  O  O83  1  0.33950933  0.45310267  0.86287767  1
  O  O84  1  0.50050333  0.42232367  0.93527467  1
  O  O85  1  0.19056733  0.75260267  0.95696067  1
  O  O86  1  0.52262033  0.63492367  0.75339867  1
  O  O87  1  0.75565700  0.58848700  0.73139200  1
  O  O88  1  0.56203533  0.80943267  0.95696067  1
  O  O89  1  0.54689733  0.88640667  0.86287767  1
  O  O90  1  0.78643600  0.78026000  0.80378900  1
  O  O91  1  0.77129800  0.85723400  0.70970600  1
  O  O92  1  0.57767633  0.07817967  0.93527467  1
  O  O93  1  0.81071300  0.03174300  0.91326800  1
  O  O94  1  0.14276600  0.91406400  0.70970600  1
  O  O95  1  0.83283000  0.24434300  0.73139200  1
  O  O96  1  0.99382400  0.21356400  0.80378900  1
  O  O97  1  0.08593600  0.22870200  0.70970600  1
  O  O98  1  0.92182033  0.49949667  0.93527467  1
  O  O99  1  0.11230333  0.47737967  0.75339867  1
  O  O100  1  0.96825700  0.77897000  0.91326800  1
  O  O101  1  0.11359333  0.66049067  0.86287767  1
