# generated using pymatgen
data_Rb2UO4
_symmetry_space_group_name_H-M   'P 1'
_cell_length_a   4.38814400
_cell_length_b   4.38814400
_cell_length_c   14.19156800
_cell_angle_alpha   90.00000000
_cell_angle_beta   90.00000000
_cell_angle_gamma   90.00000000
_symmetry_Int_Tables_number   1
_chemical_formula_structural   Rb2UO4
_chemical_formula_sum   'Rb4 U2 O8'
_cell_volume   273.27010529
_cell_formula_units_Z   2
loop_
 _symmetry_equiv_pos_site_id
 _symmetry_equiv_pos_as_xyz
  1  'x, y, z'
loop_
 _atom_site_type_symbol
 _atom_site_label
 _atom_site_symmetry_multiplicity
 _atom_site_fract_x
 _atom_site_fract_y
 _atom_site_fract_z
 _atom_site_occupancy
  Rb  Rb0  1  0.00000000  0.00000000  0.34634100  1
  Rb  Rb1  1  0.50000000  0.50000000  0.15365900  1
  Rb  Rb2  1  0.50000000  0.50000000  0.84634100  1
  Rb  Rb3  1  0.00000000  0.00000000  0.65365900  1
  U  U4  1  0.00000000  0.00000000  0.00000000  1
  U  U5  1  0.50000000  0.50000000  0.50000000  1
  O  O6  1  0.00000000  0.50000000  0.00000000  1
  O  O7  1  0.50000000  0.00000000  0.00000000  1
  O  O8  1  0.50000000  0.50000000  0.36234300  1
  O  O9  1  0.00000000  0.00000000  0.13765700  1
  O  O10  1  0.50000000  0.00000000  0.50000000  1
  O  O11  1  0.00000000  0.50000000  0.50000000  1
  O  O12  1  0.00000000  0.00000000  0.86234300  1
  O  O13  1  0.50000000  0.50000000  0.63765700  1
