# generated using pymatgen
data_Ba6YI15
_symmetry_space_group_name_H-M   'P 1'
_cell_length_a   17.88502200
_cell_length_b   13.30549300
_cell_length_c   26.43888865
_cell_angle_alpha   90.00000000
_cell_angle_beta   114.64286261
_cell_angle_gamma   90.00000000
_symmetry_Int_Tables_number   1
_chemical_formula_structural   Ba6YI15
_chemical_formula_sum   'Ba24 Y4 I60'
_cell_volume   5718.62245819
_cell_formula_units_Z   4
loop_
 _symmetry_equiv_pos_site_id
 _symmetry_equiv_pos_as_xyz
  1  'x, y, z'
loop_
 _atom_site_type_symbol
 _atom_site_label
 _atom_site_symmetry_multiplicity
 _atom_site_fract_x
 _atom_site_fract_y
 _atom_site_fract_z
 _atom_site_occupancy
  Ba  Ba0  1  0.87055400  0.62679100  0.11474100  1
  Ba  Ba1  1  0.87881000  0.12243800  0.11791800  1
  Ba  Ba2  1  0.44459000  0.87484600  0.04932700  1
  Ba  Ba3  1  0.42479500  0.37552300  0.03275500  1
  Ba  Ba4  1  0.09756800  0.38007300  0.09066600  1
  Ba  Ba5  1  0.10246200  0.86846600  0.08606900  1
  Ba  Ba6  1  0.89753800  0.36846600  0.41393100  1
  Ba  Ba7  1  0.90243200  0.88007300  0.40933400  1
  Ba  Ba8  1  0.57520500  0.87552300  0.46724500  1
  Ba  Ba9  1  0.55541000  0.37484600  0.45067300  1
  Ba  Ba10  1  0.12119000  0.62243800  0.38208200  1
  Ba  Ba11  1  0.12944600  0.12679100  0.38525900  1
  Ba  Ba12  1  0.87055400  0.87320900  0.61474100  1
  Ba  Ba13  1  0.87881000  0.37756200  0.61791800  1
  Ba  Ba14  1  0.44459000  0.62515400  0.54932700  1
  Ba  Ba15  1  0.42479500  0.12447700  0.53275500  1
  Ba  Ba16  1  0.09756800  0.11992700  0.59066600  1
  Ba  Ba17  1  0.10246200  0.63153400  0.58606900  1
  Ba  Ba18  1  0.89753800  0.13153400  0.91393100  1
  Ba  Ba19  1  0.90243200  0.61992700  0.90933400  1
  Ba  Ba20  1  0.57520500  0.62447700  0.96724500  1
  Ba  Ba21  1  0.55541000  0.12515400  0.95067300  1
  Ba  Ba22  1  0.12119000  0.87756200  0.88208200  1
  Ba  Ba23  1  0.12944600  0.37320900  0.88525900  1
  Y  Y24  1  0.63200300  0.12595900  0.21673000  1
  Y  Y25  1  0.36799700  0.62595900  0.28327000  1
  Y  Y26  1  0.63200300  0.37404100  0.71673000  1
  Y  Y27  1  0.36799700  0.87404100  0.78327000  1
  I  I28  1  0.40410000  0.63229500  0.99737400  1
  I  I29  1  0.93271000  0.87498300  0.11575300  1
  I  I30  1  0.92243100  0.37389400  0.11424600  1
  I  I31  1  0.41167100  0.11773700  0.00352900  1
  I  I32  1  0.23168300  0.36830400  0.02976300  1
  I  I33  1  0.23932800  0.88377400  0.02514900  1
  I  I34  1  0.68768100  0.11945100  0.12704800  1
  I  I35  1  0.67957600  0.63422900  0.10949900  1
  I  I36  1  0.98983000  0.12607100  0.25335600  1
  I  I37  1  0.50226400  0.96661200  0.18098600  1
  I  I38  1  0.50752600  0.28877000  0.17069600  1
  I  I39  1  0.03212600  0.62520800  0.05666400  1
  I  I40  1  0.03701100  0.12376100  0.06342100  1
  I  I41  1  0.26132100  0.46595800  0.20634500  1
  I  I42  1  0.27212600  0.77976300  0.19753900  1
  I  I43  1  0.72787400  0.27976300  0.30246100  1
  I  I44  1  0.73867900  0.96595800  0.29365500  1
  I  I45  1  0.96298900  0.62376100  0.43657900  1
  I  I46  1  0.96787400  0.12520800  0.44333600  1
  I  I47  1  0.49247400  0.78877000  0.32930400  1
  I  I48  1  0.49773600  0.46661200  0.31901400  1
  I  I49  1  0.01017000  0.62607100  0.24664400  1
  I  I50  1  0.32042400  0.13422900  0.39050100  1
  I  I51  1  0.31231900  0.61945100  0.37295200  1
  I  I52  1  0.76067200  0.38377400  0.47485100  1
  I  I53  1  0.76831700  0.86830400  0.47023700  1
  I  I54  1  0.58832900  0.61773700  0.49647100  1
  I  I55  1  0.07756900  0.87389400  0.38575400  1
  I  I56  1  0.06729000  0.37498300  0.38424700  1
  I  I57  1  0.59590000  0.13229500  0.50262600  1
  I  I58  1  0.40410000  0.86770500  0.49737400  1
  I  I59  1  0.93271000  0.62501700  0.61575300  1
  I  I60  1  0.92243100  0.12610600  0.61424600  1
  I  I61  1  0.41167100  0.38226300  0.50352900  1
  I  I62  1  0.23168300  0.13169600  0.52976300  1
  I  I63  1  0.23932800  0.61622600  0.52514900  1
  I  I64  1  0.68768100  0.38054900  0.62704800  1
  I  I65  1  0.67957600  0.86577100  0.60949900  1
  I  I66  1  0.98983000  0.37392900  0.75335600  1
  I  I67  1  0.50226400  0.53338800  0.68098600  1
  I  I68  1  0.50752600  0.21123000  0.67069600  1
  I  I69  1  0.03212600  0.87479200  0.55666400  1
  I  I70  1  0.03701100  0.37623900  0.56342100  1
  I  I71  1  0.26132100  0.03404200  0.70634500  1
  I  I72  1  0.27212600  0.72023700  0.69753900  1
  I  I73  1  0.72787400  0.22023700  0.80246100  1
  I  I74  1  0.73867900  0.53404200  0.79365500  1
  I  I75  1  0.96298900  0.87623900  0.93657900  1
  I  I76  1  0.96787400  0.37479200  0.94333600  1
  I  I77  1  0.49247400  0.71123000  0.82930400  1
  I  I78  1  0.49773600  0.03338800  0.81901400  1
  I  I79  1  0.01017000  0.87392900  0.74664400  1
  I  I80  1  0.32042400  0.36577100  0.89050100  1
  I  I81  1  0.31231900  0.88054900  0.87295200  1
  I  I82  1  0.76067200  0.11622600  0.97485100  1
  I  I83  1  0.76831700  0.63169600  0.97023700  1
  I  I84  1  0.58832900  0.88226300  0.99647100  1
  I  I85  1  0.07756900  0.62610600  0.88575400  1
  I  I86  1  0.06729000  0.12501700  0.88424700  1
  I  I87  1  0.59590000  0.36770500  0.00262600  1
