# generated using pymatgen
data_V6O5F19
_symmetry_space_group_name_H-M   'P 1'
_cell_length_a   5.39741200
_cell_length_b   5.57349584
_cell_length_c   14.80442517
_cell_angle_alpha   100.83464578
_cell_angle_beta   89.69397960
_cell_angle_gamma   91.63309294
_symmetry_Int_Tables_number   1
_chemical_formula_structural   V6O5F19
_chemical_formula_sum   'V6 O5 F19'
_cell_volume   437.23678531
_cell_formula_units_Z   1
loop_
 _symmetry_equiv_pos_site_id
 _symmetry_equiv_pos_as_xyz
  1  'x, y, z'
loop_
 _atom_site_type_symbol
 _atom_site_label
 _atom_site_symmetry_multiplicity
 _atom_site_fract_x
 _atom_site_fract_y
 _atom_site_fract_z
 _atom_site_occupancy
  V  V0  1  0.05821400  0.02404200  0.00576600  1
  V  V1  1  0.56287400  0.80224400  0.66089700  1
  V  V2  1  0.03382900  0.61492900  0.33647100  1
  V  V3  1  0.56342900  0.46831500  0.99363700  1
  V  V4  1  0.05774000  0.35818900  0.67298000  1
  V  V5  1  0.50620800  0.14895000  0.33263800  1
  O  O6  1  0.20979600  0.39608100  0.35553800  1
  O  O7  1  0.29183100  0.22436600  0.02251800  1
  O  O8  1  0.79089200  0.27672100  0.97572800  1
  O  O9  1  0.29041900  0.55953400  0.69086700  1
  O  O10  1  0.78982000  0.60971400  0.64384600  1
  F  F11  1  0.72933100  0.43312700  0.31028700  1
  F  F12  1  0.05077100  0.93735700  0.88469500  1
  F  F13  1  0.39670000  0.75844500  0.55561100  1
  F  F14  1  0.06753300  0.61869400  0.21823300  1
  F  F15  1  0.55323300  0.90036200  0.78155000  1
  F  F16  1  0.91591400  0.74715600  0.44552100  1
  F  F17  1  0.55493400  0.56336800  0.11447000  1
  F  F18  1  0.20050800  0.08510200  0.69212700  1
  F  F19  1  0.29390500  0.87472300  0.35648300  1
  F  F20  1  0.19991500  0.75159300  0.02605200  1
  F  F21  1  0.70743100  0.08541900  0.64082200  1
  F  F22  1  0.77722500  0.95761900  0.30949300  1
  F  F23  1  0.39631800  0.42708500  0.88848700  1
  F  F24  1  0.05228800  0.27450700  0.55183400  1
  F  F25  1  0.40060100  0.11080600  0.21769300  1
  F  F26  1  0.89139400  0.40682000  0.77816000  1
  F  F27  1  0.55708300  0.25333300  0.45164600  1
  F  F28  1  0.89297200  0.07797400  0.11104400  1
  F  F29  1  0.70689100  0.75342300  0.97491000  1
