# generated using pymatgen
data_Sn(PO3)4
_symmetry_space_group_name_H-M   'P 1'
_cell_length_a   15.67056800
_cell_length_b   7.14544000
_cell_length_c   9.09013825
_cell_angle_alpha   90.00000000
_cell_angle_beta   124.43613914
_cell_angle_gamma   90.00000000
_symmetry_Int_Tables_number   1
_chemical_formula_structural   Sn(PO3)4
_chemical_formula_sum   'Sn4 P16 O48'
_cell_volume   839.47971210
_cell_formula_units_Z   4
loop_
 _symmetry_equiv_pos_site_id
 _symmetry_equiv_pos_as_xyz
  1  'x, y, z'
loop_
 _atom_site_type_symbol
 _atom_site_label
 _atom_site_symmetry_multiplicity
 _atom_site_fract_x
 _atom_site_fract_y
 _atom_site_fract_z
 _atom_site_occupancy
  Sn  Sn0  1  0.00000000  0.19866700  0.25000000  1
  Sn  Sn1  1  0.00000000  0.80133300  0.75000000  1
  Sn  Sn2  1  0.50000000  0.69866700  0.25000000  1
  Sn  Sn3  1  0.50000000  0.30133300  0.75000000  1
  P  P4  1  0.35773900  0.64994600  0.80886500  1
  P  P5  1  0.36853200  0.04338500  0.88105200  1
  P  P6  1  0.14226100  0.14994600  0.69113500  1
  P  P7  1  0.86853200  0.45661500  0.38105200  1
  P  P8  1  0.13146800  0.54338500  0.61894800  1
  P  P9  1  0.85773900  0.85005400  0.30886500  1
  P  P10  1  0.63146800  0.95661500  0.11894800  1
  P  P11  1  0.64226100  0.35005400  0.19113500  1
  P  P12  1  0.85773900  0.14994600  0.80886500  1
  P  P13  1  0.86853200  0.54338500  0.88105200  1
  P  P14  1  0.64226100  0.64994600  0.69113500  1
  P  P15  1  0.36853200  0.95661500  0.38105200  1
  P  P16  1  0.63146800  0.04338500  0.61894800  1
  P  P17  1  0.35773900  0.35005400  0.30886500  1
  P  P18  1  0.13146800  0.45661500  0.11894800  1
  P  P19  1  0.14226100  0.85005400  0.19113500  1
  O  O20  1  0.34824550  0.86693850  0.75534700  1
  O  O21  1  0.25563300  0.07946600  0.84078200  1
  O  O22  1  0.93444550  0.06015650  0.78503300  1
  O  O23  1  0.06555450  0.06015650  0.71496700  1
  O  O24  1  0.12605600  0.13336700  0.50942600  1
  O  O25  1  0.39125250  0.21163050  0.80536700  1
  O  O26  1  0.89125250  0.28836950  0.30536700  1
  O  O27  1  0.15175450  0.36693850  0.74465300  1
  O  O28  1  0.62605600  0.36663300  0.00942600  1
  O  O29  1  0.75563300  0.42053400  0.34078200  1
  O  O30  1  0.93757400  0.50542000  0.57340400  1
  O  O31  1  0.06242600  0.50542000  0.92659600  1
  O  O32  1  0.93757400  0.49458000  0.07340400  1
  O  O33  1  0.06242600  0.49458000  0.42659600  1
  O  O34  1  0.24436700  0.57946600  0.65921800  1
  O  O35  1  0.37394400  0.63336700  0.99057400  1
  O  O36  1  0.84824550  0.63306150  0.25534700  1
  O  O37  1  0.10874750  0.71163050  0.69463300  1
  O  O38  1  0.60874750  0.78836950  0.19463300  1
  O  O39  1  0.87394400  0.86663300  0.49057400  1
  O  O40  1  0.93444550  0.93984350  0.28503300  1
  O  O41  1  0.06555450  0.93984350  0.21496700  1
  O  O42  1  0.74436700  0.92053400  0.15921800  1
  O  O43  1  0.65175450  0.13306150  0.24465300  1
  O  O44  1  0.84824550  0.36693850  0.75534700  1
  O  O45  1  0.75563300  0.57946600  0.84078200  1
  O  O46  1  0.43444550  0.56015650  0.78503300  1
  O  O47  1  0.56555450  0.56015650  0.71496700  1
  O  O48  1  0.62605600  0.63336700  0.50942600  1
  O  O49  1  0.89125250  0.71163050  0.80536700  1
  O  O50  1  0.39125250  0.78836950  0.30536700  1
  O  O51  1  0.65175450  0.86693850  0.74465300  1
  O  O52  1  0.12605600  0.86663300  0.00942600  1
  O  O53  1  0.25563300  0.92053400  0.34078200  1
  O  O54  1  0.43757400  0.00542000  0.57340400  1
  O  O55  1  0.56242600  0.00542000  0.92659600  1
  O  O56  1  0.43757400  0.99458000  0.07340400  1
  O  O57  1  0.56242600  0.99458000  0.42659600  1
  O  O58  1  0.74436700  0.07946600  0.65921800  1
  O  O59  1  0.87394400  0.13336700  0.99057400  1
  O  O60  1  0.34824550  0.13306150  0.25534700  1
  O  O61  1  0.60874750  0.21163050  0.69463300  1
  O  O62  1  0.10874750  0.28836950  0.19463300  1
  O  O63  1  0.37394400  0.36663300  0.49057400  1
  O  O64  1  0.43444550  0.43984350  0.28503300  1
  O  O65  1  0.56555450  0.43984350  0.21496700  1
  O  O66  1  0.24436700  0.42053400  0.15921800  1
  O  O67  1  0.15175450  0.63306150  0.24465300  1
