# generated using pymatgen
data_Nd(PO3)3
_symmetry_space_group_name_H-M   'P 1'
_cell_length_a   8.62965200
_cell_length_b   11.32400200
_cell_length_c   7.40156000
_cell_angle_alpha   90.00000000
_cell_angle_beta   90.00000000
_cell_angle_gamma   90.00000000
_symmetry_Int_Tables_number   1
_chemical_formula_structural   Nd(PO3)3
_chemical_formula_sum   'Nd4 P12 O36'
_cell_volume   723.29670078
_cell_formula_units_Z   4
loop_
 _symmetry_equiv_pos_site_id
 _symmetry_equiv_pos_as_xyz
  1  'x, y, z'
loop_
 _atom_site_type_symbol
 _atom_site_label
 _atom_site_symmetry_multiplicity
 _atom_site_fract_x
 _atom_site_fract_y
 _atom_site_fract_z
 _atom_site_occupancy
  Nd  Nd0  1  0.87405500  0.00000000  0.00000000  1
  Nd  Nd1  1  0.12594500  0.00000000  0.50000000  1
  Nd  Nd2  1  0.37405500  0.50000000  0.00000000  1
  Nd  Nd3  1  0.62594500  0.50000000  0.50000000  1
  P  P4  1  0.50926700  0.17591200  0.04617900  1
  P  P5  1  0.49073300  0.82408800  0.54617900  1
  P  P6  1  0.50926700  0.82408800  0.95382100  1
  P  P7  1  0.49073300  0.17591200  0.45382100  1
  P  P8  1  0.25086000  0.00000000  0.00000000  1
  P  P9  1  0.74914000  0.00000000  0.50000000  1
  P  P10  1  0.00926700  0.67591200  0.04617900  1
  P  P11  1  0.99073300  0.32408800  0.54617900  1
  P  P12  1  0.00926700  0.32408800  0.95382100  1
  P  P13  1  0.99073300  0.67591200  0.45382100  1
  P  P14  1  0.75086000  0.50000000  0.00000000  1
  P  P15  1  0.24914000  0.50000000  0.50000000  1
  O  O16  1  0.36088650  0.10914350  0.95821500  1
  O  O17  1  0.63911350  0.89085650  0.45821500  1
  O  O18  1  0.36088650  0.89085650  0.04178500  1
  O  O19  1  0.63911350  0.10914350  0.54178500  1
  O  O20  1  0.65403000  0.87288000  0.03556200  1
  O  O21  1  0.34597000  0.12712000  0.53556200  1
  O  O22  1  0.65403000  0.12712000  0.96443800  1
  O  O23  1  0.34597000  0.87288000  0.46443800  1
  O  O24  1  0.50000000  0.12751800  0.25000000  1
  O  O25  1  0.50000000  0.87248200  0.75000000  1
  O  O26  1  0.84712000  0.01814000  0.33206300  1
  O  O27  1  0.15288000  0.98186000  0.83206300  1
  O  O28  1  0.84712000  0.98186000  0.66793700  1
  O  O29  1  0.15288000  0.01814000  0.16793700  1
  O  O30  1  0.52184150  0.30514350  0.46456600  1
  O  O31  1  0.47815850  0.69485650  0.96456600  1
  O  O32  1  0.52184150  0.69485650  0.53543400  1
  O  O33  1  0.47815850  0.30514350  0.03543400  1
  O  O34  1  0.86088650  0.60914350  0.95821500  1
  O  O35  1  0.13911350  0.39085650  0.45821500  1
  O  O36  1  0.86088650  0.39085650  0.04178500  1
  O  O37  1  0.13911350  0.60914350  0.54178500  1
  O  O38  1  0.15403000  0.37288000  0.03556200  1
  O  O39  1  0.84597000  0.62712000  0.53556200  1
  O  O40  1  0.15403000  0.62712000  0.96443800  1
  O  O41  1  0.84597000  0.37288000  0.46443800  1
  O  O42  1  0.00000000  0.62751800  0.25000000  1
  O  O43  1  0.00000000  0.37248200  0.75000000  1
  O  O44  1  0.34712000  0.51814000  0.33206300  1
  O  O45  1  0.65288000  0.48186000  0.83206300  1
  O  O46  1  0.34712000  0.48186000  0.66793700  1
  O  O47  1  0.65288000  0.51814000  0.16793700  1
  O  O48  1  0.02184150  0.80514350  0.46456600  1
  O  O49  1  0.97815850  0.19485650  0.96456600  1
  O  O50  1  0.02184150  0.19485650  0.53543400  1
  O  O51  1  0.97815850  0.80514350  0.03543400  1
