# generated using pymatgen
data_Li8Mn(O2F)2
_symmetry_space_group_name_H-M   'P 1'
_cell_length_a   5.72992800
_cell_length_b   9.82102600
_cell_length_c   10.88214000
_cell_angle_alpha   90.00000000
_cell_angle_beta   90.00000000
_cell_angle_gamma   90.00000000
_symmetry_Int_Tables_number   1
_chemical_formula_structural   Li8Mn(O2F)2
_chemical_formula_sum   'Li32 Mn4 O16 F8'
_cell_volume   612.37906378
_cell_formula_units_Z   4
loop_
 _symmetry_equiv_pos_site_id
 _symmetry_equiv_pos_as_xyz
  1  'x, y, z'
loop_
 _atom_site_type_symbol
 _atom_site_label
 _atom_site_symmetry_multiplicity
 _atom_site_fract_x
 _atom_site_fract_y
 _atom_site_fract_z
 _atom_site_occupancy
  Li  Li0  1  0.68677400  0.00000000  0.27393400  1
  Li  Li1  1  0.59213100  0.00000000  0.62756800  1
  Li  Li2  1  0.40786900  0.00000000  0.12756800  1
  Li  Li3  1  0.31322600  0.00000000  0.77393400  1
  Li  Li4  1  0.49321250  0.83836450  0.90276100  1
  Li  Li5  1  0.50678750  0.83836450  0.40276100  1
  Li  Li6  1  0.15426650  0.84791950  0.26347900  1
  Li  Li7  1  0.19626400  0.81129300  0.63880700  1
  Li  Li8  1  0.80373600  0.18870700  0.13880700  1
  Li  Li9  1  0.84573350  0.84791950  0.76347900  1
  Li  Li10  1  0.84573350  0.15208050  0.76347900  1
  Li  Li11  1  0.80373600  0.81129300  0.13880700  1
  Li  Li12  1  0.50678750  0.16163550  0.40276100  1
  Li  Li13  1  0.49321250  0.16163550  0.90276100  1
  Li  Li14  1  0.19626400  0.18870700  0.63880700  1
  Li  Li15  1  0.15426650  0.15208050  0.26347900  1
  Li  Li16  1  0.18677400  0.50000000  0.27393400  1
  Li  Li17  1  0.09213100  0.50000000  0.62756800  1
  Li  Li18  1  0.90786900  0.50000000  0.12756800  1
  Li  Li19  1  0.81322600  0.50000000  0.77393400  1
  Li  Li20  1  0.99321250  0.33836450  0.90276100  1
  Li  Li21  1  0.00678750  0.33836450  0.40276100  1
  Li  Li22  1  0.65426650  0.34791950  0.26347900  1
  Li  Li23  1  0.69626400  0.31129300  0.63880700  1
  Li  Li24  1  0.30373600  0.68870700  0.13880700  1
  Li  Li25  1  0.34573350  0.34791950  0.76347900  1
  Li  Li26  1  0.34573350  0.65208050  0.76347900  1
  Li  Li27  1  0.30373600  0.31129300  0.13880700  1
  Li  Li28  1  0.00678750  0.66163550  0.40276100  1
  Li  Li29  1  0.99321250  0.66163550  0.90276100  1
  Li  Li30  1  0.69626400  0.68870700  0.63880700  1
  Li  Li31  1  0.65426650  0.65208050  0.26347900  1
  Mn  Mn32  1  0.97415400  0.00000000  0.50025400  1
  Mn  Mn33  1  0.02584600  0.00000000  0.00025400  1
  Mn  Mn34  1  0.47415400  0.50000000  0.50025400  1
  Mn  Mn35  1  0.52584600  0.50000000  0.00025400  1
  O  O36  1  0.65028200  0.00000000  0.45097700  1
  O  O37  1  0.34971800  0.00000000  0.95097700  1
  O  O38  1  0.50394200  0.83034500  0.71850400  1
  O  O39  1  0.01567800  0.00000000  0.68489500  1
  O  O40  1  0.49605800  0.83034500  0.21850400  1
  O  O41  1  0.98432200  0.00000000  0.18489500  1
  O  O42  1  0.49605800  0.16965500  0.21850400  1
  O  O43  1  0.50394200  0.16965500  0.71850400  1
  O  O44  1  0.15028200  0.50000000  0.45097700  1
  O  O45  1  0.84971800  0.50000000  0.95097700  1
  O  O46  1  0.00394200  0.33034500  0.71850400  1
  O  O47  1  0.51567800  0.50000000  0.68489500  1
  O  O48  1  0.99605800  0.33034500  0.21850400  1
  O  O49  1  0.48432200  0.50000000  0.18489500  1
  O  O50  1  0.99605800  0.66965500  0.21850400  1
  O  O51  1  0.00394200  0.66965500  0.71850400  1
  F  F52  1  0.17793150  0.82604850  0.45049600  1
  F  F53  1  0.82206850  0.82604850  0.95049600  1
  F  F54  1  0.82206850  0.17395150  0.95049600  1
  F  F55  1  0.17793150  0.17395150  0.45049600  1
  F  F56  1  0.67793150  0.32604850  0.45049600  1
  F  F57  1  0.32206850  0.32604850  0.95049600  1
  F  F58  1  0.32206850  0.67395150  0.95049600  1
  F  F59  1  0.67793150  0.67395150  0.45049600  1
