# generated using pymatgen
data_Na7Cu7O13
_symmetry_space_group_name_H-M   'P 1'
_cell_length_a   6.76004800
_cell_length_b   6.80648024
_cell_length_c   7.68995316
_cell_angle_alpha   99.25589539
_cell_angle_beta   99.71917392
_cell_angle_gamma   101.25067442
_symmetry_Int_Tables_number   1
_chemical_formula_structural   Na7Cu7O13
_chemical_formula_sum   'Na7 Cu7 O13'
_cell_volume   335.10799960
_cell_formula_units_Z   1
loop_
 _symmetry_equiv_pos_site_id
 _symmetry_equiv_pos_as_xyz
  1  'x, y, z'
loop_
 _atom_site_type_symbol
 _atom_site_label
 _atom_site_symmetry_multiplicity
 _atom_site_fract_x
 _atom_site_fract_y
 _atom_site_fract_z
 _atom_site_occupancy
  Na  Na0  1  0.71350500  0.21467600  0.57316900  1
  Na  Na1  1  0.85175900  0.33632300  0.27509300  1
  Na  Na2  1  0.56849600  0.07161200  0.85427800  1
  Na  Na3  1  0.42890100  0.92896100  0.14028800  1
  Na  Na4  1  0.30102300  0.79031200  0.42603100  1
  Na  Na5  1  0.14578600  0.63943900  0.72635100  1
  Na  Na6  1  0.99879200  0.50078400  0.00090800  1
  Cu  Cu7  1  0.85343200  0.85707500  0.28502600  1
  Cu  Cu8  1  0.71078100  0.71677500  0.56955200  1
  Cu  Cu9  1  0.57437700  0.57359500  0.85676800  1
  Cu  Cu10  1  0.42995600  0.43135900  0.14540500  1
  Cu  Cu11  1  0.28506000  0.28810500  0.42941100  1
  Cu  Cu12  1  0.14061900  0.14307800  0.71323100  1
  Cu  Cu13  1  0.99873800  0.99577000  0.00009800  1
  O  O14  1  0.79459900  0.56523200  0.73952600  1
  O  O15  1  0.21648800  0.98953500  0.88126800  1
  O  O16  1  0.92442400  0.15012000  0.83024400  1
  O  O17  1  0.48439100  0.72058400  0.69102800  1
  O  O18  1  0.35450800  0.57826900  0.97416700  1
  O  O19  1  0.64452500  0.86103100  0.40086100  1
  O  O20  1  0.50614100  0.28082000  0.31588100  1
  O  O21  1  0.64976200  0.42367200  0.03009700  1
  O  O22  1  0.35788800  0.13211700  0.59603600  1
  O  O23  1  0.07895600  0.84771200  0.17461000  1
  O  O24  1  0.77665300  0.00938300  0.10513900  1
  O  O25  1  0.06505300  0.29868200  0.54370000  1
  O  O26  1  0.20879400  0.44165300  0.26186600  1
