# generated using pymatgen
data_LiFeF4
_symmetry_space_group_name_H-M   'P 1'
_cell_length_a   15.40737200
_cell_length_b   3.92831400
_cell_length_c   12.54811658
_cell_angle_alpha   90.00000000
_cell_angle_beta   120.93072790
_cell_angle_gamma   90.00000000
_symmetry_Int_Tables_number   1
_chemical_formula_structural   LiFeF4
_chemical_formula_sum   'Li8 Fe8 F32'
_cell_volume   651.46931911
_cell_formula_units_Z   8
loop_
 _symmetry_equiv_pos_site_id
 _symmetry_equiv_pos_as_xyz
  1  'x, y, z'
loop_
 _atom_site_type_symbol
 _atom_site_label
 _atom_site_symmetry_multiplicity
 _atom_site_fract_x
 _atom_site_fract_y
 _atom_site_fract_z
 _atom_site_occupancy
  Li  Li0  1  0.30607600  0.50000000  0.83748200  1
  Li  Li1  1  0.15605700  0.50000000  0.32249300  1
  Li  Li2  1  0.84394300  0.50000000  0.67750700  1
  Li  Li3  1  0.69392400  0.50000000  0.16251800  1
  Li  Li4  1  0.80607600  0.00000000  0.83748200  1
  Li  Li5  1  0.65605700  0.00000000  0.32249300  1
  Li  Li6  1  0.34394300  0.00000000  0.67750700  1
  Li  Li7  1  0.19392400  0.00000000  0.16251800  1
  Fe  Fe8  1  0.03517100  0.00000000  0.86674500  1
  Fe  Fe9  1  0.13789800  0.00000000  0.63905400  1
  Fe  Fe10  1  0.86210200  0.00000000  0.36094600  1
  Fe  Fe11  1  0.96482900  0.00000000  0.13325500  1
  Fe  Fe12  1  0.53517100  0.50000000  0.86674500  1
  Fe  Fe13  1  0.63789800  0.50000000  0.63905400  1
  Fe  Fe14  1  0.36210200  0.50000000  0.36094600  1
  Fe  Fe15  1  0.46482900  0.50000000  0.13325500  1
  F  F16  1  0.01300200  0.50000000  0.84409300  1
  F  F17  1  0.07281800  0.00000000  0.74075200  1
  F  F18  1  0.16812300  0.00000000  0.99870300  1
  F  F19  1  0.14616300  0.50000000  0.65556400  1
  F  F20  1  0.27497000  0.00000000  0.78595500  1
  F  F21  1  0.20100300  0.00000000  0.54408100  1
  F  F22  1  0.11470500  0.00000000  0.25594500  1
  F  F23  1  0.88529500  0.00000000  0.74405500  1
  F  F24  1  0.79899700  0.00000000  0.45591900  1
  F  F25  1  0.72503000  0.00000000  0.21404500  1
  F  F26  1  0.85383700  0.50000000  0.34443600  1
  F  F27  1  0.83187700  0.00000000  0.00129700  1
  F  F28  1  0.00000000  0.00000000  0.50000000  1
  F  F29  1  0.92718200  0.00000000  0.25924800  1
  F  F30  1  0.98699800  0.50000000  0.15590700  1
  F  F31  1  0.00000000  0.00000000  0.00000000  1
  F  F32  1  0.51300200  0.00000000  0.84409300  1
  F  F33  1  0.57281800  0.50000000  0.74075200  1
  F  F34  1  0.66812300  0.50000000  0.99870300  1
  F  F35  1  0.64616300  0.00000000  0.65556400  1
  F  F36  1  0.77497000  0.50000000  0.78595500  1
  F  F37  1  0.70100300  0.50000000  0.54408100  1
  F  F38  1  0.61470500  0.50000000  0.25594500  1
  F  F39  1  0.38529500  0.50000000  0.74405500  1
  F  F40  1  0.29899700  0.50000000  0.45591900  1
  F  F41  1  0.22503000  0.50000000  0.21404500  1
  F  F42  1  0.35383700  0.00000000  0.34443600  1
  F  F43  1  0.33187700  0.50000000  0.00129700  1
  F  F44  1  0.50000000  0.50000000  0.50000000  1
  F  F45  1  0.42718200  0.50000000  0.25924800  1
  F  F46  1  0.48699800  0.00000000  0.15590700  1
  F  F47  1  0.50000000  0.50000000  0.00000000  1
