# generated using pymatgen
data_Li2CrO3
_symmetry_space_group_name_H-M   'P 1'
_cell_length_a   5.09403766
_cell_length_b   8.64053301
_cell_length_c   9.76136757
_cell_angle_alpha   90.00000000
_cell_angle_beta   99.34631865
_cell_angle_gamma   90.00000000
_symmetry_Int_Tables_number   1
_chemical_formula_structural   Li2CrO3
_chemical_formula_sum   'Li16 Cr8 O24'
_cell_volume   423.94486015
_cell_formula_units_Z   8
loop_
 _symmetry_equiv_pos_site_id
 _symmetry_equiv_pos_as_xyz
  1  'x, y, z'
loop_
 _atom_site_type_symbol
 _atom_site_label
 _atom_site_symmetry_multiplicity
 _atom_site_fract_x
 _atom_site_fract_y
 _atom_site_fract_z
 _atom_site_occupancy
  Li  Li0  1  0.25398550  0.42131350  0.99879300  1
  Li  Li1  1  0.75000000  0.75000000  0.50000000  1
  Li  Li2  1  0.00000000  0.08378800  0.25000000  1
  Li  Li3  1  0.75000000  0.25000000  0.00000000  1
  Li  Li4  1  0.25398550  0.57868650  0.49879300  1
  Li  Li5  1  0.74601450  0.42131350  0.50120700  1
  Li  Li6  1  0.00000000  0.91621200  0.75000000  1
  Li  Li7  1  0.74601450  0.57868650  0.00120700  1
  Li  Li8  1  0.75398550  0.92131350  0.99879300  1
  Li  Li9  1  0.25000000  0.25000000  0.50000000  1
  Li  Li10  1  0.50000000  0.58378800  0.25000000  1
  Li  Li11  1  0.25000000  0.75000000  0.00000000  1
  Li  Li12  1  0.75398550  0.07868650  0.49879300  1
  Li  Li13  1  0.24601450  0.92131350  0.50120700  1
  Li  Li14  1  0.50000000  0.41621200  0.75000000  1
  Li  Li15  1  0.24601450  0.07868650  0.00120700  1
  Cr  Cr16  1  0.00000000  0.41253800  0.25000000  1
  Cr  Cr17  1  0.00000000  0.24578100  0.75000000  1
  Cr  Cr18  1  0.00000000  0.75421900  0.25000000  1
  Cr  Cr19  1  0.00000000  0.58746200  0.75000000  1
  Cr  Cr20  1  0.50000000  0.91253800  0.25000000  1
  Cr  Cr21  1  0.50000000  0.74578100  0.75000000  1
  Cr  Cr22  1  0.50000000  0.25421900  0.25000000  1
  Cr  Cr23  1  0.50000000  0.08746200  0.75000000  1
  O  O24  1  0.36560850  0.40282750  0.36426400  1
  O  O25  1  0.13664150  0.26544750  0.13723700  1
  O  O26  1  0.86335850  0.26544750  0.36276300  1
  O  O27  1  0.10580200  0.41575100  0.63850100  1
  O  O28  1  0.36560850  0.59717250  0.86426400  1
  O  O29  1  0.89419800  0.41575100  0.86149900  1
  O  O30  1  0.10580200  0.58424900  0.13850100  1
  O  O31  1  0.63439150  0.40282750  0.13573600  1
  O  O32  1  0.89419800  0.58424900  0.36149900  1
  O  O33  1  0.13664150  0.73455250  0.63723700  1
  O  O34  1  0.86335850  0.73455250  0.86276300  1
  O  O35  1  0.63439150  0.59717250  0.63573600  1
  O  O36  1  0.86560850  0.90282750  0.36426400  1
  O  O37  1  0.63664150  0.76544750  0.13723700  1
  O  O38  1  0.36335850  0.76544750  0.36276300  1
  O  O39  1  0.60580200  0.91575100  0.63850100  1
  O  O40  1  0.86560850  0.09717250  0.86426400  1
  O  O41  1  0.39419800  0.91575100  0.86149900  1
  O  O42  1  0.60580200  0.08424900  0.13850100  1
  O  O43  1  0.13439150  0.90282750  0.13573600  1
  O  O44  1  0.39419800  0.08424900  0.36149900  1
  O  O45  1  0.63664150  0.23455250  0.63723700  1
  O  O46  1  0.36335850  0.23455250  0.86276300  1
  O  O47  1  0.13439150  0.09717250  0.63573600  1
