# generated using pymatgen
data_Na2P2H4N2O5
_symmetry_space_group_name_H-M   'P 1'
_cell_length_a   22.39924000
_cell_length_b   5.26768200
_cell_length_c   15.70977047
_cell_angle_alpha   90.00000000
_cell_angle_beta   134.00107712
_cell_angle_gamma   90.00000000
_symmetry_Int_Tables_number   1
_chemical_formula_structural   Na2P2H4N2O5
_chemical_formula_sum   'Na16 P16 H32 N16 O40'
_cell_volume   1333.36446936
_cell_formula_units_Z   8
loop_
 _symmetry_equiv_pos_site_id
 _symmetry_equiv_pos_as_xyz
  1  'x, y, z'
loop_
 _atom_site_type_symbol
 _atom_site_label
 _atom_site_symmetry_multiplicity
 _atom_site_fract_x
 _atom_site_fract_y
 _atom_site_fract_z
 _atom_site_occupancy
  Na  Na0  1  0.09565600  0.34180700  0.10333000  1
  Na  Na1  1  0.25318950  0.56700850  0.40520400  1
  Na  Na2  1  0.24681050  0.06700850  0.09479600  1
  Na  Na3  1  0.40434400  0.84180700  0.39667000  1
  Na  Na4  1  0.59565600  0.15819300  0.60333000  1
  Na  Na5  1  0.75318950  0.93299150  0.90520400  1
  Na  Na6  1  0.74681050  0.43299150  0.59479600  1
  Na  Na7  1  0.90434400  0.65819300  0.89667000  1
  Na  Na8  1  0.59565600  0.84180700  0.10333000  1
  Na  Na9  1  0.75318950  0.06700850  0.40520400  1
  Na  Na10  1  0.74681050  0.56700850  0.09479600  1
  Na  Na11  1  0.90434400  0.34180700  0.39667000  1
  Na  Na12  1  0.09565600  0.65819300  0.60333000  1
  Na  Na13  1  0.25318950  0.43299150  0.90520400  1
  Na  Na14  1  0.24681050  0.93299150  0.59479600  1
  Na  Na15  1  0.40434400  0.15819300  0.89667000  1
  P  P16  1  0.38165750  0.46220150  0.68946400  1
  P  P17  1  0.55422100  0.33949100  0.92249600  1
  P  P18  1  0.44577900  0.33949100  0.57750400  1
  P  P19  1  0.61834250  0.46220150  0.81053600  1
  P  P20  1  0.38165750  0.53779850  0.18946400  1
  P  P21  1  0.55422100  0.66050900  0.42249600  1
  P  P22  1  0.44577900  0.66050900  0.07750400  1
  P  P23  1  0.61834250  0.53779850  0.31053600  1
  P  P24  1  0.88165750  0.96220150  0.68946400  1
  P  P25  1  0.05422100  0.83949100  0.92249600  1
  P  P26  1  0.94577900  0.83949100  0.57750400  1
  P  P27  1  0.11834250  0.96220150  0.81053600  1
  P  P28  1  0.88165750  0.03779850  0.18946400  1
  P  P29  1  0.05422100  0.16050900  0.42249600  1
  P  P30  1  0.94577900  0.16050900  0.07750400  1
  P  P31  1  0.11834250  0.03779850  0.31053600  1
  H  H32  1  0.48778450  0.72983150  0.84459500  1
  H  H33  1  0.39716450  0.07079950  0.63718500  1
  H  H34  1  0.17263050  0.78169550  0.15618900  1
  H  H35  1  0.25084050  0.11409850  0.28739100  1
  H  H36  1  0.24915950  0.61409850  0.21260900  1
  H  H37  1  0.32736950  0.28169550  0.34381100  1
  H  H38  1  0.60283550  0.07079950  0.86281500  1
  H  H39  1  0.51221550  0.72983150  0.65540500  1
  H  H40  1  0.48778450  0.27016850  0.34459500  1
  H  H41  1  0.39716450  0.92920050  0.13718500  1
  H  H42  1  0.67263050  0.71830450  0.65618900  1
  H  H43  1  0.75084050  0.38590150  0.78739100  1
  H  H44  1  0.74915950  0.88590150  0.71260900  1
  H  H45  1  0.82736950  0.21830450  0.84381100  1
  H  H46  1  0.60283550  0.92920050  0.36281500  1
  H  H47  1  0.51221550  0.27016850  0.15540500  1
  H  H48  1  0.98778450  0.22983150  0.84459500  1
  H  H49  1  0.89716450  0.57079950  0.63718500  1
  H  H50  1  0.67263050  0.28169550  0.15618900  1
  H  H51  1  0.75084050  0.61409850  0.28739100  1
  H  H52  1  0.74915950  0.11409850  0.21260900  1
  H  H53  1  0.82736950  0.78169550  0.34381100  1
  H  H54  1  0.10283550  0.57079950  0.86281500  1
  H  H55  1  0.01221550  0.22983150  0.65540500  1
  H  H56  1  0.98778450  0.77016850  0.34459500  1
  H  H57  1  0.89716450  0.42920050  0.13718500  1
  H  H58  1  0.17263050  0.21830450  0.65618900  1
  H  H59  1  0.25084050  0.88590150  0.78739100  1
  H  H60  1  0.24915950  0.38590150  0.71260900  1
  H  H61  1  0.32736950  0.71830450  0.84381100  1
  H  H62  1  0.10283550  0.42920050  0.36281500  1
  H  H63  1  0.01221550  0.77016850  0.15540500  1
  N  N64  1  0.47467650  0.53973550  0.82609900  1
  N  N65  1  0.40234100  0.26110600  0.62925400  1
  N  N66  1  0.59765900  0.26110600  0.87074600  1
  N  N67  1  0.52532350  0.53973550  0.67390100  1
  N  N68  1  0.47467650  0.46026450  0.32609900  1
  N  N69  1  0.40234100  0.73889400  0.12925400  1
  N  N70  1  0.59765900  0.73889400  0.37074600  1
  N  N71  1  0.52532350  0.46026450  0.17390100  1
  N  N72  1  0.97467650  0.03973550  0.82609900  1
  N  N73  1  0.90234100  0.76110600  0.62925400  1
  N  N74  1  0.09765900  0.76110600  0.87074600  1
  N  N75  1  0.02532350  0.03973550  0.67390100  1
  N  N76  1  0.97467650  0.96026450  0.32609900  1
  N  N77  1  0.90234100  0.23889400  0.12925400  1
  N  N78  1  0.09765900  0.23889400  0.37074600  1
  N  N79  1  0.02532350  0.96026450  0.17390100  1
  O  O80  1  0.17068000  0.18598900  0.29911300  1
  O  O81  1  0.34588650  0.70441750  0.61746500  1
  O  O82  1  0.52197050  0.09463750  0.92832500  1
  O  O83  1  0.11723350  0.98945550  0.03728100  1
  O  O84  1  0.20602700  0.63986100  0.21350000  1
  O  O85  1  0.29397300  0.13986100  0.28650000  1
  O  O86  1  0.38276650  0.48945550  0.46271900  1
  O  O87  1  0.47802950  0.09463750  0.57167500  1
  O  O88  1  0.65411350  0.70441750  0.88253500  1
  O  O89  1  0.32932000  0.68598900  0.20088700  1
  O  O90  1  0.67068000  0.31401100  0.79911300  1
  O  O91  1  0.34588650  0.29558250  0.11746500  1
  O  O92  1  0.52197050  0.90536250  0.42832500  1
  O  O93  1  0.61723350  0.51054450  0.53728100  1
  O  O94  1  0.70602700  0.86013900  0.71350000  1
  O  O95  1  0.79397300  0.36013900  0.78650000  1
  O  O96  1  0.88276650  0.01054450  0.96271900  1
  O  O97  1  0.47802950  0.90536250  0.07167500  1
  O  O98  1  0.65411350  0.29558250  0.38253500  1
  O  O99  1  0.82932000  0.81401100  0.70088700  1
  O  O100  1  0.67068000  0.68598900  0.29911300  1
  O  O101  1  0.84588650  0.20441750  0.61746500  1
  O  O102  1  0.02197050  0.59463750  0.92832500  1
  O  O103  1  0.61723350  0.48945550  0.03728100  1
  O  O104  1  0.70602700  0.13986100  0.21350000  1
  O  O105  1  0.79397300  0.63986100  0.28650000  1
  O  O106  1  0.88276650  0.98945550  0.46271900  1
  O  O107  1  0.97802950  0.59463750  0.57167500  1
  O  O108  1  0.15411350  0.20441750  0.88253500  1
  O  O109  1  0.82932000  0.18598900  0.20088700  1
  O  O110  1  0.17068000  0.81401100  0.79911300  1
  O  O111  1  0.84588650  0.79558250  0.11746500  1
  O  O112  1  0.02197050  0.40536250  0.42832500  1
  O  O113  1  0.11723350  0.01054450  0.53728100  1
  O  O114  1  0.20602700  0.36013900  0.71350000  1
  O  O115  1  0.29397300  0.86013900  0.78650000  1
  O  O116  1  0.38276650  0.51054450  0.96271900  1
  O  O117  1  0.97802950  0.40536250  0.07167500  1
  O  O118  1  0.15411350  0.79558250  0.38253500  1
  O  O119  1  0.32932000  0.31401100  0.70088700  1
