# generated using pymatgen
data_RbVH24(SO10)2
_symmetry_space_group_name_H-M   'P 1'
_cell_length_a   12.40314643
_cell_length_b   12.40314643
_cell_length_c   12.40314643
_cell_angle_alpha   90.00000000
_cell_angle_beta   90.00000000
_cell_angle_gamma   90.00000000
_symmetry_Int_Tables_number   1
_chemical_formula_structural   RbVH24(SO10)2
_chemical_formula_sum   'Rb4 V4 H96 S8 O80'
_cell_volume   1908.07575354
_cell_formula_units_Z   4
loop_
 _symmetry_equiv_pos_site_id
 _symmetry_equiv_pos_as_xyz
  1  'x, y, z'
loop_
 _atom_site_type_symbol
 _atom_site_label
 _atom_site_symmetry_multiplicity
 _atom_site_fract_x
 _atom_site_fract_y
 _atom_site_fract_z
 _atom_site_occupancy
  Rb  Rb0  1  0.00000000  0.00000000  0.50000000  1
  Rb  Rb1  1  0.00000000  0.50000000  0.00000000  1
  Rb  Rb2  1  0.50000000  0.00000000  0.00000000  1
  Rb  Rb3  1  0.50000000  0.50000000  0.50000000  1
  V  V4  1  0.50000000  0.50000000  0.00000000  1
  V  V5  1  0.50000000  0.00000000  0.50000000  1
  V  V6  1  0.00000000  0.50000000  0.50000000  1
  V  V7  1  0.00000000  0.00000000  0.00000000  1
  H  H8  1  0.22020662  0.51721144  0.22074476  1
  H  H9  1  0.77979338  0.01721144  0.27925524  1
  H  H10  1  0.27979338  0.48278856  0.72074476  1
  H  H11  1  0.72020662  0.98278856  0.77925524  1
  H  H12  1  0.22074476  0.22020662  0.51721144  1
  H  H13  1  0.27925524  0.77979338  0.01721144  1
  H  H14  1  0.72074476  0.27979338  0.48278856  1
  H  H15  1  0.77925524  0.72020662  0.98278856  1
  H  H16  1  0.51721144  0.22074476  0.22020662  1
  H  H17  1  0.01721144  0.27925524  0.77979338  1
  H  H18  1  0.48278856  0.72074476  0.27979338  1
  H  H19  1  0.98278856  0.77925524  0.72020662  1
  H  H20  1  0.77979338  0.48278856  0.77925524  1
  H  H21  1  0.22020662  0.98278856  0.72074476  1
  H  H22  1  0.72020662  0.51721144  0.27925524  1
  H  H23  1  0.27979338  0.01721144  0.22074476  1
  H  H24  1  0.77925524  0.77979338  0.48278856  1
  H  H25  1  0.72074476  0.22020662  0.98278856  1
  H  H26  1  0.27925524  0.72020662  0.51721144  1
  H  H27  1  0.22074476  0.27979338  0.01721144  1
  H  H28  1  0.48278856  0.77925524  0.77979338  1
  H  H29  1  0.98278856  0.72074476  0.22020662  1
  H  H30  1  0.51721144  0.27925524  0.72020662  1
  H  H31  1  0.01721144  0.22074476  0.27979338  1
  H  H32  1  0.16300183  0.62755644  0.20547056  1
  H  H33  1  0.83699817  0.12755644  0.29452944  1
  H  H34  1  0.33699817  0.37244356  0.70547056  1
  H  H35  1  0.66300183  0.87244356  0.79452944  1
  H  H36  1  0.20547056  0.16300183  0.62755644  1
  H  H37  1  0.29452944  0.83699817  0.12755644  1
  H  H38  1  0.70547056  0.33699817  0.37244356  1
  H  H39  1  0.79452944  0.66300183  0.87244356  1
  H  H40  1  0.62755644  0.20547056  0.16300183  1
  H  H41  1  0.12755644  0.29452944  0.83699817  1
  H  H42  1  0.37244356  0.70547056  0.33699817  1
  H  H43  1  0.87244356  0.79452944  0.66300183  1
  H  H44  1  0.83699817  0.37244356  0.79452944  1
  H  H45  1  0.16300183  0.87244356  0.70547056  1
  H  H46  1  0.66300183  0.62755644  0.29452944  1
  H  H47  1  0.33699817  0.12755644  0.20547056  1
  H  H48  1  0.79452944  0.83699817  0.37244356  1
  H  H49  1  0.70547056  0.16300183  0.87244356  1
  H  H50  1  0.29452944  0.66300183  0.62755644  1
  H  H51  1  0.20547056  0.33699817  0.12755644  1
  H  H52  1  0.37244356  0.79452944  0.83699817  1
  H  H53  1  0.87244356  0.70547056  0.16300183  1
  H  H54  1  0.62755644  0.29452944  0.66300183  1
  H  H55  1  0.12755644  0.20547056  0.33699817  1
  H  H56  1  0.48262501  0.71165438  0.93790768  1
  H  H57  1  0.51737499  0.21165438  0.56209232  1
  H  H58  1  0.01737499  0.28834562  0.43790768  1
  H  H59  1  0.98262501  0.78834562  0.06209232  1
  H  H60  1  0.93790768  0.48262501  0.71165438  1
  H  H61  1  0.56209232  0.51737499  0.21165438  1
  H  H62  1  0.43790768  0.01737499  0.28834562  1
  H  H63  1  0.06209232  0.98262501  0.78834562  1
  H  H64  1  0.71165438  0.93790768  0.48262501  1
  H  H65  1  0.21165438  0.56209232  0.51737499  1
  H  H66  1  0.28834562  0.43790768  0.01737499  1
  H  H67  1  0.78834562  0.06209232  0.98262501  1
  H  H68  1  0.51737499  0.28834562  0.06209232  1
  H  H69  1  0.48262501  0.78834562  0.43790768  1
  H  H70  1  0.98262501  0.71165438  0.56209232  1
  H  H71  1  0.01737499  0.21165438  0.93790768  1
  H  H72  1  0.06209232  0.51737499  0.28834562  1
  H  H73  1  0.43790768  0.48262501  0.78834562  1
  H  H74  1  0.56209232  0.98262501  0.71165438  1
  H  H75  1  0.93790768  0.01737499  0.21165438  1
  H  H76  1  0.28834562  0.06209232  0.51737499  1
  H  H77  1  0.78834562  0.43790768  0.48262501  1
  H  H78  1  0.71165438  0.56209232  0.98262501  1
  H  H79  1  0.21165438  0.93790768  0.01737499  1
  H  H80  1  0.52516815  0.70681950  0.06375763  1
  H  H81  1  0.47483185  0.20681950  0.43624237  1
  H  H82  1  0.97483185  0.29318050  0.56375763  1
  H  H83  1  0.02516815  0.79318050  0.93624237  1
  H  H84  1  0.06375763  0.52516815  0.70681950  1
  H  H85  1  0.43624237  0.47483185  0.20681950  1
  H  H86  1  0.56375763  0.97483185  0.29318050  1
  H  H87  1  0.93624237  0.02516815  0.79318050  1
  H  H88  1  0.70681950  0.06375763  0.52516815  1
  H  H89  1  0.20681950  0.43624237  0.47483185  1
  H  H90  1  0.29318050  0.56375763  0.97483185  1
  H  H91  1  0.79318050  0.93624237  0.02516815  1
  H  H92  1  0.47483185  0.29318050  0.93624237  1
  H  H93  1  0.52516815  0.79318050  0.56375763  1
  H  H94  1  0.02516815  0.70681950  0.43624237  1
  H  H95  1  0.97483185  0.20681950  0.06375763  1
  H  H96  1  0.93624237  0.47483185  0.29318050  1
  H  H97  1  0.56375763  0.52516815  0.79318050  1
  H  H98  1  0.43624237  0.02516815  0.70681950  1
  H  H99  1  0.06375763  0.97483185  0.20681950  1
  H  H100  1  0.29318050  0.93624237  0.47483185  1
  H  H101  1  0.79318050  0.56375763  0.52516815  1
  H  H102  1  0.70681950  0.43624237  0.02516815  1
  H  H103  1  0.20681950  0.06375763  0.97483185  1
  S  S104  1  0.17207684  0.82792316  0.32792316  1
  S  S105  1  0.82792316  0.32792316  0.17207684  1
  S  S106  1  0.32792316  0.17207684  0.82792316  1
  S  S107  1  0.67207684  0.67207684  0.67207684  1
  S  S108  1  0.82792316  0.17207684  0.67207684  1
  S  S109  1  0.17207684  0.67207684  0.82792316  1
  S  S110  1  0.67207684  0.82792316  0.17207684  1
  S  S111  1  0.32792316  0.32792316  0.32792316  1
  O  O112  1  0.24129446  0.75870554  0.25870554  1
  O  O113  1  0.75870554  0.25870554  0.24129446  1
  O  O114  1  0.25870554  0.24129446  0.75870554  1
  O  O115  1  0.74129446  0.74129446  0.74129446  1
  O  O116  1  0.75870554  0.24129446  0.74129446  1
  O  O117  1  0.24129446  0.74129446  0.75870554  1
  O  O118  1  0.74129446  0.75870554  0.24129446  1
  O  O119  1  0.25870554  0.25870554  0.25870554  1
  O  O120  1  0.06039878  0.78190383  0.33482099  1
  O  O121  1  0.93960122  0.28190383  0.16517901  1
  O  O122  1  0.43960122  0.21809617  0.83482099  1
  O  O123  1  0.56039878  0.71809617  0.66517901  1
  O  O124  1  0.33482099  0.06039878  0.78190383  1
  O  O125  1  0.16517901  0.93960122  0.28190383  1
  O  O126  1  0.83482099  0.43960122  0.21809617  1
  O  O127  1  0.66517901  0.56039878  0.71809617  1
  O  O128  1  0.78190383  0.33482099  0.06039878  1
  O  O129  1  0.28190383  0.16517901  0.93960122  1
  O  O130  1  0.21809617  0.83482099  0.43960122  1
  O  O131  1  0.71809617  0.66517901  0.56039878  1
  O  O132  1  0.93960122  0.21809617  0.66517901  1
  O  O133  1  0.06039878  0.71809617  0.83482099  1
  O  O134  1  0.56039878  0.78190383  0.16517901  1
  O  O135  1  0.43960122  0.28190383  0.33482099  1
  O  O136  1  0.66517901  0.93960122  0.21809617  1
  O  O137  1  0.83482099  0.06039878  0.71809617  1
  O  O138  1  0.16517901  0.56039878  0.78190383  1
  O  O139  1  0.33482099  0.43960122  0.28190383  1
  O  O140  1  0.21809617  0.66517901  0.93960122  1
  O  O141  1  0.71809617  0.83482099  0.06039878  1
  O  O142  1  0.78190383  0.16517901  0.56039878  1
  O  O143  1  0.28190383  0.33482099  0.43960122  1
  O  O144  1  0.15098083  0.54977941  0.19854212  1
  O  O145  1  0.84901917  0.04977941  0.30145788  1
  O  O146  1  0.34901917  0.45022059  0.69854212  1
  O  O147  1  0.65098083  0.95022059  0.80145788  1
  O  O148  1  0.19854212  0.15098083  0.54977941  1
  O  O149  1  0.30145788  0.84901917  0.04977941  1
  O  O150  1  0.69854212  0.34901917  0.45022059  1
  O  O151  1  0.80145788  0.65098083  0.95022059  1
  O  O152  1  0.54977941  0.19854212  0.15098083  1
  O  O153  1  0.04977941  0.30145788  0.84901917  1
  O  O154  1  0.45022059  0.69854212  0.34901917  1
  O  O155  1  0.95022059  0.80145788  0.65098083  1
  O  O156  1  0.84901917  0.45022059  0.80145788  1
  O  O157  1  0.15098083  0.95022059  0.69854212  1
  O  O158  1  0.65098083  0.54977941  0.30145788  1
  O  O159  1  0.34901917  0.04977941  0.19854212  1
  O  O160  1  0.80145788  0.84901917  0.45022059  1
  O  O161  1  0.69854212  0.15098083  0.95022059  1
  O  O162  1  0.30145788  0.65098083  0.54977941  1
  O  O163  1  0.19854212  0.34901917  0.04977941  1
  O  O164  1  0.45022059  0.80145788  0.84901917  1
  O  O165  1  0.95022059  0.69854212  0.15098083  1
  O  O166  1  0.54977941  0.30145788  0.65098083  1
  O  O167  1  0.04977941  0.19854212  0.34901917  1
  O  O168  1  0.50084629  0.66256691  0.00070806  1
  O  O169  1  0.49915371  0.16256691  0.49929194  1
  O  O170  1  0.99915371  0.33743309  0.50070806  1
  O  O171  1  0.00084629  0.83743309  0.99929194  1
  O  O172  1  0.00070806  0.50084629  0.66256691  1
  O  O173  1  0.49929194  0.49915371  0.16256691  1
  O  O174  1  0.50070806  0.99915371  0.33743309  1
  O  O175  1  0.99929194  0.00084629  0.83743309  1
  O  O176  1  0.66256691  0.00070806  0.50084629  1
  O  O177  1  0.16256691  0.49929194  0.49915371  1
  O  O178  1  0.33743309  0.50070806  0.99915371  1
  O  O179  1  0.83743309  0.99929194  0.00084629  1
  O  O180  1  0.49915371  0.33743309  0.99929194  1
  O  O181  1  0.50084629  0.83743309  0.50070806  1
  O  O182  1  0.00084629  0.66256691  0.49929194  1
  O  O183  1  0.99915371  0.16256691  0.00070806  1
  O  O184  1  0.99929194  0.49915371  0.33743309  1
  O  O185  1  0.50070806  0.50084629  0.83743309  1
  O  O186  1  0.49929194  0.00084629  0.66256691  1
  O  O187  1  0.00070806  0.99915371  0.16256691  1
  O  O188  1  0.33743309  0.99929194  0.49915371  1
  O  O189  1  0.83743309  0.50070806  0.50084629  1
  O  O190  1  0.66256691  0.49929194  0.00084629  1
  O  O191  1  0.16256691  0.00070806  0.99915371  1
