# generated using pymatgen
data_BeO
_symmetry_space_group_name_H-M   'P 1'
_cell_length_a   4.64187600
_cell_length_b   4.64187600
_cell_length_c   2.70097300
_cell_angle_alpha   90.00000000
_cell_angle_beta   90.00000000
_cell_angle_gamma   90.00000000
_symmetry_Int_Tables_number   1
_chemical_formula_structural   BeO
_chemical_formula_sum   'Be4 O4'
_cell_volume   58.19789980
_cell_formula_units_Z   4
loop_
 _symmetry_equiv_pos_site_id
 _symmetry_equiv_pos_as_xyz
  1  'x, y, z'
loop_
 _atom_site_type_symbol
 _atom_site_label
 _atom_site_symmetry_multiplicity
 _atom_site_fract_x
 _atom_site_fract_y
 _atom_site_fract_z
 _atom_site_occupancy
  Be  Be0  1  0.32658600  0.67341400  0.00000000  1
  Be  Be1  1  0.82658600  0.82658600  0.50000000  1
  Be  Be2  1  0.17341400  0.17341400  0.50000000  1
  Be  Be3  1  0.67341400  0.32658600  0.00000000  1
  O  O4  1  0.31135300  0.31135300  0.00000000  1
  O  O5  1  0.18864700  0.81135300  0.50000000  1
  O  O6  1  0.81135300  0.18864700  0.50000000  1
  O  O7  1  0.68864700  0.68864700  0.00000000  1
