# generated using pymatgen
data_Li3Ti(CoO3)2
_symmetry_space_group_name_H-M   'P 1'
_cell_length_a   12.85620800
_cell_length_b   2.97398600
_cell_length_c   5.97896627
_cell_angle_alpha   90.00000000
_cell_angle_beta   104.40531847
_cell_angle_gamma   90.00000000
_symmetry_Int_Tables_number   1
_chemical_formula_structural   Li3Ti(CoO3)2
_chemical_formula_sum   'Li6 Ti2 Co4 O12'
_cell_volume   221.41369266
_cell_formula_units_Z   2
loop_
 _symmetry_equiv_pos_site_id
 _symmetry_equiv_pos_as_xyz
  1  'x, y, z'
loop_
 _atom_site_type_symbol
 _atom_site_label
 _atom_site_symmetry_multiplicity
 _atom_site_fract_x
 _atom_site_fract_y
 _atom_site_fract_z
 _atom_site_occupancy
  Li  Li0  1  0.00000000  0.50000000  0.50000000  1
  Li  Li1  1  0.16984900  0.00000000  0.83471300  1
  Li  Li2  1  0.33015100  0.50000000  0.16528700  1
  Li  Li3  1  0.50000000  0.00000000  0.50000000  1
  Li  Li4  1  0.66984900  0.50000000  0.83471300  1
  Li  Li5  1  0.83015100  0.00000000  0.16528700  1
  Ti  Ti6  1  0.00000000  0.50000000  0.00000000  1
  Ti  Ti7  1  0.50000000  0.00000000  0.00000000  1
  Co  Co8  1  0.17343300  0.00000000  0.34291700  1
  Co  Co9  1  0.32656700  0.50000000  0.65708300  1
  Co  Co10  1  0.67343300  0.50000000  0.34291700  1
  Co  Co11  1  0.82656700  0.00000000  0.65708300  1
  O  O12  1  0.15696200  0.50000000  0.08976600  1
  O  O13  1  0.33188300  0.00000000  0.42313300  1
  O  O14  1  0.34303800  0.00000000  0.91023400  1
  O  O15  1  0.49929100  0.50000000  0.77453900  1
  O  O16  1  0.00070900  0.00000000  0.22546100  1
  O  O17  1  0.16811700  0.50000000  0.57686700  1
  O  O18  1  0.65696200  0.00000000  0.08976600  1
  O  O19  1  0.83188300  0.50000000  0.42313300  1
  O  O20  1  0.84303800  0.50000000  0.91023400  1
  O  O21  1  0.99929100  0.00000000  0.77453900  1
  O  O22  1  0.50070900  0.50000000  0.22546100  1
  O  O23  1  0.66811700  0.00000000  0.57686700  1
