# generated using pymatgen
data_Fe3OF5
_symmetry_space_group_name_H-M   'P 1'
_cell_length_a   6.86493800
_cell_length_b   20.39717400
_cell_length_c   3.18054200
_cell_angle_alpha   90.00000000
_cell_angle_beta   90.00000000
_cell_angle_gamma   90.00000000
_symmetry_Int_Tables_number   1
_chemical_formula_structural   Fe3OF5
_chemical_formula_sum   'Fe12 O4 F20'
_cell_volume   445.35645867
_cell_formula_units_Z   4
loop_
 _symmetry_equiv_pos_site_id
 _symmetry_equiv_pos_as_xyz
  1  'x, y, z'
loop_
 _atom_site_type_symbol
 _atom_site_label
 _atom_site_symmetry_multiplicity
 _atom_site_fract_x
 _atom_site_fract_y
 _atom_site_fract_z
 _atom_site_occupancy
  Fe  Fe0  1  0.00000000  0.00000000  0.00000000  1
  Fe  Fe1  1  0.50000000  0.00000000  0.50000000  1
  Fe  Fe2  1  0.00000000  0.34552700  0.00000000  1
  Fe  Fe3  1  0.00000000  0.16969100  0.50000000  1
  Fe  Fe4  1  0.50000000  0.33030900  0.50000000  1
  Fe  Fe5  1  0.50000000  0.15447300  0.00000000  1
  Fe  Fe6  1  0.50000000  0.50000000  0.00000000  1
  Fe  Fe7  1  0.00000000  0.50000000  0.50000000  1
  Fe  Fe8  1  0.50000000  0.84552700  0.00000000  1
  Fe  Fe9  1  0.50000000  0.66969100  0.50000000  1
  Fe  Fe10  1  0.00000000  0.83030900  0.50000000  1
  Fe  Fe11  1  0.00000000  0.65447300  0.00000000  1
  O  O12  1  0.00000000  0.39760700  0.50000000  1
  O  O13  1  0.50000000  0.10239300  0.50000000  1
  O  O14  1  0.50000000  0.89760700  0.50000000  1
  O  O15  1  0.00000000  0.60239300  0.50000000  1
  F  F16  1  0.29500800  0.00000000  0.00000000  1
  F  F17  1  0.70755150  0.32952550  0.00000000  1
  F  F18  1  0.70499200  0.00000000  0.00000000  1
  F  F19  1  0.00000000  0.27065800  0.50000000  1
  F  F20  1  0.50000000  0.43021400  0.50000000  1
  F  F21  1  0.29244850  0.32952550  0.00000000  1
  F  F22  1  0.20755150  0.17047450  0.00000000  1
  F  F23  1  0.00000000  0.06978600  0.50000000  1
  F  F24  1  0.50000000  0.22934200  0.50000000  1
  F  F25  1  0.79244850  0.17047450  0.00000000  1
  F  F26  1  0.79500800  0.50000000  0.00000000  1
  F  F27  1  0.20755150  0.82952550  0.00000000  1
  F  F28  1  0.20499200  0.50000000  0.00000000  1
  F  F29  1  0.50000000  0.77065800  0.50000000  1
  F  F30  1  0.00000000  0.93021400  0.50000000  1
  F  F31  1  0.79244850  0.82952550  0.00000000  1
  F  F32  1  0.70755150  0.67047450  0.00000000  1
  F  F33  1  0.50000000  0.56978600  0.50000000  1
  F  F34  1  0.00000000  0.72934200  0.50000000  1
  F  F35  1  0.29244850  0.67047450  0.00000000  1
