# generated using pymatgen
data_Li5TaO5
_symmetry_space_group_name_H-M   'P 1'
_cell_length_a   5.73771200
_cell_length_b   9.36624400
_cell_length_c   9.09551720
_cell_angle_alpha   90.00000000
_cell_angle_beta   104.69373017
_cell_angle_gamma   90.00000000
_symmetry_Int_Tables_number   1
_chemical_formula_structural   Li5TaO5
_chemical_formula_sum   'Li20 Ta4 O20'
_cell_volume   472.81449987
_cell_formula_units_Z   4
loop_
 _symmetry_equiv_pos_site_id
 _symmetry_equiv_pos_as_xyz
  1  'x, y, z'
loop_
 _atom_site_type_symbol
 _atom_site_label
 _atom_site_symmetry_multiplicity
 _atom_site_fract_x
 _atom_site_fract_y
 _atom_site_fract_z
 _atom_site_occupancy
  Li  Li0  1  0.34043800  0.11644600  0.95921900  1
  Li  Li1  1  0.62778250  0.67396650  0.56045500  1
  Li  Li2  1  0.34043800  0.88355400  0.45921900  1
  Li  Li3  1  0.62778250  0.32603350  0.06045500  1
  Li  Li4  1  0.50000000  0.82697000  0.75000000  1
  Li  Li5  1  0.50000000  0.17303000  0.25000000  1
  Li  Li6  1  0.37221750  0.67396650  0.93954500  1
  Li  Li7  1  0.65956200  0.11644600  0.54078100  1
  Li  Li8  1  0.37221750  0.32603350  0.43954500  1
  Li  Li9  1  0.65956200  0.88355400  0.04078100  1
  Li  Li10  1  0.84043800  0.61644600  0.95921900  1
  Li  Li11  1  0.12778250  0.17396650  0.56045500  1
  Li  Li12  1  0.84043800  0.38355400  0.45921900  1
  Li  Li13  1  0.12778250  0.82603350  0.06045500  1
  Li  Li14  1  0.00000000  0.32697000  0.75000000  1
  Li  Li15  1  0.00000000  0.67303000  0.25000000  1
  Li  Li16  1  0.87221750  0.17396650  0.93954500  1
  Li  Li17  1  0.15956200  0.61644600  0.54078100  1
  Li  Li18  1  0.87221750  0.82603350  0.43954500  1
  Li  Li19  1  0.15956200  0.38355400  0.04078100  1
  Ta  Ta20  1  0.50000000  0.41164700  0.75000000  1
  Ta  Ta21  1  0.50000000  0.58835300  0.25000000  1
  Ta  Ta22  1  0.00000000  0.91164700  0.75000000  1
  Ta  Ta23  1  0.00000000  0.08835300  0.25000000  1
  O  O24  1  0.31323150  0.88666850  0.91048900  1
  O  O25  1  0.34351300  0.33061000  0.89365500  1
  O  O26  1  0.31323150  0.11333150  0.41048900  1
  O  O27  1  0.50000000  0.61324400  0.75000000  1
  O  O28  1  0.34351300  0.66939000  0.39365500  1
  O  O29  1  0.65648700  0.33061000  0.60634500  1
  O  O30  1  0.50000000  0.38675600  0.25000000  1
  O  O31  1  0.68676850  0.88666850  0.58951100  1
  O  O32  1  0.65648700  0.66939000  0.10634500  1
  O  O33  1  0.68676850  0.11333150  0.08951100  1
  O  O34  1  0.81323150  0.38666850  0.91048900  1
  O  O35  1  0.84351300  0.83061000  0.89365500  1
  O  O36  1  0.81323150  0.61333150  0.41048900  1
  O  O37  1  0.00000000  0.11324400  0.75000000  1
  O  O38  1  0.84351300  0.16939000  0.39365500  1
  O  O39  1  0.15648700  0.83061000  0.60634500  1
  O  O40  1  0.00000000  0.88675600  0.25000000  1
  O  O41  1  0.18676850  0.38666850  0.58951100  1
  O  O42  1  0.15648700  0.16939000  0.10634500  1
  O  O43  1  0.18676850  0.61333150  0.08951100  1
