# generated using pymatgen
data_Sm2Pb2O7
_symmetry_space_group_name_H-M   'P 1'
_cell_length_a   7.59562800
_cell_length_b   7.17776200
_cell_length_c   12.68907688
_cell_angle_alpha   90.00000000
_cell_angle_beta   100.98858327
_cell_angle_gamma   90.00000000
_symmetry_Int_Tables_number   1
_chemical_formula_structural   Sm2Pb2O7
_chemical_formula_sum   'Sm8 Pb8 O28'
_cell_volume   679.11943330
_cell_formula_units_Z   4
loop_
 _symmetry_equiv_pos_site_id
 _symmetry_equiv_pos_as_xyz
  1  'x, y, z'
loop_
 _atom_site_type_symbol
 _atom_site_label
 _atom_site_symmetry_multiplicity
 _atom_site_fract_x
 _atom_site_fract_y
 _atom_site_fract_z
 _atom_site_occupancy
  Sm  Sm0  1  0.52766300  0.60070100  0.85572100  1
  Sm  Sm1  1  0.47233700  0.10070100  0.64427900  1
  Sm  Sm2  1  0.72952900  0.81433200  0.11288400  1
  Sm  Sm3  1  0.27047100  0.31433200  0.38711600  1
  Sm  Sm4  1  0.72952900  0.68566800  0.61288400  1
  Sm  Sm5  1  0.27047100  0.18566800  0.88711600  1
  Sm  Sm6  1  0.52766300  0.89929900  0.35572100  1
  Sm  Sm7  1  0.47233700  0.39929900  0.14427900  1
  Pb  Pb8  1  0.23295000  0.61467300  0.60194800  1
  Pb  Pb9  1  0.76705000  0.11467300  0.89805200  1
  Pb  Pb10  1  0.94264600  0.38900400  0.11192400  1
  Pb  Pb11  1  0.05735400  0.88900400  0.38807600  1
  Pb  Pb12  1  0.94264600  0.11099600  0.61192400  1
  Pb  Pb13  1  0.05735400  0.61099600  0.88807600  1
  Pb  Pb14  1  0.23295000  0.88532700  0.10194800  1
  Pb  Pb15  1  0.76705000  0.38532700  0.39805200  1
  O  O16  1  0.00153200  0.81088300  0.56493000  1
  O  O17  1  0.53075100  0.26519500  0.82379000  1
  O  O18  1  0.39309000  0.38410600  0.56753900  1
  O  O19  1  0.78514900  0.46427600  0.23731500  1
  O  O20  1  0.80222900  0.89354200  0.29396700  1
  O  O21  1  0.60691000  0.88410600  0.93246100  1
  O  O22  1  0.68204700  0.50624200  0.03105900  1
  O  O23  1  0.46924900  0.76519500  0.67621000  1
  O  O24  1  0.84419800  0.10747000  0.07612000  1
  O  O25  1  0.78514900  0.03572400  0.73731500  1
  O  O26  1  0.99846800  0.31088300  0.93507000  1
  O  O27  1  0.80222900  0.60645800  0.79396700  1
  O  O28  1  0.15580200  0.60747000  0.42388000  1
  O  O29  1  0.68204700  0.99375800  0.53105900  1
  O  O30  1  0.31795300  0.00624200  0.46894100  1
  O  O31  1  0.84419800  0.39253000  0.57612000  1
  O  O32  1  0.19777100  0.39354200  0.20603300  1
  O  O33  1  0.00153200  0.68911700  0.06493000  1
  O  O34  1  0.21485100  0.96427600  0.26268500  1
  O  O35  1  0.15580200  0.89253000  0.92388000  1
  O  O36  1  0.53075100  0.23480500  0.32379000  1
  O  O37  1  0.31795300  0.49375800  0.96894100  1
  O  O38  1  0.39309000  0.11589400  0.06753900  1
  O  O39  1  0.19777100  0.10645800  0.70603300  1
  O  O40  1  0.21485100  0.53572400  0.76268500  1
  O  O41  1  0.60691000  0.61589400  0.43246100  1
  O  O42  1  0.46924900  0.73480500  0.17621000  1
  O  O43  1  0.99846800  0.18911700  0.43507000  1
