# generated using pymatgen
data_Nb2PbO6
_symmetry_space_group_name_H-M   'P 1'
_cell_length_a   18.05805400
_cell_length_b   18.70298600
_cell_length_c   7.90381100
_cell_angle_alpha   90.00000000
_cell_angle_beta   90.00000000
_cell_angle_gamma   90.00000000
_symmetry_Int_Tables_number   1
_chemical_formula_structural   Nb2PbO6
_chemical_formula_sum   'Nb40 Pb20 O120'
_cell_volume   2669.42942143
_cell_formula_units_Z   20
loop_
 _symmetry_equiv_pos_site_id
 _symmetry_equiv_pos_as_xyz
  1  'x, y, z'
loop_
 _atom_site_type_symbol
 _atom_site_label
 _atom_site_symmetry_multiplicity
 _atom_site_fract_x
 _atom_site_fract_y
 _atom_site_fract_z
 _atom_site_occupancy
  Nb  Nb0  1  0.18120250  0.88545550  0.00157700  1
  Nb  Nb1  1  0.18120250  0.88545550  0.49842300  1
  Nb  Nb2  1  0.18433250  0.09962550  0.50396800  1
  Nb  Nb3  1  0.18433250  0.09962550  0.99603200  1
  Nb  Nb4  1  0.38994150  0.17536450  0.99598500  1
  Nb  Nb5  1  0.38994150  0.17536450  0.50401500  1
  Nb  Nb6  1  0.39389450  0.81184150  0.00234800  1
  Nb  Nb7  1  0.39389450  0.81184150  0.49765200  1
  Nb  Nb8  1  0.50000000  0.49565200  0.00000000  1
  Nb  Nb9  1  0.50000000  0.99622600  0.00000000  1
  Nb  Nb10  1  0.50000000  0.99622600  0.50000000  1
  Nb  Nb11  1  0.50000000  0.49565200  0.50000000  1
  Nb  Nb12  1  0.60610550  0.81184150  0.99765200  1
  Nb  Nb13  1  0.60610550  0.81184150  0.50234800  1
  Nb  Nb14  1  0.61005850  0.17536450  0.00401500  1
  Nb  Nb15  1  0.61005850  0.17536450  0.49598500  1
  Nb  Nb16  1  0.81566750  0.09962550  0.00396800  1
  Nb  Nb17  1  0.81566750  0.09962550  0.49603200  1
  Nb  Nb18  1  0.81879750  0.88545550  0.99842300  1
  Nb  Nb19  1  0.81879750  0.88545550  0.50157700  1
  Nb  Nb20  1  0.68120250  0.38545550  0.00157700  1
  Nb  Nb21  1  0.68120250  0.38545550  0.49842300  1
  Nb  Nb22  1  0.68433250  0.59962550  0.50396800  1
  Nb  Nb23  1  0.68433250  0.59962550  0.99603200  1
  Nb  Nb24  1  0.88994150  0.67536450  0.99598500  1
  Nb  Nb25  1  0.88994150  0.67536450  0.50401500  1
  Nb  Nb26  1  0.89389450  0.31184150  0.00234800  1
  Nb  Nb27  1  0.89389450  0.31184150  0.49765200  1
  Nb  Nb28  1  0.00000000  0.99565200  0.00000000  1
  Nb  Nb29  1  0.00000000  0.49622600  0.00000000  1
  Nb  Nb30  1  0.00000000  0.49622600  0.50000000  1
  Nb  Nb31  1  0.00000000  0.99565200  0.50000000  1
  Nb  Nb32  1  0.10610550  0.31184150  0.99765200  1
  Nb  Nb33  1  0.10610550  0.31184150  0.50234800  1
  Nb  Nb34  1  0.11005850  0.67536450  0.00401500  1
  Nb  Nb35  1  0.11005850  0.67536450  0.49598500  1
  Nb  Nb36  1  0.31566750  0.59962550  0.00396800  1
  Nb  Nb37  1  0.31566750  0.59962550  0.49603200  1
  Nb  Nb38  1  0.31879750  0.38545550  0.99842300  1
  Nb  Nb39  1  0.31879750  0.38545550  0.50157700  1
  Pb  Pb40  1  0.75454700  0.23741400  0.75000000  1
  Pb  Pb41  1  0.32861950  0.95121050  0.75000000  1
  Pb  Pb42  1  0.32861900  0.95225600  0.25000000  1
  Pb  Pb43  1  0.50194050  0.64318450  0.25000000  1
  Pb  Pb44  1  0.50269900  0.29092500  0.75000000  1
  Pb  Pb45  1  0.49730100  0.29092500  0.25000000  1
  Pb  Pb46  1  0.49805950  0.64318450  0.75000000  1
  Pb  Pb47  1  0.67138100  0.95225600  0.75000000  1
  Pb  Pb48  1  0.67138050  0.95121050  0.25000000  1
  Pb  Pb49  1  0.24545300  0.23741400  0.25000000  1
  Pb  Pb50  1  0.25454700  0.73741400  0.75000000  1
  Pb  Pb51  1  0.82861950  0.45121050  0.75000000  1
  Pb  Pb52  1  0.82861900  0.45225600  0.25000000  1
  Pb  Pb53  1  0.00194050  0.14318450  0.25000000  1
  Pb  Pb54  1  0.00269900  0.79092500  0.75000000  1
  Pb  Pb55  1  0.99730100  0.79092500  0.25000000  1
  Pb  Pb56  1  0.99805950  0.14318450  0.75000000  1
  Pb  Pb57  1  0.17138100  0.45225600  0.75000000  1
  Pb  Pb58  1  0.17138050  0.45121050  0.25000000  1
  Pb  Pb59  1  0.74545300  0.73741400  0.25000000  1
  O  O60  1  0.19188450  0.89916150  0.25000000  1
  O  O61  1  0.19187200  0.90000600  0.75000000  1
  O  O62  1  0.18527600  0.11919100  0.25000000  1
  O  O63  1  0.18440050  0.11303250  0.75000000  1
  O  O64  1  0.21836550  0.00679650  0.00381200  1
  O  O65  1  0.21836550  0.00679650  0.49618800  1
  O  O66  1  0.29003800  0.86603700  0.99744000  1
  O  O67  1  0.29003800  0.86603700  0.50256000  1
  O  O68  1  0.28588400  0.15490700  0.00901300  1
  O  O69  1  0.28588400  0.15490700  0.49098700  1
  O  O70  1  0.35426100  0.72169000  0.99086900  1
  O  O71  1  0.35426100  0.72169000  0.50913100  1
  O  O72  1  0.35650750  0.29443150  0.00428400  1
  O  O73  1  0.35650750  0.29443150  0.49571600  1
  O  O74  1  0.40000050  0.19814150  0.75000000  1
  O  O75  1  0.39817200  0.19880800  0.25000000  1
  O  O76  1  0.38735900  0.82957200  0.75000000  1
  O  O77  1  0.38850100  0.82814800  0.25000000  1
  O  O78  1  0.92125200  0.93069700  0.99886300  1
  O  O79  1  0.92125200  0.93069700  0.50113700  1
  O  O80  1  0.41956400  0.92911500  0.00116200  1
  O  O81  1  0.41956400  0.92911500  0.49883800  1
  O  O82  1  0.42209250  0.08253150  0.99767900  1
  O  O83  1  0.42209250  0.08253150  0.50232100  1
  O  O84  1  0.42467700  0.58870400  0.99751200  1
  O  O85  1  0.42467700  0.58870400  0.50248800  1
  O  O86  1  0.50000000  0.22174000  0.00000000  1
  O  O87  1  0.50000000  0.78700400  0.00000000  1
  O  O88  1  0.50107400  0.51614100  0.75000000  1
  O  O89  1  0.50000000  0.22174000  0.50000000  1
  O  O90  1  0.50000000  0.78700400  0.50000000  1
  O  O91  1  0.49892600  0.51614100  0.25000000  1
  O  O92  1  0.50041250  0.00296750  0.75000000  1
  O  O93  1  0.49958750  0.00296750  0.25000000  1
  O  O94  1  0.57532300  0.58870400  0.00248800  1
  O  O95  1  0.57532300  0.58870400  0.49751200  1
  O  O96  1  0.57790750  0.08253150  0.00232100  1
  O  O97  1  0.57790750  0.08253150  0.49767900  1
  O  O98  1  0.58043600  0.92911500  0.99883800  1
  O  O99  1  0.58043600  0.92911500  0.50116200  1
  O  O100  1  0.07874800  0.93069700  0.00113700  1
  O  O101  1  0.07874800  0.93069700  0.49886300  1
  O  O102  1  0.61149900  0.82814800  0.75000000  1
  O  O103  1  0.61264100  0.82957200  0.25000000  1
  O  O104  1  0.59999950  0.19814150  0.25000000  1
  O  O105  1  0.60182800  0.19880800  0.75000000  1
  O  O106  1  0.64349250  0.29443150  0.99571600  1
  O  O107  1  0.64349250  0.29443150  0.50428400  1
  O  O108  1  0.64573900  0.72169000  0.00913100  1
  O  O109  1  0.64573900  0.72169000  0.49086900  1
  O  O110  1  0.71411600  0.15490700  0.99098700  1
  O  O111  1  0.71411600  0.15490700  0.50901300  1
  O  O112  1  0.70996200  0.86603700  0.00256000  1
  O  O113  1  0.70996200  0.86603700  0.49744000  1
  O  O114  1  0.78163450  0.00679650  0.99618800  1
  O  O115  1  0.78163450  0.00679650  0.50381200  1
  O  O116  1  0.81472400  0.11919100  0.75000000  1
  O  O117  1  0.81559950  0.11303250  0.25000000  1
  O  O118  1  0.80811550  0.89916150  0.75000000  1
  O  O119  1  0.80812800  0.90000600  0.25000000  1
  O  O120  1  0.69188450  0.39916150  0.25000000  1
  O  O121  1  0.69187200  0.40000600  0.75000000  1
  O  O122  1  0.68527600  0.61919100  0.25000000  1
  O  O123  1  0.68440050  0.61303250  0.75000000  1
  O  O124  1  0.71836550  0.50679650  0.00381200  1
  O  O125  1  0.71836550  0.50679650  0.49618800  1
  O  O126  1  0.79003800  0.36603700  0.99744000  1
  O  O127  1  0.79003800  0.36603700  0.50256000  1
  O  O128  1  0.78588400  0.65490700  0.00901300  1
  O  O129  1  0.78588400  0.65490700  0.49098700  1
  O  O130  1  0.85426100  0.22169000  0.99086900  1
  O  O131  1  0.85426100  0.22169000  0.50913100  1
  O  O132  1  0.85650750  0.79443150  0.00428400  1
  O  O133  1  0.85650750  0.79443150  0.49571600  1
  O  O134  1  0.90000050  0.69814150  0.75000000  1
  O  O135  1  0.89817200  0.69880800  0.25000000  1
  O  O136  1  0.88735900  0.32957200  0.75000000  1
  O  O137  1  0.88850100  0.32814800  0.25000000  1
  O  O138  1  0.42125200  0.43069700  0.99886300  1
  O  O139  1  0.42125200  0.43069700  0.50113700  1
  O  O140  1  0.91956400  0.42911500  0.00116200  1
  O  O141  1  0.91956400  0.42911500  0.49883800  1
  O  O142  1  0.92209250  0.58253150  0.99767900  1
  O  O143  1  0.92209250  0.58253150  0.50232100  1
  O  O144  1  0.92467700  0.08870400  0.99751200  1
  O  O145  1  0.92467700  0.08870400  0.50248800  1
  O  O146  1  0.00000000  0.72174000  0.00000000  1
  O  O147  1  0.00000000  0.28700400  0.00000000  1
  O  O148  1  0.00107400  0.01614100  0.75000000  1
  O  O149  1  0.00000000  0.72174000  0.50000000  1
  O  O150  1  0.00000000  0.28700400  0.50000000  1
  O  O151  1  0.99892600  0.01614100  0.25000000  1
  O  O152  1  0.00041250  0.50296750  0.75000000  1
  O  O153  1  0.99958750  0.50296750  0.25000000  1
  O  O154  1  0.07532300  0.08870400  0.00248800  1
  O  O155  1  0.07532300  0.08870400  0.49751200  1
  O  O156  1  0.07790750  0.58253150  0.00232100  1
  O  O157  1  0.07790750  0.58253150  0.49767900  1
  O  O158  1  0.08043600  0.42911500  0.99883800  1
  O  O159  1  0.08043600  0.42911500  0.50116200  1
  O  O160  1  0.57874800  0.43069700  0.00113700  1
  O  O161  1  0.57874800  0.43069700  0.49886300  1
  O  O162  1  0.11149900  0.32814800  0.75000000  1
  O  O163  1  0.11264100  0.32957200  0.25000000  1
  O  O164  1  0.09999950  0.69814150  0.25000000  1
  O  O165  1  0.10182800  0.69880800  0.75000000  1
  O  O166  1  0.14349250  0.79443150  0.99571600  1
  O  O167  1  0.14349250  0.79443150  0.50428400  1
  O  O168  1  0.14573900  0.22169000  0.00913100  1
  O  O169  1  0.14573900  0.22169000  0.49086900  1
  O  O170  1  0.21411600  0.65490700  0.99098700  1
  O  O171  1  0.21411600  0.65490700  0.50901300  1
  O  O172  1  0.20996200  0.36603700  0.00256000  1
  O  O173  1  0.20996200  0.36603700  0.49744000  1
  O  O174  1  0.28163450  0.50679650  0.99618800  1
  O  O175  1  0.28163450  0.50679650  0.50381200  1
  O  O176  1  0.31472400  0.61919100  0.75000000  1
  O  O177  1  0.31559950  0.61303250  0.25000000  1
  O  O178  1  0.30811550  0.39916150  0.75000000  1
  O  O179  1  0.30812800  0.40000600  0.25000000  1
