# generated using pymatgen
data_K4TeP4(HO2)10
_symmetry_space_group_name_H-M   'P 1'
_cell_length_a   9.85003800
_cell_length_b   11.63968800
_cell_length_c   17.46807466
_cell_angle_alpha   90.00000000
_cell_angle_beta   98.95941434
_cell_angle_gamma   90.00000000
_symmetry_Int_Tables_number   1
_chemical_formula_structural   K4TeP4(HO2)10
_chemical_formula_sum   'K16 Te4 P16 H40 O80'
_cell_volume   1978.30306814
_cell_formula_units_Z   4
loop_
 _symmetry_equiv_pos_site_id
 _symmetry_equiv_pos_as_xyz
  1  'x, y, z'
loop_
 _atom_site_type_symbol
 _atom_site_label
 _atom_site_symmetry_multiplicity
 _atom_site_fract_x
 _atom_site_fract_y
 _atom_site_fract_z
 _atom_site_occupancy
  K  K0  1  0.50000000  0.57643900  0.25000000  1
  K  K1  1  0.50000000  0.42356100  0.75000000  1
  K  K2  1  0.66891850  0.87770450  0.56871300  1
  K  K3  1  0.33108150  0.87770450  0.93128700  1
  K  K4  1  0.33108150  0.12229550  0.43128700  1
  K  K5  1  0.66891850  0.12229550  0.06871300  1
  K  K6  1  0.50000000  0.78974500  0.75000000  1
  K  K7  1  0.50000000  0.21025500  0.25000000  1
  K  K8  1  0.00000000  0.07643900  0.25000000  1
  K  K9  1  0.00000000  0.92356100  0.75000000  1
  K  K10  1  0.16891850  0.37770450  0.56871300  1
  K  K11  1  0.83108150  0.37770450  0.93128700  1
  K  K12  1  0.83108150  0.62229550  0.43128700  1
  K  K13  1  0.16891850  0.62229550  0.06871300  1
  K  K14  1  0.00000000  0.28974500  0.75000000  1
  K  K15  1  0.00000000  0.71025500  0.25000000  1
  Te  Te16  1  0.00000000  0.00000000  0.00000000  1
  Te  Te17  1  0.00000000  0.00000000  0.50000000  1
  Te  Te18  1  0.50000000  0.50000000  0.00000000  1
  Te  Te19  1  0.50000000  0.50000000  0.50000000  1
  P  P20  1  0.50887950  0.14363050  0.86449000  1
  P  P21  1  0.49112050  0.14363050  0.63551000  1
  P  P22  1  0.49112050  0.85636950  0.13551000  1
  P  P23  1  0.50887950  0.85636950  0.36449000  1
  P  P24  1  0.29716450  0.06311950  0.73682500  1
  P  P25  1  0.70283550  0.06311950  0.76317500  1
  P  P26  1  0.70283550  0.93688050  0.26317500  1
  P  P27  1  0.29716450  0.93688050  0.23682500  1
  P  P28  1  0.00887950  0.64363050  0.86449000  1
  P  P29  1  0.99112050  0.64363050  0.63551000  1
  P  P30  1  0.99112050  0.35636950  0.13551000  1
  P  P31  1  0.00887950  0.35636950  0.36449000  1
  P  P32  1  0.79716450  0.56311950  0.73682500  1
  P  P33  1  0.20283550  0.56311950  0.76317500  1
  P  P34  1  0.20283550  0.43688050  0.26317500  1
  P  P35  1  0.79716450  0.43688050  0.23682500  1
  H  H36  1  0.47483800  0.65969800  0.40756100  1
  H  H37  1  0.52516200  0.65969800  0.09243900  1
  H  H38  1  0.52516200  0.34030200  0.59243900  1
  H  H39  1  0.47483800  0.34030200  0.90756100  1
  H  H40  1  0.14357600  0.11513000  0.59890900  1
  H  H41  1  0.85642400  0.11513000  0.90109100  1
  H  H42  1  0.85642400  0.88487000  0.40109100  1
  H  H43  1  0.14357600  0.88487000  0.09890900  1
  H  H44  1  0.85537650  0.12293050  0.57075900  1
  H  H45  1  0.14462350  0.12293050  0.92924100  1
  H  H46  1  0.14462350  0.87706950  0.42924100  1
  H  H47  1  0.85537650  0.87706950  0.07075900  1
  H  H48  1  0.27476850  0.82882850  0.57508300  1
  H  H49  1  0.72523150  0.82882850  0.92491700  1
  H  H50  1  0.72523150  0.17117150  0.42491700  1
  H  H51  1  0.27476850  0.17117150  0.07508300  1
  H  H52  1  0.38612600  0.81324800  0.52326600  1
  H  H53  1  0.61387400  0.81324800  0.97673400  1
  H  H54  1  0.61387400  0.18675200  0.47673400  1
  H  H55  1  0.38612600  0.18675200  0.02326600  1
  H  H56  1  0.97483800  0.15969800  0.40756100  1
  H  H57  1  0.02516200  0.15969800  0.09243900  1
  H  H58  1  0.02516200  0.84030200  0.59243900  1
  H  H59  1  0.97483800  0.84030200  0.90756100  1
  H  H60  1  0.64357600  0.61513000  0.59890900  1
  H  H61  1  0.35642400  0.61513000  0.90109100  1
  H  H62  1  0.35642400  0.38487000  0.40109100  1
  H  H63  1  0.64357600  0.38487000  0.09890900  1
  H  H64  1  0.35537650  0.62293050  0.57075900  1
  H  H65  1  0.64462350  0.62293050  0.92924100  1
  H  H66  1  0.64462350  0.37706950  0.42924100  1
  H  H67  1  0.35537650  0.37706950  0.07075900  1
  H  H68  1  0.77476850  0.32882850  0.57508300  1
  H  H69  1  0.22523150  0.32882850  0.92491700  1
  H  H70  1  0.22523150  0.67117150  0.42491700  1
  H  H71  1  0.77476850  0.67117150  0.07508300  1
  H  H72  1  0.88612600  0.31324800  0.52326600  1
  H  H73  1  0.11387400  0.31324800  0.97673400  1
  H  H74  1  0.11387400  0.68675200  0.47673400  1
  H  H75  1  0.88612600  0.68675200  0.02326600  1
  O  O76  1  0.40334100  0.60673400  0.42486800  1
  O  O77  1  0.59665900  0.60673400  0.07513200  1
  O  O78  1  0.59665900  0.39326600  0.57513200  1
  O  O79  1  0.40334100  0.39326600  0.92486800  1
  O  O80  1  0.13004250  0.12098550  0.54064700  1
  O  O81  1  0.86995750  0.12098550  0.95935300  1
  O  O82  1  0.86995750  0.87901450  0.45935300  1
  O  O83  1  0.13004250  0.87901450  0.04064700  1
  O  O84  1  0.87568600  0.03916900  0.57433400  1
  O  O85  1  0.12431400  0.03916900  0.92566600  1
  O  O86  1  0.12431400  0.96083100  0.42566600  1
  O  O87  1  0.87568600  0.96083100  0.07433400  1
  O  O88  1  0.37682200  0.84206000  0.29575400  1
  O  O89  1  0.62317800  0.84206000  0.20424600  1
  O  O90  1  0.62317800  0.15794000  0.70424600  1
  O  O91  1  0.37682200  0.15794000  0.79575400  1
  O  O92  1  0.60041550  0.95175250  0.32790800  1
  O  O93  1  0.39958450  0.95175250  0.17209200  1
  O  O94  1  0.39958450  0.04824750  0.67209200  1
  O  O95  1  0.60041550  0.04824750  0.82790800  1
  O  O96  1  0.46615200  0.90613300  0.43583200  1
  O  O97  1  0.53384800  0.90613300  0.06416800  1
  O  O98  1  0.53384800  0.09386700  0.56416800  1
  O  O99  1  0.46615200  0.09386700  0.93583200  1
  O  O100  1  0.57869250  0.74049150  0.36939300  1
  O  O101  1  0.42130750  0.74049150  0.13060700  1
  O  O102  1  0.42130750  0.25950850  0.63060700  1
  O  O103  1  0.57869250  0.25950850  0.86939300  1
  O  O104  1  0.16582500  0.11894800  0.69909200  1
  O  O105  1  0.83417500  0.11894800  0.80090800  1
  O  O106  1  0.83417500  0.88105200  0.30090800  1
  O  O107  1  0.16582500  0.88105200  0.19909200  1
  O  O108  1  0.70732600  0.94850400  0.72480600  1
  O  O109  1  0.29267400  0.94850400  0.77519400  1
  O  O110  1  0.29267400  0.05149600  0.27519400  1
  O  O111  1  0.70732600  0.05149600  0.22480600  1
  O  O112  1  0.36029850  0.78499250  0.57199700  1
  O  O113  1  0.63970150  0.78499250  0.92800300  1
  O  O114  1  0.63970150  0.21500750  0.42800300  1
  O  O115  1  0.36029850  0.21500750  0.07199700  1
  O  O116  1  0.90334100  0.10673400  0.42486800  1
  O  O117  1  0.09665900  0.10673400  0.07513200  1
  O  O118  1  0.09665900  0.89326600  0.57513200  1
  O  O119  1  0.90334100  0.89326600  0.92486800  1
  O  O120  1  0.63004250  0.62098550  0.54064700  1
  O  O121  1  0.36995750  0.62098550  0.95935300  1
  O  O122  1  0.36995750  0.37901450  0.45935300  1
  O  O123  1  0.63004250  0.37901450  0.04064700  1
  O  O124  1  0.37568600  0.53916900  0.57433400  1
  O  O125  1  0.62431400  0.53916900  0.92566600  1
  O  O126  1  0.62431400  0.46083100  0.42566600  1
  O  O127  1  0.37568600  0.46083100  0.07433400  1
  O  O128  1  0.87682200  0.34206000  0.29575400  1
  O  O129  1  0.12317800  0.34206000  0.20424600  1
  O  O130  1  0.12317800  0.65794000  0.70424600  1
  O  O131  1  0.87682200  0.65794000  0.79575400  1
  O  O132  1  0.10041550  0.45175250  0.32790800  1
  O  O133  1  0.89958450  0.45175250  0.17209200  1
  O  O134  1  0.89958450  0.54824750  0.67209200  1
  O  O135  1  0.10041550  0.54824750  0.82790800  1
  O  O136  1  0.96615200  0.40613300  0.43583200  1
  O  O137  1  0.03384800  0.40613300  0.06416800  1
  O  O138  1  0.03384800  0.59386700  0.56416800  1
  O  O139  1  0.96615200  0.59386700  0.93583200  1
  O  O140  1  0.07869250  0.24049150  0.36939300  1
  O  O141  1  0.92130750  0.24049150  0.13060700  1
  O  O142  1  0.92130750  0.75950850  0.63060700  1
  O  O143  1  0.07869250  0.75950850  0.86939300  1
  O  O144  1  0.66582500  0.61894800  0.69909200  1
  O  O145  1  0.33417500  0.61894800  0.80090800  1
  O  O146  1  0.33417500  0.38105200  0.30090800  1
  O  O147  1  0.66582500  0.38105200  0.19909200  1
  O  O148  1  0.20732600  0.44850400  0.72480600  1
  O  O149  1  0.79267400  0.44850400  0.77519400  1
  O  O150  1  0.79267400  0.55149600  0.27519400  1
  O  O151  1  0.20732600  0.55149600  0.22480600  1
  O  O152  1  0.86029850  0.28499250  0.57199700  1
  O  O153  1  0.13970150  0.28499250  0.92800300  1
  O  O154  1  0.13970150  0.71500750  0.42800300  1
  O  O155  1  0.86029850  0.71500750  0.07199700  1
