# generated using pymatgen
data_KTcO4
_symmetry_space_group_name_H-M   'P 1'
_cell_length_a   5.78901200
_cell_length_b   5.78901200
_cell_length_c   13.09675600
_cell_angle_alpha   90.00000000
_cell_angle_beta   90.00000000
_cell_angle_gamma   90.00000000
_symmetry_Int_Tables_number   1
_chemical_formula_structural   KTcO4
_chemical_formula_sum   'K4 Tc4 O16'
_cell_volume   438.90713009
_cell_formula_units_Z   4
loop_
 _symmetry_equiv_pos_site_id
 _symmetry_equiv_pos_as_xyz
  1  'x, y, z'
loop_
 _atom_site_type_symbol
 _atom_site_label
 _atom_site_symmetry_multiplicity
 _atom_site_fract_x
 _atom_site_fract_y
 _atom_site_fract_z
 _atom_site_occupancy
  K  K0  1  0.50000000  0.50000000  0.00000000  1
  K  K1  1  0.50000000  0.00000000  0.25000000  1
  K  K2  1  0.00000000  0.00000000  0.50000000  1
  K  K3  1  0.00000000  0.50000000  0.75000000  1
  Tc  Tc4  1  0.00000000  0.00000000  0.00000000  1
  Tc  Tc5  1  0.00000000  0.50000000  0.25000000  1
  Tc  Tc6  1  0.50000000  0.50000000  0.50000000  1
  Tc  Tc7  1  0.50000000  0.00000000  0.75000000  1
  O  O8  1  0.61212250  0.27922050  0.42422150  1
  O  O9  1  0.22077950  0.61212250  0.17422150  1
  O  O10  1  0.77922050  0.38787750  0.17422150  1
  O  O11  1  0.38787750  0.72077950  0.42422150  1
  O  O12  1  0.11212250  0.27922050  0.32577850  1
  O  O13  1  0.22077950  0.11212250  0.07577850  1
  O  O14  1  0.77922050  0.88787750  0.07577850  1
  O  O15  1  0.88787750  0.72077950  0.32577850  1
  O  O16  1  0.11212250  0.77922050  0.92422150  1
  O  O17  1  0.72077950  0.11212250  0.67422150  1
  O  O18  1  0.27922050  0.88787750  0.67422150  1
  O  O19  1  0.88787750  0.22077950  0.92422150  1
  O  O20  1  0.61212250  0.77922050  0.82577850  1
  O  O21  1  0.72077950  0.61212250  0.57577850  1
  O  O22  1  0.27922050  0.38787750  0.57577850  1
  O  O23  1  0.38787750  0.22077950  0.82577850  1
