# generated using pymatgen
data_Li2NbFe3O8
_symmetry_space_group_name_H-M   'P 1'
_cell_length_a   6.03475363
_cell_length_b   6.03475363
_cell_length_c   15.05779436
_cell_angle_alpha   90.00000000
_cell_angle_beta   90.00000000
_cell_angle_gamma   120.00000000
_symmetry_Int_Tables_number   1
_chemical_formula_structural   Li2NbFe3O8
_chemical_formula_sum   'Li6 Nb3 Fe9 O24'
_cell_volume   474.90974674
_cell_formula_units_Z   3
loop_
 _symmetry_equiv_pos_site_id
 _symmetry_equiv_pos_as_xyz
  1  'x, y, z'
loop_
 _atom_site_type_symbol
 _atom_site_label
 _atom_site_symmetry_multiplicity
 _atom_site_fract_x
 _atom_site_fract_y
 _atom_site_fract_z
 _atom_site_occupancy
  Li  Li0  1  0.66666667  0.33333333  0.46338933  1
  Li  Li1  1  0.33333333  0.66666667  0.53661067  1
  Li  Li2  1  0.33333333  0.66666667  0.79672267  1
  Li  Li3  1  0.00000000  0.00000000  0.86994400  1
  Li  Li4  1  0.00000000  0.00000000  0.13005600  1
  Li  Li5  1  0.66666667  0.33333333  0.20327733  1
  Nb  Nb6  1  0.00000000  0.00000000  0.50000000  1
  Nb  Nb7  1  0.66666667  0.33333333  0.83333333  1
  Nb  Nb8  1  0.33333333  0.66666667  0.16666667  1
  Fe  Fe9  1  0.83333333  0.16666667  0.66666667  1
  Fe  Fe10  1  0.16666667  0.33333333  0.33333333  1
  Fe  Fe11  1  0.66666667  0.83333333  0.33333333  1
  Fe  Fe12  1  0.50000000  0.50000000  0.00000000  1
  Fe  Fe13  1  0.83333333  0.66666667  0.66666667  1
  Fe  Fe14  1  0.33333333  0.16666667  0.66666667  1
  Fe  Fe15  1  0.16666667  0.83333333  0.33333333  1
  Fe  Fe16  1  0.50000000  0.00000000  0.00000000  1
  Fe  Fe17  1  0.00000000  0.50000000  0.00000000  1
  O  O18  1  0.66666667  0.33333333  0.60048967  1
  O  O19  1  0.33333333  0.66666667  0.39951033  1
  O  O20  1  0.30246900  0.15123450  0.41572800  1
  O  O21  1  0.84876550  0.69753100  0.41572800  1
  O  O22  1  0.84876550  0.15123450  0.41572800  1
  O  O23  1  0.15123450  0.84876550  0.58427200  1
  O  O24  1  0.15123450  0.30246900  0.58427200  1
  O  O25  1  0.69753100  0.84876550  0.58427200  1
  O  O26  1  0.33333333  0.66666667  0.93382300  1
  O  O27  1  0.00000000  0.00000000  0.73284367  1
  O  O28  1  0.96913567  0.48456783  0.74906133  1
  O  O29  1  0.51543217  0.03086433  0.74906133  1
  O  O30  1  0.51543217  0.48456783  0.74906133  1
  O  O31  1  0.81790117  0.18209883  0.91760533  1
  O  O32  1  0.81790117  0.63580233  0.91760533  1
  O  O33  1  0.36419767  0.18209883  0.91760533  1
  O  O34  1  0.00000000  0.00000000  0.26715633  1
  O  O35  1  0.66666667  0.33333333  0.06617700  1
  O  O36  1  0.63580233  0.81790117  0.08239467  1
  O  O37  1  0.18209883  0.36419767  0.08239467  1
  O  O38  1  0.18209883  0.81790117  0.08239467  1
  O  O39  1  0.48456783  0.51543217  0.25093867  1
  O  O40  1  0.48456783  0.96913567  0.25093867  1
  O  O41  1  0.03086433  0.51543217  0.25093867  1
