# generated using pymatgen
data_Al2ZnTe4
_symmetry_space_group_name_H-M   'P 1'
_cell_length_a   6.09191800
_cell_length_b   6.09191800
_cell_length_c   11.97653600
_cell_angle_alpha   90.00000000
_cell_angle_beta   90.00000000
_cell_angle_gamma   90.00000000
_symmetry_Int_Tables_number   1
_chemical_formula_structural   Al2ZnTe4
_chemical_formula_sum   'Al4 Zn2 Te8'
_cell_volume   444.46679561
_cell_formula_units_Z   2
loop_
 _symmetry_equiv_pos_site_id
 _symmetry_equiv_pos_as_xyz
  1  'x, y, z'
loop_
 _atom_site_type_symbol
 _atom_site_label
 _atom_site_symmetry_multiplicity
 _atom_site_fract_x
 _atom_site_fract_y
 _atom_site_fract_z
 _atom_site_occupancy
  Al  Al0  1  0.50000000  0.00000000  0.25000000  1
  Al  Al1  1  0.50000000  0.50000000  0.00000000  1
  Al  Al2  1  0.00000000  0.50000000  0.75000000  1
  Al  Al3  1  0.00000000  0.00000000  0.50000000  1
  Zn  Zn4  1  0.00000000  0.00000000  0.00000000  1
  Zn  Zn5  1  0.50000000  0.50000000  0.50000000  1
  Te  Te6  1  0.75964750  0.26486450  0.13283550  1
  Te  Te7  1  0.76486450  0.74035250  0.36716450  1
  Te  Te8  1  0.23513550  0.25964750  0.36716450  1
  Te  Te9  1  0.24035250  0.73513550  0.13283550  1
  Te  Te10  1  0.25964750  0.76486450  0.63283550  1
  Te  Te11  1  0.26486450  0.24035250  0.86716450  1
  Te  Te12  1  0.73513550  0.75964750  0.86716450  1
  Te  Te13  1  0.74035250  0.23513550  0.63283550  1
