# generated using pymatgen
data_LiLa4MnO8
_symmetry_space_group_name_H-M   'P 1'
_cell_length_a   5.42139830
_cell_length_b   5.42139830
_cell_length_c   25.81481300
_cell_angle_alpha   90.00000000
_cell_angle_beta   90.00000000
_cell_angle_gamma   90.00000000
_symmetry_Int_Tables_number   1
_chemical_formula_structural   LiLa4MnO8
_chemical_formula_sum   'Li4 La16 Mn4 O32'
_cell_volume   758.73761271
_cell_formula_units_Z   4
loop_
 _symmetry_equiv_pos_site_id
 _symmetry_equiv_pos_as_xyz
  1  'x, y, z'
loop_
 _atom_site_type_symbol
 _atom_site_label
 _atom_site_symmetry_multiplicity
 _atom_site_fract_x
 _atom_site_fract_y
 _atom_site_fract_z
 _atom_site_occupancy
  Li  Li0  1  0.00000000  0.00000000  0.50000000  1
  Li  Li1  1  0.00000000  0.50000000  0.75000000  1
  Li  Li2  1  0.50000000  0.50000000  0.00000000  1
  Li  Li3  1  0.50000000  0.00000000  0.25000000  1
  La  La4  1  0.00000000  0.00000000  0.68037125  1
  La  La5  1  0.00000000  0.00000000  0.31962875  1
  La  La6  1  0.50000000  0.00000000  0.43037125  1
  La  La7  1  0.00000000  0.50000000  0.56962875  1
  La  La8  1  0.50000000  0.00000000  0.56820975  1
  La  La9  1  0.00000000  0.50000000  0.43179025  1
  La  La10  1  0.50000000  0.50000000  0.31820975  1
  La  La11  1  0.50000000  0.50000000  0.68179025  1
  La  La12  1  0.50000000  0.50000000  0.18037125  1
  La  La13  1  0.50000000  0.50000000  0.81962875  1
  La  La14  1  0.00000000  0.50000000  0.93037125  1
  La  La15  1  0.50000000  0.00000000  0.06962875  1
  La  La16  1  0.00000000  0.50000000  0.06820975  1
  La  La17  1  0.50000000  0.00000000  0.93179025  1
  La  La18  1  0.00000000  0.00000000  0.81820975  1
  La  La19  1  0.00000000  0.00000000  0.18179025  1
  Mn  Mn20  1  0.50000000  0.00000000  0.75000000  1
  Mn  Mn21  1  0.50000000  0.50000000  0.50000000  1
  Mn  Mn22  1  0.00000000  0.50000000  0.25000000  1
  Mn  Mn23  1  0.00000000  0.00000000  0.00000000  1
  O  O24  1  0.00000000  0.00000000  0.59098750  1
  O  O25  1  0.00000000  0.00000000  0.40901250  1
  O  O26  1  0.00000000  0.50000000  0.65901250  1
  O  O27  1  0.50000000  0.00000000  0.34098750  1
  O  O28  1  0.00000000  0.50000000  0.34042650  1
  O  O29  1  0.50000000  0.00000000  0.65957350  1
  O  O30  1  0.50000000  0.50000000  0.40957350  1
  O  O31  1  0.50000000  0.50000000  0.59042650  1
  O  O32  1  0.74693925  0.74693925  0.50000000  1
  O  O33  1  0.24693925  0.74693925  0.25000000  1
  O  O34  1  0.25306075  0.74693925  0.50000000  1
  O  O35  1  0.74693925  0.25306075  0.50000000  1
  O  O36  1  0.24693925  0.25306075  0.25000000  1
  O  O37  1  0.25306075  0.25306075  0.50000000  1
  O  O38  1  0.75306075  0.74693925  0.25000000  1
  O  O39  1  0.25306075  0.75306075  0.75000000  1
  O  O40  1  0.50000000  0.50000000  0.09098750  1
  O  O41  1  0.50000000  0.50000000  0.90901250  1
  O  O42  1  0.50000000  0.00000000  0.15901250  1
  O  O43  1  0.00000000  0.50000000  0.84098750  1
  O  O44  1  0.50000000  0.00000000  0.84042650  1
  O  O45  1  0.00000000  0.50000000  0.15957350  1
  O  O46  1  0.00000000  0.00000000  0.90957350  1
  O  O47  1  0.00000000  0.00000000  0.09042650  1
  O  O48  1  0.24693925  0.24693925  0.00000000  1
  O  O49  1  0.74693925  0.24693925  0.75000000  1
  O  O50  1  0.75306075  0.24693925  0.00000000  1
  O  O51  1  0.24693925  0.75306075  0.00000000  1
  O  O52  1  0.74693925  0.75306075  0.75000000  1
  O  O53  1  0.75306075  0.75306075  0.00000000  1
  O  O54  1  0.25306075  0.24693925  0.75000000  1
  O  O55  1  0.75306075  0.25306075  0.25000000  1
