# generated using pymatgen
data_CrO3
_symmetry_space_group_name_H-M   'P 1'
_cell_length_a   10.17921400
_cell_length_b   9.22880600
_cell_length_c   5.85759582
_cell_angle_alpha   90.00000000
_cell_angle_beta   110.81814400
_cell_angle_gamma   90.00000000
_symmetry_Int_Tables_number   1
_chemical_formula_structural   CrO3
_chemical_formula_sum   'Cr8 O24'
_cell_volume   514.34856005
_cell_formula_units_Z   8
loop_
 _symmetry_equiv_pos_site_id
 _symmetry_equiv_pos_as_xyz
  1  'x, y, z'
loop_
 _atom_site_type_symbol
 _atom_site_label
 _atom_site_symmetry_multiplicity
 _atom_site_fract_x
 _atom_site_fract_y
 _atom_site_fract_z
 _atom_site_occupancy
  Cr  Cr0  1  0.20687750  0.41052650  0.22990500  1
  Cr  Cr1  1  0.20687750  0.58947350  0.72990500  1
  Cr  Cr2  1  0.79312250  0.41052650  0.27009500  1
  Cr  Cr3  1  0.79312250  0.58947350  0.77009500  1
  Cr  Cr4  1  0.70687750  0.91052650  0.22990500  1
  Cr  Cr5  1  0.70687750  0.08947350  0.72990500  1
  Cr  Cr6  1  0.29312250  0.91052650  0.27009500  1
  Cr  Cr7  1  0.29312250  0.08947350  0.77009500  1
  O  O8  1  0.37306350  0.40331850  0.33281000  1
  O  O9  1  0.14643900  0.24937000  0.18704700  1
  O  O10  1  0.37306350  0.59668150  0.83281000  1
  O  O11  1  0.14616100  0.49681500  0.44521300  1
  O  O12  1  0.85356100  0.24937000  0.31295300  1
  O  O13  1  0.14616100  0.50318500  0.94521300  1
  O  O14  1  0.85383900  0.49681500  0.05478700  1
  O  O15  1  0.14643900  0.75063000  0.68704700  1
  O  O16  1  0.85383900  0.50318500  0.55478700  1
  O  O17  1  0.62693650  0.40331850  0.16719000  1
  O  O18  1  0.85356100  0.75063000  0.81295300  1
  O  O19  1  0.62693650  0.59668150  0.66719000  1
  O  O20  1  0.87306350  0.90331850  0.33281000  1
  O  O21  1  0.64643900  0.74937000  0.18704700  1
  O  O22  1  0.87306350  0.09668150  0.83281000  1
  O  O23  1  0.64616100  0.99681500  0.44521300  1
  O  O24  1  0.35356100  0.74937000  0.31295300  1
  O  O25  1  0.64616100  0.00318500  0.94521300  1
  O  O26  1  0.35383900  0.99681500  0.05478700  1
  O  O27  1  0.64643900  0.25063000  0.68704700  1
  O  O28  1  0.35383900  0.00318500  0.55478700  1
  O  O29  1  0.12693650  0.90331850  0.16719000  1
  O  O30  1  0.35356100  0.25063000  0.81295300  1
  O  O31  1  0.12693650  0.09668150  0.66719000  1
