# generated using pymatgen
data_LiVOF3
_symmetry_space_group_name_H-M   'P 1'
_cell_length_a   7.39946684
_cell_length_b   4.95012201
_cell_length_c   7.68096862
_cell_angle_alpha   90.00000000
_cell_angle_beta   102.78170394
_cell_angle_gamma   90.00000000
_symmetry_Int_Tables_number   1
_chemical_formula_structural   LiVOF3
_chemical_formula_sum   'Li4 V4 O4 F12'
_cell_volume   274.36893952
_cell_formula_units_Z   4
loop_
 _symmetry_equiv_pos_site_id
 _symmetry_equiv_pos_as_xyz
  1  'x, y, z'
loop_
 _atom_site_type_symbol
 _atom_site_label
 _atom_site_symmetry_multiplicity
 _atom_site_fract_x
 _atom_site_fract_y
 _atom_site_fract_z
 _atom_site_occupancy
  Li  Li0  1  0.64607350  0.24741600  0.86673600  1
  Li  Li1  1  0.14607350  0.25258400  0.86673600  1
  Li  Li2  1  0.85392650  0.74741600  0.13326400  1
  Li  Li3  1  0.35392650  0.75258400  0.13326400  1
  V  V4  1  0.29832650  0.76382500  0.67081700  1
  V  V5  1  0.20167350  0.26382500  0.32918300  1
  V  V6  1  0.79832650  0.73617500  0.67081700  1
  V  V7  1  0.70167350  0.23617500  0.32918300  1
  O  O8  1  0.70635250  0.46629300  0.54333000  1
  O  O9  1  0.20635250  0.03370700  0.54333000  1
  O  O10  1  0.79364750  0.96629300  0.45667000  1
  O  O11  1  0.29364750  0.53370700  0.45667000  1
  F  F12  1  0.80324850  0.57228900  0.90214500  1
  F  F13  1  0.30324850  0.92771100  0.90214500  1
  F  F14  1  0.69675150  0.07228900  0.09785500  1
  F  F15  1  0.19675150  0.42771100  0.09785500  1
  F  F16  1  0.90747050  0.05021500  0.80276500  1
  F  F17  1  0.40747050  0.44978500  0.80276500  1
  F  F18  1  0.59252950  0.55021500  0.19723500  1
  F  F19  1  0.09252950  0.94978500  0.19723500  1
  F  F20  1  0.55910650  0.90572500  0.69473200  1
  F  F21  1  0.05910650  0.59427500  0.69473200  1
  F  F22  1  0.94089350  0.40572500  0.30526800  1
  F  F23  1  0.44089350  0.09427500  0.30526800  1
