# generated using pymatgen
data_Y2Zr2O7
_symmetry_space_group_name_H-M   'P 1'
_cell_length_a   7.89282600
_cell_length_b   5.54618900
_cell_length_c   13.86062718
_cell_angle_alpha   90.00000000
_cell_angle_beta   98.44324022
_cell_angle_gamma   90.00000000
_symmetry_Int_Tables_number   1
_chemical_formula_structural   Y2Zr2O7
_chemical_formula_sum   'Y8 Zr8 O28'
_cell_volume   600.17432735
_cell_formula_units_Z   4
loop_
 _symmetry_equiv_pos_site_id
 _symmetry_equiv_pos_as_xyz
  1  'x, y, z'
loop_
 _atom_site_type_symbol
 _atom_site_label
 _atom_site_symmetry_multiplicity
 _atom_site_fract_x
 _atom_site_fract_y
 _atom_site_fract_z
 _atom_site_occupancy
  Y  Y0  1  0.86245400  0.17307700  0.44078900  1
  Y  Y1  1  0.76274900  0.72073300  0.07234100  1
  Y  Y2  1  0.71329600  0.25656700  0.86604700  1
  Y  Y3  1  0.63819800  0.74082000  0.60128900  1
  Y  Y4  1  0.36180200  0.24082000  0.39871100  1
  Y  Y5  1  0.28670400  0.75656700  0.13395300  1
  Y  Y6  1  0.23725100  0.22073300  0.92765900  1
  Y  Y7  1  0.13754600  0.67307700  0.55921100  1
  Zr  Zr8  1  0.92576400  0.23503600  0.68029700  1
  Zr  Zr9  1  0.97318500  0.73676900  0.88142200  1
  Zr  Zr10  1  0.58934200  0.72333200  0.32691600  1
  Zr  Zr11  1  0.53227800  0.23495000  0.12507700  1
  Zr  Zr12  1  0.46772200  0.73495000  0.87492300  1
  Zr  Zr13  1  0.41065800  0.22333200  0.67308400  1
  Zr  Zr14  1  0.02681500  0.23676900  0.11857800  1
  Zr  Zr15  1  0.07423600  0.73503600  0.31970300  1
  O  O16  1  0.92251800  0.94874500  0.58306700  1
  O  O17  1  0.00400100  0.07948300  0.82549900  1
  O  O18  1  0.83032700  0.86566900  0.32591300  1
  O  O19  1  0.77804100  0.11492500  0.11669100  1
  O  O20  1  0.84602300  0.45630300  0.56571400  1
  O  O21  1  0.92552800  0.44922900  0.97844100  1
  O  O22  1  0.86173100  0.53340800  0.77049200  1
  O  O23  1  0.63433900  0.38920500  0.37751900  1
  O  O24  1  0.58466600  0.58457400  0.17316200  1
  O  O25  1  0.72850900  0.86451200  0.91529100  1
  O  O26  1  0.67650800  0.09756600  0.70146400  1
  O  O27  1  0.57776100  0.92377500  0.45245200  1
  O  O28  1  0.43957600  0.95343200  0.02319400  1
  O  O29  1  0.47449100  0.02540300  0.23345700  1
  O  O30  1  0.52550900  0.52540300  0.76654300  1
  O  O31  1  0.56042400  0.45343200  0.97680600  1
  O  O32  1  0.42223900  0.42377500  0.54754800  1
  O  O33  1  0.32349200  0.59756600  0.29853600  1
  O  O34  1  0.27149100  0.36451200  0.08470900  1
  O  O35  1  0.41533400  0.08457400  0.82683800  1
  O  O36  1  0.36566100  0.88920500  0.62248100  1
  O  O37  1  0.13826900  0.03340800  0.22950800  1
  O  O38  1  0.07447200  0.94922900  0.02155900  1
  O  O39  1  0.15397700  0.95630300  0.43428600  1
  O  O40  1  0.22195900  0.61492500  0.88330900  1
  O  O41  1  0.16967300  0.36566900  0.67408700  1
  O  O42  1  0.99599900  0.57948300  0.17450100  1
  O  O43  1  0.07748200  0.44874500  0.41693300  1
