# generated using pymatgen
data_NaSbO3
_symmetry_space_group_name_H-M   'P 1'
_cell_length_a   8.10530600
_cell_length_b   8.16446304
_cell_length_c   8.24757755
_cell_angle_alpha   109.39925254
_cell_angle_beta   109.31935902
_cell_angle_gamma   108.45155726
_symmetry_Int_Tables_number   1
_chemical_formula_structural   NaSbO3
_chemical_formula_sum   'Na6 Sb6 O18'
_cell_volume   426.44615617
_cell_formula_units_Z   6
loop_
 _symmetry_equiv_pos_site_id
 _symmetry_equiv_pos_as_xyz
  1  'x, y, z'
loop_
 _atom_site_type_symbol
 _atom_site_label
 _atom_site_symmetry_multiplicity
 _atom_site_fract_x
 _atom_site_fract_y
 _atom_site_fract_z
 _atom_site_occupancy
  Na  Na0  1  0.01408700  0.98251700  0.32208200  1
  Na  Na1  1  0.50000000  0.00000000  0.00000000  1
  Na  Na2  1  0.67064000  0.65195100  0.70179900  1
  Na  Na3  1  0.32936000  0.34804900  0.29820100  1
  Na  Na4  1  0.00000000  0.50000000  0.00000000  1
  Na  Na5  1  0.98591300  0.01748300  0.67791800  1
  Sb  Sb6  1  0.49869900  0.84021600  0.33716800  1
  Sb  Sb7  1  0.15928800  0.66328900  0.50113100  1
  Sb  Sb8  1  0.65980700  0.49671600  0.15952400  1
  Sb  Sb9  1  0.34019300  0.50328400  0.84047600  1
  Sb  Sb10  1  0.84071200  0.33671100  0.49886900  1
  Sb  Sb11  1  0.50130100  0.15978400  0.66283200  1
  O  O12  1  0.27439500  0.95637400  0.66091600  1
  O  O13  1  0.33546500  0.71976800  0.04612800  1
  O  O14  1  0.63819000  0.99141200  0.63548700  1
  O  O15  1  0.28261300  0.62203500  0.32840600  1
  O  O16  1  0.66316600  0.70516500  0.38125600  1
  O  O17  1  0.38381400  0.67279200  0.71408300  1
  O  O18  1  0.95211700  0.66530800  0.28215100  1
  O  O19  1  0.01014800  0.36296700  0.36644700  1
  O  O20  1  0.35871500  0.36311200  0.00344500  1
  O  O21  1  0.64128500  0.63688800  0.99655500  1
  O  O22  1  0.98985200  0.63703300  0.63355300  1
  O  O23  1  0.04788300  0.33469200  0.71784900  1
  O  O24  1  0.61618600  0.32720800  0.28591700  1
  O  O25  1  0.33683400  0.29483500  0.61874400  1
  O  O26  1  0.71738700  0.37796500  0.67159400  1
  O  O27  1  0.36181000  0.00858800  0.36451300  1
  O  O28  1  0.66453500  0.28023200  0.95387200  1
  O  O29  1  0.72560500  0.04362600  0.33908400  1
