# generated using pymatgen
data_LiCo2OF3
_symmetry_space_group_name_H-M   'P 1'
_cell_length_a   6.02703455
_cell_length_b   6.02703455
_cell_length_c   15.16735242
_cell_angle_alpha   90.00000000
_cell_angle_beta   90.00000000
_cell_angle_gamma   120.00000000
_symmetry_Int_Tables_number   1
_chemical_formula_structural   LiCo2OF3
_chemical_formula_sum   'Li6 Co12 O6 F18'
_cell_volume   477.14213715
_cell_formula_units_Z   6
loop_
 _symmetry_equiv_pos_site_id
 _symmetry_equiv_pos_as_xyz
  1  'x, y, z'
loop_
 _atom_site_type_symbol
 _atom_site_label
 _atom_site_symmetry_multiplicity
 _atom_site_fract_x
 _atom_site_fract_y
 _atom_site_fract_z
 _atom_site_occupancy
  Li  Li0  1  0.33333333  0.66666667  0.16761167  1
  Li  Li1  1  0.66666667  0.33333333  0.19387800  1
  Li  Li2  1  0.00000000  0.00000000  0.50094500  1
  Li  Li3  1  0.33333333  0.66666667  0.52721133  1
  Li  Li4  1  0.66666667  0.33333333  0.83427833  1
  Li  Li5  1  0.00000000  0.00000000  0.86054467  1
  Co  Co6  1  0.17126400  0.82873600  0.33227800  1
  Co  Co7  1  0.65747200  0.82873600  0.33227800  1
  Co  Co8  1  0.66666667  0.33333333  0.47974467  1
  Co  Co9  1  0.17126400  0.34252800  0.33227800  1
  Co  Co10  1  0.83793067  0.16206933  0.66561133  1
  Co  Co11  1  0.32413867  0.16206933  0.66561133  1
  Co  Co12  1  0.33333333  0.66666667  0.81307800  1
  Co  Co13  1  0.83793067  0.67586133  0.66561133  1
  Co  Co14  1  0.50459733  0.49540267  0.99894467  1
  Co  Co15  1  0.99080533  0.49540267  0.99894467  1
  Co  Co16  1  0.00000000  0.00000000  0.14641133  1
  Co  Co17  1  0.50459733  0.00919467  0.99894467  1
  O  O18  1  0.00000000  0.00000000  0.27144233  1
  O  O19  1  0.33333333  0.66666667  0.39808700  1
  O  O20  1  0.66666667  0.33333333  0.60477567  1
  O  O21  1  0.00000000  0.00000000  0.73142033  1
  O  O22  1  0.33333333  0.66666667  0.93810900  1
  O  O23  1  0.66666667  0.33333333  0.06475367  1
  F  F24  1  0.32282400  0.16141200  0.42011300  1
  F  F25  1  0.83858800  0.16141200  0.42011300  1
  F  F26  1  0.83858800  0.67717600  0.42011300  1
  F  F27  1  0.49240167  0.50759833  0.24402133  1
  F  F28  1  0.49240167  0.98480333  0.24402133  1
  F  F29  1  0.01519667  0.50759833  0.24402133  1
  F  F30  1  0.98949067  0.49474533  0.75344633  1
  F  F31  1  0.50525467  0.49474533  0.75344633  1
  F  F32  1  0.50525467  0.01050933  0.75344633  1
  F  F33  1  0.15906833  0.84093167  0.57735467  1
  F  F34  1  0.15906833  0.31813667  0.57735467  1
  F  F35  1  0.68186333  0.84093167  0.57735467  1
  F  F36  1  0.65615733  0.82807867  0.08677967  1
  F  F37  1  0.17192133  0.82807867  0.08677967  1
  F  F38  1  0.17192133  0.34384267  0.08677967  1
  F  F39  1  0.82573500  0.17426500  0.91068800  1
  F  F40  1  0.82573500  0.65147000  0.91068800  1
  F  F41  1  0.34853000  0.17426500  0.91068800  1
