# generated using pymatgen
data_La20S29O
_symmetry_space_group_name_H-M   'P 1'
_cell_length_a   15.54730400
_cell_length_b   15.54730400
_cell_length_c   20.58089400
_cell_angle_alpha   90.00000000
_cell_angle_beta   90.00000000
_cell_angle_gamma   90.00000000
_symmetry_Int_Tables_number   1
_chemical_formula_structural   La20S29O
_chemical_formula_sum   'La80 S116 O4'
_cell_volume   4974.78615362
_cell_formula_units_Z   4
loop_
 _symmetry_equiv_pos_site_id
 _symmetry_equiv_pos_as_xyz
  1  'x, y, z'
loop_
 _atom_site_type_symbol
 _atom_site_label
 _atom_site_symmetry_multiplicity
 _atom_site_fract_x
 _atom_site_fract_y
 _atom_site_fract_z
 _atom_site_occupancy
  La  La0  1  0.13598200  0.14004600  0.74830100  1
  La  La1  1  0.77900550  0.87490050  0.17110650  1
  La  La2  1  0.85464800  0.51216900  0.32298800  1
  La  La3  1  0.37461550  0.27979950  0.82914750  1
  La  La4  1  0.98783100  0.35464800  0.17701200  1
  La  La5  1  0.50905100  0.86742700  0.18329500  1
  La  La6  1  0.01216900  0.85464800  0.07298800  1
  La  La7  1  0.01216900  0.64535200  0.17701200  1
  La  La8  1  0.62509950  0.27900550  0.32889350  1
  La  La9  1  0.12538450  0.22020050  0.32914750  1
  La  La10  1  0.12538450  0.27979950  0.92085250  1
  La  La11  1  0.14004600  0.86401800  0.25169900  1
  La  La12  1  0.14004600  0.63598200  0.99830100  1
  La  La13  1  0.13598200  0.35995400  0.50169900  1
  La  La14  1  0.63257300  0.00905100  0.31670500  1
  La  La15  1  0.14535200  0.48783100  0.32298800  1
  La  La16  1  0.64535200  0.51216900  0.42701200  1
  La  La17  1  0.22020050  0.87461550  0.67085250  1
  La  La18  1  0.22099450  0.37490050  0.07889350  1
  La  La19  1  0.22099450  0.12509950  0.17110650  1
  La  La20  1  0.27979950  0.62538450  0.17085250  1
  La  La21  1  0.27900550  0.12509950  0.57889350  1
  La  La22  1  0.77979950  0.37461550  0.57914750  1
  La  La23  1  0.36742700  0.99094900  0.31670500  1
  La  La24  1  0.35464800  0.48783100  0.42701200  1
  La  La25  1  0.36742700  0.50905100  0.93329500  1
  La  La26  1  0.35995400  0.63598200  0.75169900  1
  La  La27  1  0.36401800  0.35995400  0.24830100  1
  La  La28  1  0.36401800  0.14004600  0.00169900  1
  La  La29  1  0.37490050  0.72099450  0.32889350  1
  La  La30  1  0.37461550  0.22020050  0.42085250  1
  La  La31  1  0.87490050  0.27900550  0.42110650  1
  La  La32  1  0.98783100  0.14535200  0.07298800  1
  La  La33  1  0.49094900  0.13257300  0.18329500  1
  La  La34  1  0.49094900  0.36742700  0.06670500  1
  La  La35  1  0.00905100  0.13257300  0.56670500  1
  La  La36  1  0.62509950  0.22099450  0.92110650  1
  La  La37  1  0.13257300  0.99094900  0.43329500  1
  La  La38  1  0.72020050  0.12538450  0.07914750  1
  La  La39  1  0.35995400  0.86401800  0.49830100  1
  La  La40  1  0.63598200  0.64004600  0.24830100  1
  La  La41  1  0.27900550  0.37490050  0.67110650  1
  La  La42  1  0.35464800  0.01216900  0.82298800  1
  La  La43  1  0.87461550  0.77979950  0.32914750  1
  La  La44  1  0.48783100  0.85464800  0.67701200  1
  La  La45  1  0.00905100  0.36742700  0.68329500  1
  La  La46  1  0.51216900  0.35464800  0.57298800  1
  La  La47  1  0.51216900  0.14535200  0.67701200  1
  La  La48  1  0.12509950  0.77900550  0.82889350  1
  La  La49  1  0.62538450  0.72020050  0.82914750  1
  La  La50  1  0.62538450  0.77979950  0.42085250  1
  La  La51  1  0.64004600  0.36401800  0.75169900  1
  La  La52  1  0.64004600  0.13598200  0.49830100  1
  La  La53  1  0.63598200  0.85995400  0.00169900  1
  La  La54  1  0.13257300  0.50905100  0.81670500  1
  La  La55  1  0.64535200  0.98783100  0.82298800  1
  La  La56  1  0.14535200  0.01216900  0.92701200  1
  La  La57  1  0.72020050  0.37461550  0.17085250  1
  La  La58  1  0.72099450  0.87490050  0.57889350  1
  La  La59  1  0.72099450  0.62509950  0.67110650  1
  La  La60  1  0.77979950  0.12538450  0.67085250  1
  La  La61  1  0.77900550  0.62509950  0.07889350  1
  La  La62  1  0.27979950  0.87461550  0.07914750  1
  La  La63  1  0.86742700  0.49094900  0.81670500  1
  La  La64  1  0.85464800  0.98783100  0.92701200  1
  La  La65  1  0.86742700  0.00905100  0.43329500  1
  La  La66  1  0.85995400  0.13598200  0.25169900  1
  La  La67  1  0.86401800  0.85995400  0.74830100  1
  La  La68  1  0.86401800  0.64004600  0.50169900  1
  La  La69  1  0.87490050  0.22099450  0.82889350  1
  La  La70  1  0.87461550  0.72020050  0.92085250  1
  La  La71  1  0.37490050  0.77900550  0.92110650  1
  La  La72  1  0.48783100  0.64535200  0.57298800  1
  La  La73  1  0.99094900  0.63257300  0.68329500  1
  La  La74  1  0.99094900  0.86742700  0.56670500  1
  La  La75  1  0.50905100  0.63257300  0.06670500  1
  La  La76  1  0.12509950  0.72099450  0.42110650  1
  La  La77  1  0.63257300  0.49094900  0.93329500  1
  La  La78  1  0.22020050  0.62538450  0.57914750  1
  La  La79  1  0.85995400  0.36401800  0.99830100  1
  S  S80  1  0.65677450  0.82606850  0.28115150  1
  S  S81  1  0.25000000  0.15364400  0.87500000  1
  S  S82  1  0.82421750  0.46380650  0.45528650  1
  S  S83  1  0.82506750  0.65889850  0.21790050  1
  S  S84  1  0.36294450  0.97000750  0.61837650  1
  S  S85  1  0.46380650  0.32421750  0.70528650  1
  S  S86  1  0.96380650  0.67578250  0.04471350  1
  S  S87  1  0.96347700  0.32098400  0.54777200  1
  S  S88  1  0.47000750  0.13705550  0.88162350  1
  S  S89  1  0.00000000  0.50000000  0.25000000  1
  S  S90  1  0.00000000  0.00000000  0.00000000  1
  S  S91  1  0.52999250  0.63705550  0.36837650  1
  S  S92  1  0.52730650  0.13405550  0.37894950  1
  S  S93  1  0.02999250  0.36294450  0.38162350  1
  S  S94  1  0.03619350  0.32421750  0.04471350  1
  S  S95  1  0.13705550  0.97000750  0.13162350  1
  S  S96  1  0.13705550  0.52999250  0.11837650  1
  S  S97  1  0.63405550  0.97269350  0.12105050  1
  S  S98  1  0.15364400  0.75000000  0.12500000  1
  S  S99  1  0.15006500  0.25000000  0.62500000  1
  S  S100  1  0.15677450  0.17393150  0.46884850  1
  S  S101  1  0.15889850  0.82506750  0.96790050  1
  S  S102  1  0.15889850  0.67493250  0.28209950  1
  S  S103  1  0.67393150  0.15677450  0.21884850  1
  S  S104  1  0.17493250  0.15889850  0.03209950  1
  S  S105  1  0.17493250  0.34110150  0.21790050  1
  S  S106  1  0.17578250  0.53619350  0.45528650  1
  S  S107  1  0.17578250  0.96380650  0.79471350  1
  S  S108  1  0.17901600  0.46347700  0.95222800  1
  S  S109  1  0.25000000  0.65006500  0.87500000  1
  S  S110  1  0.25000000  0.34635600  0.37500000  1
  S  S111  1  0.32098400  0.46347700  0.79777200  1
  S  S112  1  0.32421750  0.53619350  0.29471350  1
  S  S113  1  0.32098400  0.03652300  0.45222800  1
  S  S114  1  0.32606850  0.65677450  0.03115150  1
  S  S115  1  0.32606850  0.84322550  0.21884850  1
  S  S116  1  0.32506750  0.34110150  0.53209950  1
  S  S117  1  0.84110150  0.32506750  0.28209950  1
  S  S118  1  0.34322550  0.17393150  0.28115150  1
  S  S119  1  0.34322550  0.32606850  0.96884850  1
  S  S120  1  0.34993500  0.25000000  0.12500000  1
  S  S121  1  0.34635600  0.75000000  0.62500000  1
  S  S122  1  0.36594450  0.47269350  0.12894950  1
  S  S123  1  0.36594450  0.02730650  0.12105050  1
  S  S124  1  0.86294450  0.02999250  0.13162350  1
  S  S125  1  0.96347700  0.17901600  0.70222800  1
  S  S126  1  0.97269350  0.13405550  0.37105050  1
  S  S127  1  0.47000750  0.36294450  0.36837650  1
  S  S128  1  0.47269350  0.86594450  0.37894950  1
  S  S129  1  0.52730650  0.36594450  0.87105050  1
  S  S130  1  0.03619350  0.17578250  0.20528650  1
  S  S131  1  0.53652300  0.17901600  0.04777200  1
  S  S132  1  0.53652300  0.32098400  0.20222800  1
  S  S133  1  0.13405550  0.02730650  0.62894950  1
  S  S134  1  0.17393150  0.84322550  0.53115150  1
  S  S135  1  0.17901600  0.03652300  0.29777200  1
  S  S136  1  0.25000000  0.84993500  0.37500000  1
  S  S137  1  0.34110150  0.67493250  0.46790050  1
  S  S138  1  0.15677450  0.32606850  0.78115150  1
  S  S139  1  0.75000000  0.65364400  0.37500000  1
  S  S140  1  0.32421750  0.96380650  0.95528650  1
  S  S141  1  0.32506750  0.15889850  0.71790050  1
  S  S142  1  0.86294450  0.47000750  0.11837650  1
  S  S143  1  0.96380650  0.82421750  0.20528650  1
  S  S144  1  0.46380650  0.17578250  0.54471350  1
  S  S145  1  0.46347700  0.82098400  0.04777200  1
  S  S146  1  0.97000750  0.63705550  0.38162350  1
  S  S147  1  0.50000000  0.00000000  0.75000000  1
  S  S148  1  0.50000000  0.50000000  0.50000000  1
  S  S149  1  0.02999250  0.13705550  0.86837650  1
  S  S150  1  0.02730650  0.63405550  0.87894950  1
  S  S151  1  0.52999250  0.86294450  0.88162350  1
  S  S152  1  0.53619350  0.82421750  0.54471350  1
  S  S153  1  0.63705550  0.47000750  0.63162350  1
  S  S154  1  0.63705550  0.02999250  0.61837650  1
  S  S155  1  0.13405550  0.47269350  0.62105050  1
  S  S156  1  0.65364400  0.25000000  0.62500000  1
  S  S157  1  0.65006500  0.75000000  0.12500000  1
  S  S158  1  0.65677450  0.67393150  0.96884850  1
  S  S159  1  0.65889850  0.32506750  0.46790050  1
  S  S160  1  0.65889850  0.17493250  0.78209950  1
  S  S161  1  0.17393150  0.65677450  0.71884850  1
  S  S162  1  0.67493250  0.65889850  0.53209950  1
  S  S163  1  0.67493250  0.84110150  0.71790050  1
  S  S164  1  0.67578250  0.03619350  0.95528650  1
  S  S165  1  0.67578250  0.46380650  0.29471350  1
  S  S166  1  0.67901600  0.96347700  0.45222800  1
  S  S167  1  0.75000000  0.15006500  0.37500000  1
  S  S168  1  0.75000000  0.84635600  0.87500000  1
  S  S169  1  0.82098400  0.96347700  0.29777200  1
  S  S170  1  0.82421750  0.03619350  0.79471350  1
  S  S171  1  0.82098400  0.53652300  0.95222800  1
  S  S172  1  0.82606850  0.15677450  0.53115150  1
  S  S173  1  0.82606850  0.34322550  0.71884850  1
  S  S174  1  0.82506750  0.84110150  0.03209950  1
  S  S175  1  0.34110150  0.82506750  0.78209950  1
  S  S176  1  0.84322550  0.67393150  0.78115150  1
  S  S177  1  0.84322550  0.82606850  0.46884850  1
  S  S178  1  0.84993500  0.75000000  0.62500000  1
  S  S179  1  0.84635600  0.25000000  0.12500000  1
  S  S180  1  0.86594450  0.97269350  0.62894950  1
  S  S181  1  0.86594450  0.52730650  0.62105050  1
  S  S182  1  0.36294450  0.52999250  0.63162350  1
  S  S183  1  0.46347700  0.67901600  0.20222800  1
  S  S184  1  0.47269350  0.63405550  0.87105050  1
  S  S185  1  0.97000750  0.86294450  0.86837650  1
  S  S186  1  0.97269350  0.36594450  0.87894950  1
  S  S187  1  0.02730650  0.86594450  0.37105050  1
  S  S188  1  0.53619350  0.67578250  0.70528650  1
  S  S189  1  0.03652300  0.67901600  0.54777200  1
  S  S190  1  0.03652300  0.82098400  0.70222800  1
  S  S191  1  0.63405550  0.52730650  0.12894950  1
  S  S192  1  0.67393150  0.34322550  0.03115150  1
  S  S193  1  0.67901600  0.53652300  0.79777200  1
  S  S194  1  0.75000000  0.34993500  0.87500000  1
  S  S195  1  0.84110150  0.17493250  0.96790050  1
  O  O196  1  0.50000000  0.00000000  0.25000000  1
  O  O197  1  0.00000000  0.00000000  0.50000000  1
  O  O198  1  0.00000000  0.50000000  0.75000000  1
  O  O199  1  0.50000000  0.50000000  0.00000000  1
