# generated using pymatgen
data_Li3NbS4
_symmetry_space_group_name_H-M   'P 1'
_cell_length_a   10.35341400
_cell_length_b   10.35341400
_cell_length_c   10.35341400
_cell_angle_alpha   90.00000000
_cell_angle_beta   90.00000000
_cell_angle_gamma   90.00000000
_symmetry_Int_Tables_number   1
_chemical_formula_structural   Li3NbS4
_chemical_formula_sum   'Li24 Nb8 S32'
_cell_volume   1109.81538558
_cell_formula_units_Z   8
loop_
 _symmetry_equiv_pos_site_id
 _symmetry_equiv_pos_as_xyz
  1  'x, y, z'
loop_
 _atom_site_type_symbol
 _atom_site_label
 _atom_site_symmetry_multiplicity
 _atom_site_fract_x
 _atom_site_fract_y
 _atom_site_fract_z
 _atom_site_occupancy
  Li  Li0  1  0.36887500  0.86977200  0.13022800  1
  Li  Li1  1  0.86977200  0.36887500  0.13022800  1
  Li  Li2  1  0.13022800  0.63112500  0.13022800  1
  Li  Li3  1  0.13112500  0.36977200  0.36977200  1
  Li  Li4  1  0.13022800  0.13022800  0.63112500  1
  Li  Li5  1  0.13022800  0.86977200  0.36887500  1
  Li  Li6  1  0.36977200  0.36977200  0.13112500  1
  Li  Li7  1  0.86977200  0.13022800  0.36887500  1
  Li  Li8  1  0.36887500  0.13022800  0.86977200  1
  Li  Li9  1  0.36977200  0.13112500  0.36977200  1
  Li  Li10  1  0.13022800  0.36887500  0.86977200  1
  Li  Li11  1  0.63112500  0.13022800  0.13022800  1
  Li  Li12  1  0.86887500  0.36977200  0.63022800  1
  Li  Li13  1  0.36977200  0.86887500  0.63022800  1
  Li  Li14  1  0.63022800  0.13112500  0.63022800  1
  Li  Li15  1  0.63112500  0.86977200  0.86977200  1
  Li  Li16  1  0.63022800  0.63022800  0.13112500  1
  Li  Li17  1  0.63022800  0.36977200  0.86887500  1
  Li  Li18  1  0.86977200  0.86977200  0.63112500  1
  Li  Li19  1  0.36977200  0.63022800  0.86887500  1
  Li  Li20  1  0.86887500  0.63022800  0.36977200  1
  Li  Li21  1  0.86977200  0.63112500  0.86977200  1
  Li  Li22  1  0.63022800  0.86887500  0.36977200  1
  Li  Li23  1  0.13112500  0.63022800  0.63022800  1
  Nb  Nb24  1  0.64117000  0.35883000  0.35883000  1
  Nb  Nb25  1  0.14117000  0.14117000  0.14117000  1
  Nb  Nb26  1  0.35883000  0.64117000  0.35883000  1
  Nb  Nb27  1  0.35883000  0.35883000  0.64117000  1
  Nb  Nb28  1  0.14117000  0.85883000  0.85883000  1
  Nb  Nb29  1  0.64117000  0.64117000  0.64117000  1
  Nb  Nb30  1  0.85883000  0.14117000  0.85883000  1
  Nb  Nb31  1  0.85883000  0.85883000  0.14117000  1
  S  S32  1  0.86506950  0.37962350  0.37962350  1
  S  S33  1  0.87962350  0.12037650  0.63493050  1
  S  S34  1  0.88601050  0.11398950  0.11398950  1
  S  S35  1  0.11398950  0.88601050  0.11398950  1
  S  S36  1  0.11398950  0.11398950  0.88601050  1
  S  S37  1  0.12037650  0.12037650  0.36506950  1
  S  S38  1  0.12037650  0.36506950  0.12037650  1
  S  S39  1  0.12037650  0.63493050  0.87962350  1
  S  S40  1  0.63493050  0.12037650  0.87962350  1
  S  S41  1  0.36506950  0.12037650  0.12037650  1
  S  S42  1  0.37962350  0.86506950  0.37962350  1
  S  S43  1  0.87962350  0.63493050  0.12037650  1
  S  S44  1  0.37962350  0.37962350  0.86506950  1
  S  S45  1  0.38601050  0.38601050  0.38601050  1
  S  S46  1  0.12037650  0.87962350  0.63493050  1
  S  S47  1  0.63493050  0.87962350  0.12037650  1
  S  S48  1  0.36506950  0.87962350  0.87962350  1
  S  S49  1  0.37962350  0.62037650  0.13493050  1
  S  S50  1  0.38601050  0.61398950  0.61398950  1
  S  S51  1  0.61398950  0.38601050  0.61398950  1
  S  S52  1  0.61398950  0.61398950  0.38601050  1
  S  S53  1  0.62037650  0.62037650  0.86506950  1
  S  S54  1  0.62037650  0.86506950  0.62037650  1
  S  S55  1  0.62037650  0.13493050  0.37962350  1
  S  S56  1  0.13493050  0.62037650  0.37962350  1
  S  S57  1  0.86506950  0.62037650  0.62037650  1
  S  S58  1  0.87962350  0.36506950  0.87962350  1
  S  S59  1  0.37962350  0.13493050  0.62037650  1
  S  S60  1  0.87962350  0.87962350  0.36506950  1
  S  S61  1  0.88601050  0.88601050  0.88601050  1
  S  S62  1  0.62037650  0.37962350  0.13493050  1
  S  S63  1  0.13493050  0.37962350  0.62037650  1
