# generated using pymatgen
data_Li8TiS6
_symmetry_space_group_name_H-M   'P 1'
_cell_length_a   6.72055039
_cell_length_b   6.72055039
_cell_length_c   18.30700883
_cell_angle_alpha   90.00000000
_cell_angle_beta   90.00000000
_cell_angle_gamma   120.00000000
_symmetry_Int_Tables_number   1
_chemical_formula_structural   Li8TiS6
_chemical_formula_sum   'Li24 Ti3 S18'
_cell_volume   716.07367188
_cell_formula_units_Z   3
loop_
 _symmetry_equiv_pos_site_id
 _symmetry_equiv_pos_as_xyz
  1  'x, y, z'
loop_
 _atom_site_type_symbol
 _atom_site_label
 _atom_site_symmetry_multiplicity
 _atom_site_fract_x
 _atom_site_fract_y
 _atom_site_fract_z
 _atom_site_occupancy
  Li  Li0  1  0.98325533  0.34706967  0.11954167  1
  Li  Li1  1  0.30285233  0.31658867  0.21379167  1
  Li  Li2  1  0.01373633  0.69714767  0.21379167  1
  Li  Li3  1  0.33333333  0.66666667  0.00810167  1
  Li  Li4  1  0.33333333  0.66666667  0.32523167  1
  Li  Li5  1  0.65293033  0.63618567  0.11954167  1
  Li  Li6  1  0.36381433  0.01674467  0.11954167  1
  Li  Li7  1  0.68341133  0.98626367  0.21379167  1
  Li  Li8  1  0.64992200  0.68040300  0.45287500  1
  Li  Li9  1  0.96951900  0.64992200  0.54712500  1
  Li  Li10  1  0.68040300  0.03048100  0.54712500  1
  Li  Li11  1  0.00000000  0.00000000  0.34143500  1
  Li  Li12  1  0.00000000  0.00000000  0.65856500  1
  Li  Li13  1  0.31959700  0.96951900  0.45287500  1
  Li  Li14  1  0.03048100  0.35007800  0.45287500  1
  Li  Li15  1  0.35007800  0.31959700  0.54712500  1
  Li  Li16  1  0.31658867  0.01373633  0.78620833  1
  Li  Li17  1  0.63618567  0.98325533  0.88045833  1
  Li  Li18  1  0.34706967  0.36381433  0.88045833  1
  Li  Li19  1  0.66666667  0.33333333  0.67476833  1
  Li  Li20  1  0.66666667  0.33333333  0.99189833  1
  Li  Li21  1  0.98626367  0.30285233  0.78620833  1
  Li  Li22  1  0.69714767  0.68341133  0.78620833  1
  Li  Li23  1  0.01674467  0.65293033  0.88045833  1
  Ti  Ti24  1  0.00000000  0.00000000  0.00000000  1
  Ti  Ti25  1  0.66666667  0.33333333  0.33333333  1
  Ti  Ti26  1  0.33333333  0.66666667  0.66666667  1
  S  S27  1  0.97935433  0.34483067  0.25644367  1
  S  S28  1  0.30119033  0.31268767  0.07688967  1
  S  S29  1  0.01149733  0.69880967  0.07688967  1
  S  S30  1  0.65516933  0.63452367  0.25644367  1
  S  S31  1  0.36547633  0.02064567  0.25644367  1
  S  S32  1  0.68731233  0.98850267  0.07688967  1
  S  S33  1  0.64602100  0.67816400  0.58977700  1
  S  S34  1  0.96785700  0.64602100  0.41022300  1
  S  S35  1  0.67816400  0.03214300  0.41022300  1
  S  S36  1  0.32183600  0.96785700  0.58977700  1
  S  S37  1  0.03214300  0.35397900  0.58977700  1
  S  S38  1  0.35397900  0.32183600  0.41022300  1
  S  S39  1  0.31268767  0.01149733  0.92311033  1
  S  S40  1  0.63452367  0.97935433  0.74355633  1
  S  S41  1  0.34483067  0.36547633  0.74355633  1
  S  S42  1  0.98850267  0.30119033  0.92311033  1
  S  S43  1  0.69880967  0.68731233  0.92311033  1
  S  S44  1  0.02064567  0.65516933  0.74355633  1
