# generated using pymatgen
data_Tm3TaO7
_symmetry_space_group_name_H-M   'P 1'
_cell_length_a   7.42575800
_cell_length_b   10.43629600
_cell_length_c   7.41193200
_cell_angle_alpha   90.00000000
_cell_angle_beta   90.00000000
_cell_angle_gamma   90.00000000
_symmetry_Int_Tables_number   1
_chemical_formula_structural   Tm3TaO7
_chemical_formula_sum   'Tm12 Ta4 O28'
_cell_volume   574.40552207
_cell_formula_units_Z   4
loop_
 _symmetry_equiv_pos_site_id
 _symmetry_equiv_pos_as_xyz
  1  'x, y, z'
loop_
 _atom_site_type_symbol
 _atom_site_label
 _atom_site_symmetry_multiplicity
 _atom_site_fract_x
 _atom_site_fract_y
 _atom_site_fract_z
 _atom_site_occupancy
  Tm  Tm0  1  0.73237750  0.26649750  0.25441700  1
  Tm  Tm1  1  0.26762250  0.26649750  0.24558300  1
  Tm  Tm2  1  0.47269600  0.00000000  0.00000000  1
  Tm  Tm3  1  0.52730400  0.00000000  0.50000000  1
  Tm  Tm4  1  0.26762250  0.73350250  0.75441700  1
  Tm  Tm5  1  0.73237750  0.73350250  0.74558300  1
  Tm  Tm6  1  0.23237750  0.76649750  0.25441700  1
  Tm  Tm7  1  0.76762250  0.76649750  0.24558300  1
  Tm  Tm8  1  0.97269600  0.50000000  0.00000000  1
  Tm  Tm9  1  0.02730400  0.50000000  0.50000000  1
  Tm  Tm10  1  0.76762250  0.23350250  0.75441700  1
  Tm  Tm11  1  0.23237750  0.23350250  0.74558300  1
  Ta  Ta12  1  0.00309200  0.00000000  0.50000000  1
  Ta  Ta13  1  0.99690800  0.00000000  0.00000000  1
  Ta  Ta14  1  0.50309200  0.50000000  0.50000000  1
  Ta  Ta15  1  0.49690800  0.50000000  0.00000000  1
  O  O16  1  0.50000000  0.57178000  0.75000000  1
  O  O17  1  0.50000000  0.86065400  0.75000000  1
  O  O18  1  0.18906100  0.87143600  0.53914000  1
  O  O19  1  0.81093900  0.87143600  0.96086000  1
  O  O20  1  0.50000000  0.87066400  0.25000000  1
  O  O21  1  0.79388000  0.87674700  0.52911000  1
  O  O22  1  0.20612000  0.87674700  0.97089000  1
  O  O23  1  0.20612000  0.12325300  0.02911000  1
  O  O24  1  0.79388000  0.12325300  0.47089000  1
  O  O25  1  0.50000000  0.12933600  0.75000000  1
  O  O26  1  0.81093900  0.12856400  0.03914000  1
  O  O27  1  0.18906100  0.12856400  0.46086000  1
  O  O28  1  0.50000000  0.13934600  0.25000000  1
  O  O29  1  0.50000000  0.42822000  0.25000000  1
  O  O30  1  0.00000000  0.07178000  0.75000000  1
  O  O31  1  0.00000000  0.36065400  0.75000000  1
  O  O32  1  0.68906100  0.37143600  0.53914000  1
  O  O33  1  0.31093900  0.37143600  0.96086000  1
  O  O34  1  0.00000000  0.37066400  0.25000000  1
  O  O35  1  0.29388000  0.37674700  0.52911000  1
  O  O36  1  0.70612000  0.37674700  0.97089000  1
  O  O37  1  0.70612000  0.62325300  0.02911000  1
  O  O38  1  0.29388000  0.62325300  0.47089000  1
  O  O39  1  0.00000000  0.62933600  0.75000000  1
  O  O40  1  0.31093900  0.62856400  0.03914000  1
  O  O41  1  0.68906100  0.62856400  0.46086000  1
  O  O42  1  0.00000000  0.63934600  0.25000000  1
  O  O43  1  0.00000000  0.92822000  0.25000000  1
