# generated using pymatgen
data_Hf2P2O9
_symmetry_space_group_name_H-M   'P 1'
_cell_length_a   6.66334200
_cell_length_b   8.72190000
_cell_length_c   11.89418800
_cell_angle_alpha   90.00000000
_cell_angle_beta   90.00000000
_cell_angle_gamma   90.00000000
_symmetry_Int_Tables_number   1
_chemical_formula_structural   Hf2P2O9
_chemical_formula_sum   'Hf8 P8 O36'
_cell_volume   691.25455480
_cell_formula_units_Z   4
loop_
 _symmetry_equiv_pos_site_id
 _symmetry_equiv_pos_as_xyz
  1  'x, y, z'
loop_
 _atom_site_type_symbol
 _atom_site_label
 _atom_site_symmetry_multiplicity
 _atom_site_fract_x
 _atom_site_fract_y
 _atom_site_fract_z
 _atom_site_occupancy
  Hf  Hf0  1  0.50000000  0.29408900  0.56157700  1
  Hf  Hf1  1  0.50000000  0.70591100  0.43842300  1
  Hf  Hf2  1  0.50000000  0.20591100  0.06157700  1
  Hf  Hf3  1  0.50000000  0.79408900  0.93842300  1
  Hf  Hf4  1  0.00000000  0.79408900  0.56157700  1
  Hf  Hf5  1  0.00000000  0.20591100  0.43842300  1
  Hf  Hf6  1  0.00000000  0.70591100  0.06157700  1
  Hf  Hf7  1  0.00000000  0.29408900  0.93842300  1
  P  P8  1  0.50000000  0.39408700  0.85286500  1
  P  P9  1  0.50000000  0.60591300  0.14713500  1
  P  P10  1  0.50000000  0.10591300  0.35286500  1
  P  P11  1  0.50000000  0.89408700  0.64713500  1
  P  P12  1  0.00000000  0.89408700  0.85286500  1
  P  P13  1  0.00000000  0.10591300  0.14713500  1
  P  P14  1  0.00000000  0.60591300  0.35286500  1
  P  P15  1  0.00000000  0.39408700  0.64713500  1
  O  O16  1  0.32413750  0.68988750  0.08320600  1
  O  O17  1  0.32413750  0.18988750  0.41679400  1
  O  O18  1  0.32413750  0.81011250  0.58320600  1
  O  O19  1  0.32413750  0.31011250  0.91679400  1
  O  O20  1  0.50000000  0.00000000  0.00000000  1
  O  O21  1  0.50000000  0.64117900  0.27183300  1
  O  O22  1  0.50000000  0.85882100  0.77183300  1
  O  O23  1  0.00000000  0.00000000  0.50000000  1
  O  O24  1  0.50000000  0.93493000  0.37528200  1
  O  O25  1  0.50000000  0.56507000  0.87528200  1
  O  O26  1  0.50000000  0.06507000  0.62471800  1
  O  O27  1  0.50000000  0.43493000  0.12471800  1
  O  O28  1  0.50000000  0.35882100  0.72816700  1
  O  O29  1  0.50000000  0.14117900  0.22816700  1
  O  O30  1  0.67586250  0.18988750  0.41679400  1
  O  O31  1  0.67586250  0.31011250  0.91679400  1
  O  O32  1  0.67586250  0.68988750  0.08320600  1
  O  O33  1  0.67586250  0.81011250  0.58320600  1
  O  O34  1  0.82413750  0.18988750  0.08320600  1
  O  O35  1  0.82413750  0.68988750  0.41679400  1
  O  O36  1  0.82413750  0.31011250  0.58320600  1
  O  O37  1  0.82413750  0.81011250  0.91679400  1
  O  O38  1  0.00000000  0.50000000  0.00000000  1
  O  O39  1  0.00000000  0.14117900  0.27183300  1
  O  O40  1  0.00000000  0.35882100  0.77183300  1
  O  O41  1  0.50000000  0.50000000  0.50000000  1
  O  O42  1  0.00000000  0.43493000  0.37528200  1
  O  O43  1  0.00000000  0.06507000  0.87528200  1
  O  O44  1  0.00000000  0.56507000  0.62471800  1
  O  O45  1  0.00000000  0.93493000  0.12471800  1
  O  O46  1  0.00000000  0.85882100  0.72816700  1
  O  O47  1  0.00000000  0.64117900  0.22816700  1
  O  O48  1  0.17586250  0.68988750  0.41679400  1
  O  O49  1  0.17586250  0.81011250  0.91679400  1
  O  O50  1  0.17586250  0.18988750  0.08320600  1
  O  O51  1  0.17586250  0.31011250  0.58320600  1
