# generated using pymatgen
data_Li2Ti3NiO8
_symmetry_space_group_name_H-M   'P 1'
_cell_length_a   5.96661890
_cell_length_b   5.96661890
_cell_length_c   14.70368969
_cell_angle_alpha   90.00000000
_cell_angle_beta   90.00000000
_cell_angle_gamma   120.00000000
_symmetry_Int_Tables_number   1
_chemical_formula_structural   Li2Ti3NiO8
_chemical_formula_sum   'Li6 Ti9 Ni3 O24'
_cell_volume   453.32905883
_cell_formula_units_Z   3
loop_
 _symmetry_equiv_pos_site_id
 _symmetry_equiv_pos_as_xyz
  1  'x, y, z'
loop_
 _atom_site_type_symbol
 _atom_site_label
 _atom_site_symmetry_multiplicity
 _atom_site_fract_x
 _atom_site_fract_y
 _atom_site_fract_z
 _atom_site_occupancy
  Li  Li0  1  0.66666667  0.33333333  0.45207233  1
  Li  Li1  1  0.00000000  0.00000000  0.50085850  1
  Li  Li2  1  0.33333333  0.66666667  0.78540567  1
  Li  Li3  1  0.66666667  0.33333333  0.83419183  1
  Li  Li4  1  0.00000000  0.00000000  0.11873900  1
  Li  Li5  1  0.33333333  0.66666667  0.16752517  1
  Ti  Ti6  1  0.16385767  0.32771533  0.33465008  1
  Ti  Ti7  1  0.67228467  0.83614233  0.33465008  1
  Ti  Ti8  1  0.16385767  0.83614233  0.33465008  1
  Ti  Ti9  1  0.83052433  0.66104867  0.66798342  1
  Ti  Ti10  1  0.33895133  0.16947567  0.66798342  1
  Ti  Ti11  1  0.83052433  0.16947567  0.66798342  1
  Ti  Ti12  1  0.49719100  0.99438200  0.00131675  1
  Ti  Ti13  1  0.00561800  0.50280900  0.00131675  1
  Ti  Ti14  1  0.49719100  0.50280900  0.00131675  1
  Ni  Ni15  1  0.33333333  0.66666667  0.54893067  1
  Ni  Ni16  1  0.00000000  0.00000000  0.88226400  1
  Ni  Ni17  1  0.66666667  0.33333333  0.21559733  1
  O  O18  1  0.66666667  0.33333333  0.59300208  1
  O  O19  1  0.33333333  0.66666667  0.40701908  1
  O  O20  1  0.84750612  0.15249388  0.40326775  1
  O  O21  1  0.30498775  0.15249388  0.40326775  1
  O  O22  1  0.84750612  0.69501225  0.40326775  1
  O  O23  1  0.15430425  0.30860850  0.59422850  1
  O  O24  1  0.69139150  0.84569575  0.59422850  1
  O  O25  1  0.15430425  0.84569575  0.59422850  1
  O  O26  1  0.33333333  0.66666667  0.92633542  1
  O  O27  1  0.00000000  0.00000000  0.74035242  1
  O  O28  1  0.51417279  0.48582721  0.73660108  1
  O  O29  1  0.97165442  0.48582721  0.73660108  1
  O  O30  1  0.51417279  0.02834558  0.73660108  1
  O  O31  1  0.82097092  0.64194183  0.92756183  1
  O  O32  1  0.35805817  0.17902908  0.92756183  1
  O  O33  1  0.82097092  0.17902908  0.92756183  1
  O  O34  1  0.00000000  0.00000000  0.25966875  1
  O  O35  1  0.66666667  0.33333333  0.07368575  1
  O  O36  1  0.18083946  0.81916054  0.06993442  1
  O  O37  1  0.63832108  0.81916054  0.06993442  1
  O  O38  1  0.18083946  0.36167892  0.06993442  1
  O  O39  1  0.48763758  0.97527517  0.26089517  1
  O  O40  1  0.02472483  0.51236242  0.26089517  1
  O  O41  1  0.48763758  0.51236242  0.26089517  1
