# generated using pymatgen
data_GaH5(NF)2
_symmetry_space_group_name_H-M   'P 1'
_cell_length_a   11.22737800
_cell_length_b   5.85925400
_cell_length_c   5.01144601
_cell_angle_alpha   90.00000000
_cell_angle_beta   91.61066218
_cell_angle_gamma   90.00000000
_symmetry_Int_Tables_number   1
_chemical_formula_structural   GaH5(NF)2
_chemical_formula_sum   'Ga4 H20 N8 F8'
_cell_volume   329.54300919
_cell_formula_units_Z   4
loop_
 _symmetry_equiv_pos_site_id
 _symmetry_equiv_pos_as_xyz
  1  'x, y, z'
loop_
 _atom_site_type_symbol
 _atom_site_label
 _atom_site_symmetry_multiplicity
 _atom_site_fract_x
 _atom_site_fract_y
 _atom_site_fract_z
 _atom_site_occupancy
  Ga  Ga0  1  0.00000000  0.50000000  0.50000000  1
  Ga  Ga1  1  0.00000000  0.00000000  0.00000000  1
  Ga  Ga2  1  0.50000000  0.00000000  0.50000000  1
  Ga  Ga3  1  0.50000000  0.50000000  0.00000000  1
  H  H4  1  0.61181300  0.50000000  0.57387200  1
  H  H5  1  0.69153950  0.64861450  0.78842400  1
  H  H6  1  0.69153950  0.35138550  0.78842400  1
  H  H7  1  0.64877700  0.00000000  0.88892600  1
  H  H8  1  0.72364900  0.00000000  0.59803100  1
  H  H9  1  0.77635100  0.50000000  0.40196900  1
  H  H10  1  0.85122300  0.50000000  0.11107400  1
  H  H11  1  0.80846050  0.14861450  0.21157600  1
  H  H12  1  0.80846050  0.85138550  0.21157600  1
  H  H13  1  0.88818700  0.00000000  0.42612800  1
  H  H14  1  0.11181300  0.00000000  0.57387200  1
  H  H15  1  0.19153950  0.14861450  0.78842400  1
  H  H16  1  0.19153950  0.85138550  0.78842400  1
  H  H17  1  0.14877700  0.50000000  0.88892600  1
  H  H18  1  0.22364900  0.50000000  0.59803100  1
  H  H19  1  0.27635100  0.00000000  0.40196900  1
  H  H20  1  0.35122300  0.00000000  0.11107400  1
  H  H21  1  0.30846050  0.64861450  0.21157600  1
  H  H22  1  0.30846050  0.35138550  0.21157600  1
  H  H23  1  0.38818700  0.50000000  0.42612800  1
  N  N24  1  0.64402900  0.00000000  0.68782300  1
  N  N25  1  0.64319800  0.50000000  0.76768400  1
  N  N26  1  0.85680200  0.00000000  0.23231600  1
  N  N27  1  0.85597100  0.50000000  0.31217700  1
  N  N28  1  0.14402900  0.50000000  0.68782300  1
  N  N29  1  0.14319800  0.00000000  0.76768400  1
  N  N30  1  0.35680200  0.50000000  0.23231600  1
  N  N31  1  0.35597100  0.00000000  0.31217700  1
  F  F32  1  0.57118150  0.26076550  0.23585300  1
  F  F33  1  0.57118150  0.73923450  0.23585300  1
  F  F34  1  0.92881850  0.76076550  0.76414700  1
  F  F35  1  0.92881850  0.23923450  0.76414700  1
  F  F36  1  0.07118150  0.76076550  0.23585300  1
  F  F37  1  0.07118150  0.23923450  0.23585300  1
  F  F38  1  0.42881850  0.26076550  0.76414700  1
  F  F39  1  0.42881850  0.73923450  0.76414700  1
