# generated using pymatgen
data_Li4AlCr3O8
_symmetry_space_group_name_H-M   'P 1'
_cell_length_a   5.85564856
_cell_length_b   5.85564856
_cell_length_c   14.58246795
_cell_angle_alpha   90.00000000
_cell_angle_beta   90.00000000
_cell_angle_gamma   120.00000000
_symmetry_Int_Tables_number   1
_chemical_formula_structural   Li4AlCr3O8
_chemical_formula_sum   'Li12 Al3 Cr9 O24'
_cell_volume   433.02370343
_cell_formula_units_Z   3
loop_
 _symmetry_equiv_pos_site_id
 _symmetry_equiv_pos_as_xyz
  1  'x, y, z'
loop_
 _atom_site_type_symbol
 _atom_site_label
 _atom_site_symmetry_multiplicity
 _atom_site_fract_x
 _atom_site_fract_y
 _atom_site_fract_z
 _atom_site_occupancy
  Li  Li0  1  0.33333333  0.66666667  0.16666667  1
  Li  Li1  1  0.33333333  0.16666667  0.16666667  1
  Li  Li2  1  0.50000000  0.00000000  0.50000000  1
  Li  Li3  1  0.83333333  0.16666667  0.16666667  1
  Li  Li4  1  1.00000000  1.00000000  0.50000000  1
  Li  Li5  1  0.00000000  0.50000000  0.50000000  1
  Li  Li6  1  0.16666667  0.33333333  0.83333333  1
  Li  Li7  1  0.50000000  0.50000000  0.50000000  1
  Li  Li8  1  0.66666667  0.33333333  0.83333333  1
  Li  Li9  1  0.66666667  0.83333333  0.83333333  1
  Li  Li10  1  0.83333333  0.66666667  0.16666667  1
  Li  Li11  1  0.16666667  0.83333333  0.83333333  1
  Al  Al12  1  0.66666667  0.33333333  0.33333333  1
  Al  Al13  1  0.33333333  0.66666667  0.66666667  1
  Al  Al14  1  1.00000000  1.00000000  0.00000000  1
  Cr  Cr15  1  0.16666667  0.83333333  0.33333333  1
  Cr  Cr16  1  0.66666667  0.83333333  0.33333333  1
  Cr  Cr17  1  0.16666667  0.33333333  0.33333333  1
  Cr  Cr18  1  0.83333333  0.16666667  0.66666667  1
  Cr  Cr19  1  0.33333333  0.16666667  0.66666667  1
  Cr  Cr20  1  0.83333333  0.66666667  0.66666667  1
  Cr  Cr21  1  0.50000000  0.50000000  0.00000000  1
  Cr  Cr22  1  0.00000000  0.50000000  0.00000000  1
  Cr  Cr23  1  0.50000000  0.00000000  0.00000000  1
  O  O24  1  0.33333333  0.66666667  0.41068483  1
  O  O25  1  0.00000000  0.00000000  0.25598183  1
  O  O26  1  0.50543317  0.01086633  0.26148583  1
  O  O27  1  0.98913367  0.49456683  0.26148583  1
  O  O28  1  0.50543317  0.49456683  0.26148583  1
  O  O29  1  0.82790017  0.17209983  0.40518083  1
  O  O30  1  0.34419967  0.17209983  0.40518083  1
  O  O31  1  0.82790017  0.65580033  0.40518083  1
  O  O32  1  0.00000000  0.00000000  0.74401817  1
  O  O33  1  0.66666667  0.33333333  0.58931517  1
  O  O34  1  0.17209983  0.34419967  0.59481917  1
  O  O35  1  0.65580033  0.82790017  0.59481917  1
  O  O36  1  0.17209983  0.82790017  0.59481917  1
  O  O37  1  0.49456683  0.50543317  0.73851417  1
  O  O38  1  0.01086633  0.50543317  0.73851417  1
  O  O39  1  0.49456683  0.98913367  0.73851417  1
  O  O40  1  0.66666667  0.33333333  0.07735150  1
  O  O41  1  0.33333333  0.66666667  0.92264850  1
  O  O42  1  0.83876650  0.67753300  0.92815250  1
  O  O43  1  0.32246700  0.16123350  0.92815250  1
  O  O44  1  0.83876650  0.16123350  0.92815250  1
  O  O45  1  0.16123350  0.83876650  0.07184750  1
  O  O46  1  0.67753300  0.83876650  0.07184750  1
  O  O47  1  0.16123350  0.32246700  0.07184750  1
