# generated using pymatgen
data_Dy2Sb2O7
_symmetry_space_group_name_H-M   'P 1'
_cell_length_a   7.41093000
_cell_length_b   7.70067000
_cell_length_c   10.65274000
_cell_angle_alpha   90.00000000
_cell_angle_beta   90.00000000
_cell_angle_gamma   90.00000000
_symmetry_Int_Tables_number   1
_chemical_formula_structural   Dy2Sb2O7
_chemical_formula_sum   'Dy8 Sb8 O28'
_cell_volume   607.94256475
_cell_formula_units_Z   4
loop_
 _symmetry_equiv_pos_site_id
 _symmetry_equiv_pos_as_xyz
  1  'x, y, z'
loop_
 _atom_site_type_symbol
 _atom_site_label
 _atom_site_symmetry_multiplicity
 _atom_site_fract_x
 _atom_site_fract_y
 _atom_site_fract_z
 _atom_site_occupancy
  Dy  Dy0  1  0.00000000  0.00000000  0.50000000  1
  Dy  Dy1  1  0.00000000  0.00000000  0.00000000  1
  Dy  Dy2  1  0.25000000  0.75000000  0.25000000  1
  Dy  Dy3  1  0.25000000  0.25000000  0.25000000  1
  Dy  Dy4  1  0.50000000  0.50000000  0.00000000  1
  Dy  Dy5  1  0.50000000  0.50000000  0.50000000  1
  Dy  Dy6  1  0.75000000  0.25000000  0.75000000  1
  Dy  Dy7  1  0.75000000  0.75000000  0.75000000  1
  Sb  Sb8  1  0.75000000  0.25000000  0.25000000  1
  Sb  Sb9  1  0.50000000  0.00000000  0.50000000  1
  Sb  Sb10  1  0.75000000  0.75000000  0.25000000  1
  Sb  Sb11  1  0.50000000  0.00000000  0.00000000  1
  Sb  Sb12  1  0.25000000  0.75000000  0.75000000  1
  Sb  Sb13  1  0.00000000  0.50000000  0.00000000  1
  Sb  Sb14  1  0.25000000  0.25000000  0.75000000  1
  Sb  Sb15  1  0.00000000  0.50000000  0.50000000  1
  O  O16  1  0.95049050  0.25296150  0.37676050  1
  O  O17  1  0.21590700  0.00000000  0.75000000  1
  O  O18  1  0.24737800  0.00000000  0.11875700  1
  O  O19  1  0.75262200  0.00000000  0.61875700  1
  O  O20  1  0.45049050  0.24703850  0.62323950  1
  O  O21  1  0.54950950  0.24703850  0.37676050  1
  O  O22  1  0.95049050  0.74703850  0.37676050  1
  O  O23  1  0.45049050  0.75296150  0.62323950  1
  O  O24  1  0.54950950  0.75296150  0.37676050  1
  O  O25  1  0.04950950  0.25296150  0.62323950  1
  O  O26  1  0.75262200  0.00000000  0.88124300  1
  O  O27  1  0.78409300  0.00000000  0.25000000  1
  O  O28  1  0.24737800  0.00000000  0.38124300  1
  O  O29  1  0.04950950  0.74703850  0.62323950  1
  O  O30  1  0.45049050  0.75296150  0.87676050  1
  O  O31  1  0.71590700  0.50000000  0.25000000  1
  O  O32  1  0.74737800  0.50000000  0.61875700  1
  O  O33  1  0.25262200  0.50000000  0.11875700  1
  O  O34  1  0.95049050  0.74703850  0.12323950  1
  O  O35  1  0.04950950  0.74703850  0.87676050  1
  O  O36  1  0.45049050  0.24703850  0.87676050  1
  O  O37  1  0.95049050  0.25296150  0.12323950  1
  O  O38  1  0.04950950  0.25296150  0.87676050  1
  O  O39  1  0.54950950  0.75296150  0.12323950  1
  O  O40  1  0.25262200  0.50000000  0.38124300  1
  O  O41  1  0.28409300  0.50000000  0.75000000  1
  O  O42  1  0.74737800  0.50000000  0.88124300  1
  O  O43  1  0.54950950  0.24703850  0.12323950  1
