# generated using pymatgen
data_Li2Fe(SiO3)2
_symmetry_space_group_name_H-M   'P 1'
_cell_length_a   5.44012884
_cell_length_b   4.75858512
_cell_length_c   9.87109553
_cell_angle_alpha   90.00000000
_cell_angle_beta   93.49396530
_cell_angle_gamma   90.00000000
_symmetry_Int_Tables_number   1
_chemical_formula_structural   Li2Fe(SiO3)2
_chemical_formula_sum   'Li4 Fe2 Si4 O12'
_cell_volume   255.06118579
_cell_formula_units_Z   2
loop_
 _symmetry_equiv_pos_site_id
 _symmetry_equiv_pos_as_xyz
  1  'x, y, z'
loop_
 _atom_site_type_symbol
 _atom_site_label
 _atom_site_symmetry_multiplicity
 _atom_site_fract_x
 _atom_site_fract_y
 _atom_site_fract_z
 _atom_site_occupancy
  Li  Li0  1  0.15380050  0.20079300  0.83682450  1
  Li  Li1  1  0.84619950  0.70079300  0.16317550  1
  Li  Li2  1  0.33738150  0.70314800  0.98686650  1
  Li  Li3  1  0.66261850  0.20314800  0.01313350  1
  Fe  Fe4  1  0.76000050  0.19169700  0.36353850  1
  Fe  Fe5  1  0.23999950  0.69169700  0.63646150  1
  Si  Si6  1  0.62650150  0.20935600  0.68092950  1
  Si  Si7  1  0.37349850  0.70935600  0.31907050  1
  Si  Si8  1  0.80893450  0.70730200  0.84102150  1
  Si  Si9  1  0.19106550  0.20730200  0.15897850  1
  O  O10  1  0.77292050  0.29313900  0.55164650  1
  O  O11  1  0.22707950  0.79313900  0.44835350  1
  O  O12  1  0.34089450  0.29618700  0.68641050  1
  O  O13  1  0.65910550  0.79618700  0.31358950  1
  O  O14  1  0.63543950  0.86173300  0.71566550  1
  O  O15  1  0.36456050  0.36173300  0.28433450  1
  O  O16  1  0.78256550  0.35613100  0.81928250  1
  O  O17  1  0.21743450  0.85613100  0.18071750  1
  O  O18  1  0.09743450  0.78692700  0.82431250  1
  O  O19  1  0.90256550  0.28692700  0.17568750  1
  O  O20  1  0.69829850  0.78815700  0.98376150  1
  O  O21  1  0.30170150  0.28815700  0.01623850  1
