# generated using pymatgen
data_Na5Fe2P2(CO7)2
_symmetry_space_group_name_H-M   'P 1'
_cell_length_a   8.98107500
_cell_length_b   6.67101300
_cell_length_c   10.45419801
_cell_angle_alpha   90.00000000
_cell_angle_beta   90.31897536
_cell_angle_gamma   90.00000000
_symmetry_Int_Tables_number   1
_chemical_formula_structural   Na5Fe2P2(CO7)2
_chemical_formula_sum   'Na10 Fe4 P4 C4 O28'
_cell_volume   626.33127976
_cell_formula_units_Z   2
loop_
 _symmetry_equiv_pos_site_id
 _symmetry_equiv_pos_as_xyz
  1  'x, y, z'
loop_
 _atom_site_type_symbol
 _atom_site_label
 _atom_site_symmetry_multiplicity
 _atom_site_fract_x
 _atom_site_fract_y
 _atom_site_fract_z
 _atom_site_occupancy
  Na  Na0  1  0.07498600  0.24971100  0.61374900  1
  Na  Na1  1  0.08899400  0.24168000  0.12359200  1
  Na  Na2  1  0.26506500  0.00472700  0.87879100  1
  Na  Na3  1  0.26457700  0.49710200  0.88087600  1
  Na  Na4  1  0.26030300  0.48869300  0.36855400  1
  Na  Na5  1  0.73969700  0.98869300  0.63144600  1
  Na  Na6  1  0.73493500  0.50472700  0.12120900  1
  Na  Na7  1  0.73542300  0.99710200  0.11912400  1
  Na  Na8  1  0.91100600  0.74168000  0.87640800  1
  Na  Na9  1  0.92501400  0.74971100  0.38625100  1
  Fe  Fe10  1  0.35262400  0.75819200  0.60111600  1
  Fe  Fe11  1  0.34821800  0.75458500  0.11680300  1
  Fe  Fe12  1  0.65178200  0.25458500  0.88319700  1
  Fe  Fe13  1  0.64737600  0.25819200  0.39888400  1
  P  P14  1  0.41471400  0.25109100  0.64432200  1
  P  P15  1  0.42290600  0.25151000  0.14807800  1
  P  P16  1  0.57709400  0.75151000  0.85192200  1
  P  P17  1  0.58528600  0.75109100  0.35567800  1
  C  C18  1  0.07213700  0.75052100  0.63669000  1
  C  C19  1  0.05412900  0.74474400  0.13351800  1
  C  C20  1  0.94587100  0.24474400  0.86648200  1
  C  C21  1  0.92786300  0.25052100  0.36331000  1
  O  O22  1  0.08969100  0.25028900  0.85778500  1
  O  O23  1  0.06823800  0.26741100  0.35111000  1
  O  O24  1  0.13507400  0.73705400  0.52481100  1
  O  O25  1  0.11748300  0.75269600  0.02077800  1
  O  O26  1  0.16478700  0.74775100  0.73478900  1
  O  O27  1  0.13647900  0.73381700  0.23489800  1
  O  O28  1  0.31767100  0.06161300  0.61568700  1
  O  O29  1  0.32250600  0.43827200  0.60250500  1
  O  O30  1  0.32296100  0.06990400  0.11571600  1
  O  O31  1  0.32361600  0.43701700  0.11904200  1
  O  O32  1  0.42966400  0.75134000  0.92711000  1
  O  O33  1  0.43470300  0.74005200  0.42753800  1
  O  O34  1  0.44468700  0.25978100  0.79011100  1
  O  O35  1  0.46626300  0.25798100  0.29455000  1
  O  O36  1  0.53373700  0.75798100  0.70545000  1
  O  O37  1  0.55531300  0.75978100  0.20988900  1
  O  O38  1  0.56529700  0.24005200  0.57246200  1
  O  O39  1  0.57033600  0.25134000  0.07289000  1
  O  O40  1  0.67703900  0.56990400  0.88428400  1
  O  O41  1  0.67638400  0.93701700  0.88095800  1
  O  O42  1  0.68232900  0.56161300  0.38431300  1
  O  O43  1  0.67749400  0.93827200  0.39749500  1
  O  O44  1  0.86352100  0.23381700  0.76510200  1
  O  O45  1  0.83521300  0.24775100  0.26521100  1
  O  O46  1  0.88251700  0.25269600  0.97922200  1
  O  O47  1  0.86492600  0.23705400  0.47518900  1
  O  O48  1  0.93176200  0.76741100  0.64889000  1
  O  O49  1  0.91030900  0.75028900  0.14221500  1
