# generated using pymatgen
data_Ca(ClO3)2
_symmetry_space_group_name_H-M   'P 1'
_cell_length_a   7.34497600
_cell_length_b   11.41138600
_cell_length_c   12.26092200
_cell_angle_alpha   90.00000000
_cell_angle_beta   90.00000000
_cell_angle_gamma   90.00000000
_symmetry_Int_Tables_number   1
_chemical_formula_structural   Ca(ClO3)2
_chemical_formula_sum   'Ca8 Cl16 O48'
_cell_volume   1027.66580688
_cell_formula_units_Z   8
loop_
 _symmetry_equiv_pos_site_id
 _symmetry_equiv_pos_as_xyz
  1  'x, y, z'
loop_
 _atom_site_type_symbol
 _atom_site_label
 _atom_site_symmetry_multiplicity
 _atom_site_fract_x
 _atom_site_fract_y
 _atom_site_fract_z
 _atom_site_occupancy
  Ca  Ca0  1  0.49897500  0.75000000  0.75000000  1
  Ca  Ca1  1  0.74897500  0.00000000  0.50000000  1
  Ca  Ca2  1  0.99897500  0.75000000  0.25000000  1
  Ca  Ca3  1  0.24897500  0.00000000  0.00000000  1
  Ca  Ca4  1  0.99897500  0.25000000  0.75000000  1
  Ca  Ca5  1  0.24897500  0.50000000  0.50000000  1
  Ca  Ca6  1  0.49897500  0.25000000  0.25000000  1
  Ca  Ca7  1  0.74897500  0.50000000  0.00000000  1
  Cl  Cl8  1  0.31385200  0.19542350  0.51936350  1
  Cl  Cl9  1  0.06385200  0.94542350  0.73063650  1
  Cl  Cl10  1  0.56385200  0.05457650  0.76936350  1
  Cl  Cl11  1  0.31385200  0.30457650  0.98063650  1
  Cl  Cl12  1  0.81385200  0.19542350  0.01936350  1
  Cl  Cl13  1  0.56385200  0.94542350  0.23063650  1
  Cl  Cl14  1  0.06385200  0.05457650  0.26936350  1
  Cl  Cl15  1  0.81385200  0.30457650  0.48063650  1
  Cl  Cl16  1  0.81385200  0.69542350  0.51936350  1
  Cl  Cl17  1  0.56385200  0.44542350  0.73063650  1
  Cl  Cl18  1  0.06385200  0.55457650  0.76936350  1
  Cl  Cl19  1  0.81385200  0.80457650  0.98063650  1
  Cl  Cl20  1  0.31385200  0.69542350  0.01936350  1
  Cl  Cl21  1  0.06385200  0.44542350  0.23063650  1
  Cl  Cl22  1  0.56385200  0.55457650  0.26936350  1
  Cl  Cl23  1  0.31385200  0.80457650  0.48063650  1
  O  O24  1  0.36971450  0.79366650  0.94116600  1
  O  O25  1  0.98172100  0.62631150  0.54186050  1
  O  O26  1  0.26601400  0.25967450  0.62251450  1
  O  O27  1  0.01601400  0.00967450  0.62748550  1
  O  O28  1  0.61971450  0.95633350  0.69116600  1
  O  O29  1  0.23172100  0.87631150  0.70813950  1
  O  O30  1  0.23172100  0.62368850  0.79186050  1
  O  O31  1  0.11971450  0.04366650  0.80883400  1
  O  O32  1  0.51601400  0.99032550  0.87251450  1
  O  O33  1  0.26601400  0.24032550  0.87748550  1
  O  O34  1  0.48172100  0.37368850  0.95813950  1
  O  O35  1  0.86971450  0.20633350  0.55883400  1
  O  O36  1  0.86971450  0.79366650  0.44116600  1
  O  O37  1  0.48172100  0.62631150  0.04186050  1
  O  O38  1  0.76601400  0.25967450  0.12251450  1
  O  O39  1  0.51601400  0.00967450  0.12748550  1
  O  O40  1  0.11971450  0.95633350  0.19116600  1
  O  O41  1  0.73172100  0.87631150  0.20813950  1
  O  O42  1  0.73172100  0.62368850  0.29186050  1
  O  O43  1  0.61971450  0.04366650  0.30883400  1
  O  O44  1  0.01601400  0.99032550  0.37251450  1
  O  O45  1  0.76601400  0.24032550  0.37748550  1
  O  O46  1  0.98172100  0.37368850  0.45813950  1
  O  O47  1  0.36971450  0.20633350  0.05883400  1
  O  O48  1  0.86971450  0.29366650  0.94116600  1
  O  O49  1  0.48172100  0.12631150  0.54186050  1
  O  O50  1  0.76601400  0.75967450  0.62251450  1
  O  O51  1  0.51601400  0.50967450  0.62748550  1
  O  O52  1  0.11971450  0.45633350  0.69116600  1
  O  O53  1  0.73172100  0.37631150  0.70813950  1
  O  O54  1  0.73172100  0.12368850  0.79186050  1
  O  O55  1  0.61971450  0.54366650  0.80883400  1
  O  O56  1  0.01601400  0.49032550  0.87251450  1
  O  O57  1  0.76601400  0.74032550  0.87748550  1
  O  O58  1  0.98172100  0.87368850  0.95813950  1
  O  O59  1  0.36971450  0.70633350  0.55883400  1
  O  O60  1  0.36971450  0.29366650  0.44116600  1
  O  O61  1  0.98172100  0.12631150  0.04186050  1
  O  O62  1  0.26601400  0.75967450  0.12251450  1
  O  O63  1  0.01601400  0.50967450  0.12748550  1
  O  O64  1  0.61971450  0.45633350  0.19116600  1
  O  O65  1  0.23172100  0.37631150  0.20813950  1
  O  O66  1  0.23172100  0.12368850  0.29186050  1
  O  O67  1  0.11971450  0.54366650  0.30883400  1
  O  O68  1  0.51601400  0.49032550  0.37251450  1
  O  O69  1  0.26601400  0.74032550  0.37748550  1
  O  O70  1  0.48172100  0.87368850  0.45813950  1
  O  O71  1  0.86971450  0.70633350  0.05883400  1
