# generated using pymatgen
data_Li3AlNiO4
_symmetry_space_group_name_H-M   'P 1'
_cell_length_a   10.16229400
_cell_length_b   10.16229400
_cell_length_c   13.88834400
_cell_angle_alpha   90.00000000
_cell_angle_beta   90.00000000
_cell_angle_gamma   90.00000000
_symmetry_Int_Tables_number   1
_chemical_formula_structural   Li3AlNiO4
_chemical_formula_sum   'Li48 Al16 Ni16 O64'
_cell_volume   1434.28010787
_cell_formula_units_Z   16
loop_
 _symmetry_equiv_pos_site_id
 _symmetry_equiv_pos_as_xyz
  1  'x, y, z'
loop_
 _atom_site_type_symbol
 _atom_site_label
 _atom_site_symmetry_multiplicity
 _atom_site_fract_x
 _atom_site_fract_y
 _atom_site_fract_z
 _atom_site_occupancy
  Li  Li0  1  0.66864450  0.49635650  0.44160950  1
  Li  Li1  1  0.83135550  0.50364350  0.30839050  1
  Li  Li2  1  0.99635650  0.83135550  0.05839050  1
  Li  Li3  1  0.99635650  0.33135550  0.19160950  1
  Li  Li4  1  0.98506250  0.14249950  0.30132850  1
  Li  Li5  1  0.98377550  0.14671150  0.57092750  1
  Li  Li6  1  0.00364350  0.66864450  0.19160950  1
  Li  Li7  1  0.00364350  0.16864450  0.05839050  1
  Li  Li8  1  0.14249950  0.01493750  0.69867150  1
  Li  Li9  1  0.14671150  0.01622450  0.42907250  1
  Li  Li10  1  0.16864450  0.49635650  0.30839050  1
  Li  Li11  1  0.33135550  0.50364350  0.44160950  1
  Li  Li12  1  0.35328850  0.48377550  0.92907250  1
  Li  Li13  1  0.35328850  0.98377550  0.32092750  1
  Li  Li14  1  0.35750050  0.98506250  0.05132850  1
  Li  Li15  1  0.35750050  0.48506250  0.19867150  1
  Li  Li16  1  0.51622450  0.85328850  0.17907250  1
  Li  Li17  1  0.51622450  0.35328850  0.07092750  1
  Li  Li18  1  0.48506250  0.14249950  0.44867150  1
  Li  Li19  1  0.51493750  0.35750050  0.80132850  1
  Li  Li20  1  0.51493750  0.85750050  0.44867150  1
  Li  Li21  1  0.48377550  0.14671150  0.17907250  1
  Li  Li22  1  0.64249950  0.01493750  0.05132850  1
  Li  Li23  1  0.64671150  0.01622450  0.32092750  1
  Li  Li24  1  0.16864450  0.99635650  0.94160950  1
  Li  Li25  1  0.33135550  0.00364350  0.80839050  1
  Li  Li26  1  0.49635650  0.33135550  0.55839050  1
  Li  Li27  1  0.49635650  0.83135550  0.69160950  1
  Li  Li28  1  0.48506250  0.64249950  0.80132850  1
  Li  Li29  1  0.48377550  0.64671150  0.07092750  1
  Li  Li30  1  0.50364350  0.16864450  0.69160950  1
  Li  Li31  1  0.50364350  0.66864450  0.55839050  1
  Li  Li32  1  0.64249950  0.51493750  0.19867150  1
  Li  Li33  1  0.64671150  0.51622450  0.92907250  1
  Li  Li34  1  0.66864450  0.99635650  0.80839050  1
  Li  Li35  1  0.83135550  0.00364350  0.94160950  1
  Li  Li36  1  0.85328850  0.98377550  0.42907250  1
  Li  Li37  1  0.85328850  0.48377550  0.82092750  1
  Li  Li38  1  0.85750050  0.48506250  0.55132850  1
  Li  Li39  1  0.85750050  0.98506250  0.69867150  1
  Li  Li40  1  0.01622450  0.35328850  0.67907250  1
  Li  Li41  1  0.01622450  0.85328850  0.57092750  1
  Li  Li42  1  0.98506250  0.64249950  0.94867150  1
  Li  Li43  1  0.01493750  0.85750050  0.30132850  1
  Li  Li44  1  0.01493750  0.35750050  0.94867150  1
  Li  Li45  1  0.98377550  0.64671150  0.67907250  1
  Li  Li46  1  0.14249950  0.51493750  0.55132850  1
  Li  Li47  1  0.14671150  0.51622450  0.82092750  1
  Al  Al48  1  0.99313000  0.31683100  0.43103000  1
  Al  Al49  1  0.18316900  0.49313000  0.06897000  1
  Al  Al50  1  0.18316900  0.99313000  0.18103000  1
  Al  Al51  1  0.31683100  0.00687000  0.56897000  1
  Al  Al52  1  0.49313000  0.31683100  0.31897000  1
  Al  Al53  1  0.50687000  0.68316900  0.31897000  1
  Al  Al54  1  0.50687000  0.18316900  0.93103000  1
  Al  Al55  1  0.81683100  0.00687000  0.18103000  1
  Al  Al56  1  0.49313000  0.81683100  0.93103000  1
  Al  Al57  1  0.68316900  0.99313000  0.56897000  1
  Al  Al58  1  0.68316900  0.49313000  0.68103000  1
  Al  Al59  1  0.81683100  0.50687000  0.06897000  1
  Al  Al60  1  0.99313000  0.81683100  0.81897000  1
  Al  Al61  1  0.00687000  0.18316900  0.81897000  1
  Al  Al62  1  0.00687000  0.68316900  0.43103000  1
  Al  Al63  1  0.31683100  0.50687000  0.68103000  1
  Ni  Ni64  1  0.73777950  0.25475350  0.18729950  1
  Ni  Ni65  1  0.24524650  0.73777950  0.93729950  1
  Ni  Ni66  1  0.24524650  0.23777950  0.31270050  1
  Ni  Ni67  1  0.23777950  0.25475350  0.56270050  1
  Ni  Ni68  1  0.26222050  0.24524650  0.06270050  1
  Ni  Ni69  1  0.25475350  0.26222050  0.81270050  1
  Ni  Ni70  1  0.25475350  0.76222050  0.43729950  1
  Ni  Ni71  1  0.76222050  0.24524650  0.68729950  1
  Ni  Ni72  1  0.23777950  0.75475350  0.68729950  1
  Ni  Ni73  1  0.74524650  0.23777950  0.43729950  1
  Ni  Ni74  1  0.74524650  0.73777950  0.81270050  1
  Ni  Ni75  1  0.73777950  0.75475350  0.06270050  1
  Ni  Ni76  1  0.76222050  0.74524650  0.56270050  1
  Ni  Ni77  1  0.75475350  0.76222050  0.31270050  1
  Ni  Ni78  1  0.75475350  0.26222050  0.93729950  1
  Ni  Ni79  1  0.26222050  0.74524650  0.18729950  1
  O  O80  1  0.84075400  0.40305600  0.42766500  1
  O  O81  1  0.90305600  0.15924600  0.17766500  1
  O  O82  1  0.91834650  0.15748850  0.43596150  1
  O  O83  1  0.93027050  0.16002650  0.70628050  1
  O  O84  1  0.06972950  0.33997350  0.54371950  1
  O  O85  1  0.07780500  0.32586600  0.32125700  1
  O  O86  1  0.09694400  0.34075400  0.07233500  1
  O  O87  1  0.16002650  0.06972950  0.29371950  1
  O  O88  1  0.16002650  0.56972950  0.95628050  1
  O  O89  1  0.15924600  0.09694400  0.82233500  1
  O  O90  1  0.17413400  0.07780500  0.07125700  1
  O  O91  1  0.17413400  0.57780500  0.17874300  1
  O  O92  1  0.15748850  0.08165350  0.56403850  1
  O  O93  1  0.34251150  0.91834650  0.18596150  1
  O  O94  1  0.34251150  0.41834650  0.06403850  1
  O  O95  1  0.82586600  0.42219500  0.17874300  1
  O  O96  1  0.34075400  0.40305600  0.32233500  1
  O  O97  1  0.33997350  0.93027050  0.45628050  1
  O  O98  1  0.33997350  0.43027050  0.79371950  1
  O  O99  1  0.40305600  0.15924600  0.57233500  1
  O  O100  1  0.41834650  0.15748850  0.31403850  1
  O  O101  1  0.42219500  0.67413400  0.42874300  1
  O  O102  1  0.92219500  0.67413400  0.32125700  1
  O  O103  1  0.43027050  0.16002650  0.04371950  1
  O  O104  1  0.56972950  0.33997350  0.20628050  1
  O  O105  1  0.07780500  0.82586600  0.92874300  1
  O  O106  1  0.58165350  0.34251150  0.93596150  1
  O  O107  1  0.58165350  0.84251150  0.31403850  1
  O  O108  1  0.59694400  0.34075400  0.67766500  1
  O  O109  1  0.65924600  0.09694400  0.92766500  1
  O  O110  1  0.65748850  0.08165350  0.18596150  1
  O  O111  1  0.32586600  0.42219500  0.57125700  1
  O  O112  1  0.34075400  0.90305600  0.92766500  1
  O  O113  1  0.40305600  0.65924600  0.67766500  1
  O  O114  1  0.41834650  0.65748850  0.93596150  1
  O  O115  1  0.43027050  0.66002650  0.20628050  1
  O  O116  1  0.56972950  0.83997350  0.04371950  1
  O  O117  1  0.57780500  0.82586600  0.82125700  1
  O  O118  1  0.59694400  0.84075400  0.57233500  1
  O  O119  1  0.66002650  0.56972950  0.79371950  1
  O  O120  1  0.66002650  0.06972950  0.45628050  1
  O  O121  1  0.65924600  0.59694400  0.32233500  1
  O  O122  1  0.67413400  0.57780500  0.57125700  1
  O  O123  1  0.67413400  0.07780500  0.67874300  1
  O  O124  1  0.65748850  0.58165350  0.06403850  1
  O  O125  1  0.84251150  0.41834650  0.68596150  1
  O  O126  1  0.84251150  0.91834650  0.56403850  1
  O  O127  1  0.32586600  0.92219500  0.67874300  1
  O  O128  1  0.84075400  0.90305600  0.82233500  1
  O  O129  1  0.83997350  0.43027050  0.95628050  1
  O  O130  1  0.83997350  0.93027050  0.29371950  1
  O  O131  1  0.90305600  0.65924600  0.07233500  1
  O  O132  1  0.91834650  0.65748850  0.81403850  1
  O  O133  1  0.92219500  0.17413400  0.92874300  1
  O  O134  1  0.42219500  0.17413400  0.82125700  1
  O  O135  1  0.93027050  0.66002650  0.54371950  1
  O  O136  1  0.06972950  0.83997350  0.70628050  1
  O  O137  1  0.57780500  0.32586600  0.42874300  1
  O  O138  1  0.08165350  0.84251150  0.43596150  1
  O  O139  1  0.08165350  0.34251150  0.81403850  1
  O  O140  1  0.09694400  0.84075400  0.17766500  1
  O  O141  1  0.15924600  0.59694400  0.42766500  1
  O  O142  1  0.15748850  0.58165350  0.68596150  1
  O  O143  1  0.82586600  0.92219500  0.07125700  1
