# generated using pymatgen
data_Y2TeO6
_symmetry_space_group_name_H-M   'P 1'
_cell_length_a   9.21016760
_cell_length_b   9.21016760
_cell_length_c   5.21771900
_cell_angle_alpha   90.00000000
_cell_angle_beta   90.00000000
_cell_angle_gamma   120.00000000
_symmetry_Int_Tables_number   1
_chemical_formula_structural   Y2TeO6
_chemical_formula_sum   'Y6 Te3 O18'
_cell_volume   383.30667721
_cell_formula_units_Z   3
loop_
 _symmetry_equiv_pos_site_id
 _symmetry_equiv_pos_as_xyz
  1  'x, y, z'
loop_
 _atom_site_type_symbol
 _atom_site_label
 _atom_site_symmetry_multiplicity
 _atom_site_fract_x
 _atom_site_fract_y
 _atom_site_fract_z
 _atom_site_occupancy
  Y  Y0  1  0.00000000  0.62180250  0.00000000  1
  Y  Y1  1  0.00000000  0.28420650  0.50000000  1
  Y  Y2  1  0.37819750  0.37819750  0.00000000  1
  Y  Y3  1  0.28420650  0.00000000  0.50000000  1
  Y  Y4  1  0.71579350  0.71579350  0.50000000  1
  Y  Y5  1  0.62180250  0.00000000  0.00000000  1
  Te  Te6  1  0.33333333  0.66666667  0.50549100  1
  Te  Te7  1  0.00000000  0.00000000  0.00000000  1
  Te  Te8  1  0.66666667  0.33333333  0.49450900  1
  O  O9  1  0.07986433  0.87986767  0.78970300  1
  O  O10  1  0.22237633  0.75763267  0.29280300  1
  O  O11  1  0.13342333  0.54285367  0.71907200  1
  O  O12  1  0.40943033  0.86657667  0.71907200  1
  O  O13  1  0.24236733  0.46474367  0.29280300  1
  O  O14  1  0.12013233  0.19999667  0.78970300  1
  O  O15  1  0.19999667  0.12013233  0.21029700  1
  O  O16  1  0.53525633  0.77762367  0.29280300  1
  O  O17  1  0.45714633  0.59056967  0.71907200  1
  O  O18  1  0.80000333  0.92013567  0.78970300  1
  O  O19  1  0.46474367  0.24236733  0.70719700  1
  O  O20  1  0.59056967  0.45714633  0.28092800  1
  O  O21  1  0.54285367  0.13342333  0.28092800  1
  O  O22  1  0.77762367  0.53525633  0.70719700  1
  O  O23  1  0.92013567  0.80000333  0.21029700  1
  O  O24  1  0.75763267  0.22237633  0.70719700  1
  O  O25  1  0.86657667  0.40943033  0.28092800  1
  O  O26  1  0.87986767  0.07986433  0.21029700  1
