# generated using pymatgen
data_NaPH7O6
_symmetry_space_group_name_H-M   'P 1'
_cell_length_a   14.09054400
_cell_length_b   7.04167000
_cell_length_c   12.83319740
_cell_angle_alpha   90.00000000
_cell_angle_beta   116.07449731
_cell_angle_gamma   90.00000000
_symmetry_Int_Tables_number   1
_chemical_formula_structural   NaPH7O6
_chemical_formula_sum   'Na8 P8 H56 O48'
_cell_volume   1143.72765710
_cell_formula_units_Z   8
loop_
 _symmetry_equiv_pos_site_id
 _symmetry_equiv_pos_as_xyz
  1  'x, y, z'
loop_
 _atom_site_type_symbol
 _atom_site_label
 _atom_site_symmetry_multiplicity
 _atom_site_fract_x
 _atom_site_fract_y
 _atom_site_fract_z
 _atom_site_occupancy
  Na  Na0  1  0.76372150  0.61636150  0.76398800  1
  Na  Na1  1  0.73627850  0.11636150  0.73601200  1
  Na  Na2  1  0.23627850  0.38363850  0.23601200  1
  Na  Na3  1  0.26372150  0.88363850  0.26398800  1
  Na  Na4  1  0.26372150  0.11636150  0.76398800  1
  Na  Na5  1  0.23627850  0.61636150  0.73601200  1
  Na  Na6  1  0.73627850  0.88363850  0.23601200  1
  Na  Na7  1  0.76372150  0.38363850  0.26398800  1
  P  P8  1  0.50136400  0.35833900  0.83765300  1
  P  P9  1  0.49863600  0.35833900  0.66234700  1
  P  P10  1  0.49863600  0.64166100  0.16234700  1
  P  P11  1  0.50136400  0.64166100  0.33765300  1
  P  P12  1  0.00136400  0.85833900  0.83765300  1
  P  P13  1  0.99863600  0.85833900  0.66234700  1
  P  P14  1  0.99863600  0.14166100  0.16234700  1
  P  P15  1  0.00136400  0.14166100  0.33765300  1
  H  H16  1  0.79586900  0.92886900  0.94820800  1
  H  H17  1  0.70413100  0.42886900  0.55179200  1
  H  H18  1  0.20413100  0.07113100  0.05179200  1
  H  H19  1  0.29586900  0.57113100  0.44820800  1
  H  H20  1  0.72095600  0.36931400  0.90079500  1
  H  H21  1  0.77904400  0.86931400  0.59920500  1
  H  H22  1  0.27904400  0.63068600  0.09920500  1
  H  H23  1  0.22095600  0.13068600  0.40079500  1
  H  H24  1  0.50896400  0.96683200  0.88640000  1
  H  H25  1  0.49103600  0.96683200  0.61360000  1
  H  H26  1  0.49103600  0.03316800  0.11360000  1
  H  H27  1  0.50896400  0.03316800  0.38640000  1
  H  H28  1  0.67708900  0.86393000  0.89587900  1
  H  H29  1  0.32291100  0.86393000  0.60412100  1
  H  H30  1  0.32291100  0.13607000  0.10412100  1
  H  H31  1  0.67708900  0.13607000  0.39587900  1
  H  H32  1  0.56021600  0.83438600  0.99668600  1
  H  H33  1  0.43978400  0.83438600  0.50331400  1
  H  H34  1  0.43978400  0.16561400  0.00331400  1
  H  H35  1  0.56021600  0.16561400  0.49668600  1
  H  H36  1  0.83344950  0.27970050  0.95343200  1
  H  H37  1  0.66655050  0.77970050  0.54656800  1
  H  H38  1  0.16655050  0.72029950  0.04656800  1
  H  H39  1  0.33344950  0.22029950  0.45343200  1
  H  H40  1  0.47364650  0.66408150  0.85816300  1
  H  H41  1  0.52635350  0.66408150  0.64183700  1
  H  H42  1  0.52635350  0.33591850  0.14183700  1
  H  H43  1  0.47364650  0.33591850  0.35816300  1
  H  H44  1  0.29586900  0.42886900  0.94820800  1
  H  H45  1  0.20413100  0.92886900  0.55179200  1
  H  H46  1  0.70413100  0.57113100  0.05179200  1
  H  H47  1  0.79586900  0.07113100  0.44820800  1
  H  H48  1  0.22095600  0.86931400  0.90079500  1
  H  H49  1  0.27904400  0.36931400  0.59920500  1
  H  H50  1  0.77904400  0.13068600  0.09920500  1
  H  H51  1  0.72095600  0.63068600  0.40079500  1
  H  H52  1  0.00896400  0.46683200  0.88640000  1
  H  H53  1  0.99103600  0.46683200  0.61360000  1
  H  H54  1  0.99103600  0.53316800  0.11360000  1
  H  H55  1  0.00896400  0.53316800  0.38640000  1
  H  H56  1  0.17708900  0.36393000  0.89587900  1
  H  H57  1  0.82291100  0.36393000  0.60412100  1
  H  H58  1  0.82291100  0.63607000  0.10412100  1
  H  H59  1  0.17708900  0.63607000  0.39587900  1
  H  H60  1  0.06021600  0.33438600  0.99668600  1
  H  H61  1  0.93978400  0.33438600  0.50331400  1
  H  H62  1  0.93978400  0.66561400  0.00331400  1
  H  H63  1  0.06021600  0.66561400  0.49668600  1
  H  H64  1  0.33344950  0.77970050  0.95343200  1
  H  H65  1  0.16655050  0.27970050  0.54656800  1
  H  H66  1  0.66655050  0.22029950  0.04656800  1
  H  H67  1  0.83344950  0.72029950  0.45343200  1
  H  H68  1  0.97364650  0.16408150  0.85816300  1
  H  H69  1  0.02635350  0.16408150  0.64183700  1
  H  H70  1  0.02635350  0.83591850  0.14183700  1
  H  H71  1  0.97364650  0.83591850  0.35816300  1
  O  O72  1  0.61417900  0.38850000  0.93054500  1
  O  O73  1  0.38582100  0.38850000  0.56945500  1
  O  O74  1  0.38582100  0.61150000  0.06945500  1
  O  O75  1  0.61417900  0.61150000  0.43054500  1
  O  O76  1  0.44548650  0.18342850  0.85429800  1
  O  O77  1  0.55451350  0.18342850  0.64570200  1
  O  O78  1  0.55451350  0.81657150  0.14570200  1
  O  O79  1  0.44548650  0.81657150  0.35429800  1
  O  O80  1  0.43011950  0.54127050  0.82785100  1
  O  O81  1  0.56988050  0.54127050  0.67214900  1
  O  O82  1  0.56988050  0.45872950  0.17214900  1
  O  O83  1  0.43011950  0.45872950  0.32785100  1
  O  O84  1  0.73818650  0.87461350  0.87817700  1
  O  O85  1  0.76181350  0.37461350  0.62182300  1
  O  O86  1  0.26181350  0.12538650  0.12182300  1
  O  O87  1  0.23818650  0.62538650  0.37817700  1
  O  O88  1  0.78358350  0.35177050  0.88498400  1
  O  O89  1  0.71641650  0.85177050  0.61501600  1
  O  O90  1  0.21641650  0.64822950  0.11501600  1
  O  O91  1  0.28358350  0.14822950  0.38498400  1
  O  O92  1  0.54446650  0.84070550  0.91370000  1
  O  O93  1  0.45553350  0.84070550  0.58630000  1
  O  O94  1  0.45553350  0.15929450  0.08630000  1
  O  O95  1  0.54446650  0.15929450  0.41370000  1
  O  O96  1  0.11417900  0.88850000  0.93054500  1
  O  O97  1  0.88582100  0.88850000  0.56945500  1
  O  O98  1  0.88582100  0.11150000  0.06945500  1
  O  O99  1  0.11417900  0.11150000  0.43054500  1
  O  O100  1  0.94548650  0.68342850  0.85429800  1
  O  O101  1  0.05451350  0.68342850  0.64570200  1
  O  O102  1  0.05451350  0.31657150  0.14570200  1
  O  O103  1  0.94548650  0.31657150  0.35429800  1
  O  O104  1  0.93011950  0.04127050  0.82785100  1
  O  O105  1  0.06988050  0.04127050  0.67214900  1
  O  O106  1  0.06988050  0.95872950  0.17214900  1
  O  O107  1  0.93011950  0.95872950  0.32785100  1
  O  O108  1  0.23818650  0.37461350  0.87817700  1
  O  O109  1  0.26181350  0.87461350  0.62182300  1
  O  O110  1  0.76181350  0.62538650  0.12182300  1
  O  O111  1  0.73818650  0.12538650  0.37817700  1
  O  O112  1  0.28358350  0.85177050  0.88498400  1
  O  O113  1  0.21641650  0.35177050  0.61501600  1
  O  O114  1  0.71641650  0.14822950  0.11501600  1
  O  O115  1  0.78358350  0.64822950  0.38498400  1
  O  O116  1  0.04446650  0.34070550  0.91370000  1
  O  O117  1  0.95553350  0.34070550  0.58630000  1
  O  O118  1  0.95553350  0.65929450  0.08630000  1
  O  O119  1  0.04446650  0.65929450  0.41370000  1
