# generated using pymatgen
data_CrH17N4Cl2O3
_symmetry_space_group_name_H-M   'P 1'
_cell_length_a   9.52033900
_cell_length_b   10.20360900
_cell_length_c   13.30824047
_cell_angle_alpha   90.00000000
_cell_angle_beta   126.48900706
_cell_angle_gamma   90.00000000
_symmetry_Int_Tables_number   1
_chemical_formula_structural   CrH17N4Cl2O3
_chemical_formula_sum   'Cr4 H68 N16 Cl8 O12'
_cell_volume   1039.36294217
_cell_formula_units_Z   4
loop_
 _symmetry_equiv_pos_site_id
 _symmetry_equiv_pos_as_xyz
  1  'x, y, z'
loop_
 _atom_site_type_symbol
 _atom_site_label
 _atom_site_symmetry_multiplicity
 _atom_site_fract_x
 _atom_site_fract_y
 _atom_site_fract_z
 _atom_site_occupancy
  Cr  Cr0  1  0.14778900  0.57041000  0.61947100  1
  Cr  Cr1  1  0.14778900  0.92959000  0.11947100  1
  Cr  Cr2  1  0.85221100  0.42959000  0.38052900  1
  Cr  Cr3  1  0.85221100  0.07041000  0.88052900  1
  H  H4  1  0.05908200  0.61278100  0.39806300  1
  H  H5  1  0.05908200  0.88721900  0.89806300  1
  H  H6  1  0.94091800  0.38721900  0.60193700  1
  H  H7  1  0.94091800  0.11278100  0.10193700  1
  H  H8  1  0.21358700  0.79856600  0.56361900  1
  H  H9  1  0.21358700  0.70143400  0.06361900  1
  H  H10  1  0.78641300  0.20143400  0.43638100  1
  H  H11  1  0.78641300  0.29856600  0.93638100  1
  H  H12  1  0.28532800  0.80404900  0.71269000  1
  H  H13  1  0.28532800  0.69595100  0.21269000  1
  H  H14  1  0.71467200  0.19595100  0.28731000  1
  H  H15  1  0.71467200  0.30404900  0.78731000  1
  H  H16  1  0.40679200  0.73651200  0.67511500  1
  H  H17  1  0.40679200  0.76348800  0.17511500  1
  H  H18  1  0.59320800  0.26348800  0.32488500  1
  H  H19  1  0.59320800  0.23651200  0.82488500  1
  H  H20  1  0.41533600  0.57668600  0.86123100  1
  H  H21  1  0.41533600  0.92331400  0.36123100  1
  H  H22  1  0.58466400  0.42331400  0.13876900  1
  H  H23  1  0.58466400  0.07668600  0.63876900  1
  H  H24  1  0.22964600  0.57068500  0.84780700  1
  H  H25  1  0.22964600  0.92931500  0.34780700  1
  H  H26  1  0.77035400  0.42931500  0.15219300  1
  H  H27  1  0.77035400  0.07068500  0.65219300  1
  H  H28  1  0.31233600  0.43545900  0.83140300  1
  H  H29  1  0.31233600  0.06454100  0.33140300  1
  H  H30  1  0.68766400  0.56454100  0.16859700  1
  H  H31  1  0.68766400  0.93545900  0.66859700  1
  H  H32  1  0.90578700  0.61852600  0.65416400  1
  H  H33  1  0.90578700  0.88147400  0.15416400  1
  H  H34  1  0.09421300  0.38147400  0.34583600  1
  H  H35  1  0.09421300  0.11852600  0.84583600  1
  H  H36  1  0.04633900  0.74217500  0.71287400  1
  H  H37  1  0.04633900  0.75782500  0.21287400  1
  H  H38  1  0.95366100  0.25782500  0.28712600  1
  H  H39  1  0.95366100  0.24217500  0.78712600  1
  H  H40  1  0.88980500  0.73559800  0.56043600  1
  H  H41  1  0.88980500  0.76440200  0.06043600  1
  H  H42  1  0.11019500  0.26440200  0.43956400  1
  H  H43  1  0.11019500  0.23559800  0.93956400  1
  H  H44  1  0.33483700  0.48623000  0.54659500  1
  H  H45  1  0.33483700  0.01377000  0.04659500  1
  H  H46  1  0.66516300  0.51377000  0.45340500  1
  H  H47  1  0.66516300  0.98623000  0.95340500  1
  H  H48  1  0.46296100  0.49083100  0.70113600  1
  H  H49  1  0.46296100  0.00916900  0.20113600  1
  H  H50  1  0.53703900  0.50916900  0.29886400  1
  H  H51  1  0.53703900  0.99083100  0.79886400  1
  H  H52  1  0.32658600  0.36472500  0.62792300  1
  H  H53  1  0.32658600  0.13527500  0.12792300  1
  H  H54  1  0.67341400  0.63527500  0.37207700  1
  H  H55  1  0.67341400  0.86472500  0.87207700  1
  H  H56  1  0.12715600  0.98796100  0.46557900  1
  H  H57  1  0.12715600  0.51203900  0.96557900  1
  H  H58  1  0.87284400  0.01203900  0.53442100  1
  H  H59  1  0.87284400  0.48796100  0.03442100  1
  H  H60  1  0.95894700  0.89919900  0.39258100  1
  H  H61  1  0.95894700  0.60080100  0.89258100  1
  H  H62  1  0.04105300  0.10080100  0.60741900  1
  H  H63  1  0.04105300  0.39919900  0.10741900  1
  H  H64  1  0.51678200  0.71061500  0.53926000  1
  H  H65  1  0.51678200  0.78938500  0.03926000  1
  H  H66  1  0.48321800  0.28938500  0.46074000  1
  H  H67  1  0.48321800  0.21061500  0.96074000  1
  H  H68  1  0.65461200  0.68517200  0.68260900  1
  H  H69  1  0.65461200  0.81482800  0.18260900  1
  H  H70  1  0.34538800  0.31482800  0.31739100  1
  H  H71  1  0.34538800  0.18517200  0.81739100  1
  N  N72  1  0.28098600  0.74692700  0.64684400  1
  N  N73  1  0.28098600  0.75307300  0.14684400  1
  N  N74  1  0.71901400  0.25307300  0.35315600  1
  N  N75  1  0.71901400  0.24692700  0.85315600  1
  N  N76  1  0.29346300  0.53472500  0.81297400  1
  N  N77  1  0.29346300  0.96527500  0.31297400  1
  N  N78  1  0.70653700  0.46527500  0.18702600  1
  N  N79  1  0.70653700  0.03472500  0.68702600  1
  N  N80  1  0.97623400  0.67905500  0.63802300  1
  N  N81  1  0.97623400  0.82094500  0.13802300  1
  N  N82  1  0.02376600  0.32094500  0.36197700  1
  N  N83  1  0.02376600  0.17905500  0.86197700  1
  N  N84  1  0.34064600  0.46468000  0.62447900  1
  N  N85  1  0.34064600  0.03532000  0.12447900  1
  N  N86  1  0.65935400  0.53532000  0.37552100  1
  N  N87  1  0.65935400  0.96468000  0.87552100  1
  Cl  Cl88  1  0.27038700  0.60266800  0.36765800  1
  Cl  Cl89  1  0.27038700  0.89733200  0.86765800  1
  Cl  Cl90  1  0.72961300  0.39733200  0.63234200  1
  Cl  Cl91  1  0.72961300  0.10266800  0.13234200  1
  Cl  Cl92  1  0.70047900  0.62429100  0.88095200  1
  Cl  Cl93  1  0.70047900  0.87570900  0.38095200  1
  Cl  Cl94  1  0.29952100  0.37570900  0.11904800  1
  Cl  Cl95  1  0.29952100  0.12429100  0.61904800  1
  O  O96  1  0.99450200  0.59389300  0.43296000  1
  O  O97  1  0.99450200  0.90610700  0.93296000  1
  O  O98  1  0.00549800  0.40610700  0.56704000  1
  O  O99  1  0.00549800  0.09389300  0.06704000  1
  O  O100  1  0.07505100  0.90953200  0.41130700  1
  O  O101  1  0.07505100  0.59046800  0.91130700  1
  O  O102  1  0.92494900  0.09046800  0.58869300  1
  O  O103  1  0.92494900  0.40953200  0.08869300  1
  O  O104  1  0.60597900  0.75423000  0.61898100  1
  O  O105  1  0.60597900  0.74577000  0.11898100  1
  O  O106  1  0.39402100  0.24577000  0.38101900  1
  O  O107  1  0.39402100  0.25423000  0.88101900  1
