# generated using pymatgen
data_Sr2Ti6N2O11
_symmetry_space_group_name_H-M   'P 1'
_cell_length_a   14.98041200
_cell_length_b   3.87929200
_cell_length_c   9.27398300
_cell_angle_alpha   90.00000000
_cell_angle_beta   98.70687963
_cell_angle_gamma   90.00000000
_symmetry_Int_Tables_number   1
_chemical_formula_structural   Sr2Ti6N2O11
_chemical_formula_sum   'Sr4 Ti12 N4 O22'
_cell_volume   532.73168652
_cell_formula_units_Z   2
loop_
 _symmetry_equiv_pos_site_id
 _symmetry_equiv_pos_as_xyz
  1  'x, y, z'
loop_
 _atom_site_type_symbol
 _atom_site_label
 _atom_site_symmetry_multiplicity
 _atom_site_fract_x
 _atom_site_fract_y
 _atom_site_fract_z
 _atom_site_occupancy
  Sr  Sr0  1  0.54508100  0.00000000  0.77416300  1
  Sr  Sr1  1  0.94874700  0.50000000  0.23579100  1
  Sr  Sr2  1  0.04508100  0.50000000  0.77416300  1
  Sr  Sr3  1  0.44874700  0.00000000  0.23579100  1
  Ti  Ti4  1  0.61722200  0.50000000  0.09771100  1
  Ti  Ti5  1  0.66996900  0.50000000  0.43823900  1
  Ti  Ti6  1  0.73353400  0.50000000  0.76587900  1
  Ti  Ti7  1  0.75207900  0.00000000  0.23076900  1
  Ti  Ti8  1  0.83462400  0.00000000  0.55204000  1
  Ti  Ti9  1  0.87774400  0.00000000  0.91022600  1
  Ti  Ti10  1  0.11722200  0.00000000  0.09771100  1
  Ti  Ti11  1  0.16996900  0.00000000  0.43823900  1
  Ti  Ti12  1  0.23353400  0.00000000  0.76587900  1
  Ti  Ti13  1  0.25207900  0.50000000  0.23076900  1
  Ti  Ti14  1  0.33462400  0.50000000  0.55204000  1
  Ti  Ti15  1  0.37774400  0.50000000  0.91022600  1
  N  N16  1  0.63840000  0.00000000  0.10857000  1
  N  N17  1  0.70597900  0.00000000  0.42524000  1
  N  N18  1  0.13840000  0.50000000  0.10857000  1
  N  N19  1  0.20597900  0.50000000  0.42524000  1
  O  O20  1  0.56851900  0.50000000  0.29143200  1
  O  O21  1  0.62610100  0.50000000  0.61624500  1
  O  O22  1  0.66003200  0.50000000  0.90170800  1
  O  O23  1  0.75656100  0.00000000  0.76277700  1
  O  O24  1  0.74604600  0.50000000  0.23922800  1
  O  O25  1  0.80177400  0.50000000  0.57436600  1
  O  O26  1  0.85928300  0.50000000  0.88544100  1
  O  O27  1  0.84303100  0.00000000  0.09526600  1
  O  O28  1  0.88496600  0.00000000  0.38854200  1
  O  O29  1  0.93108900  0.00000000  0.71130400  1
  O  O30  1  0.99921800  0.00000000  0.99505900  1
  O  O31  1  0.06851900  0.00000000  0.29143200  1
  O  O32  1  0.12610100  0.00000000  0.61624500  1
  O  O33  1  0.16003200  0.00000000  0.90170800  1
  O  O34  1  0.25656100  0.50000000  0.76277700  1
  O  O35  1  0.24604600  0.00000000  0.23922800  1
  O  O36  1  0.30177400  0.00000000  0.57436600  1
  O  O37  1  0.35928300  0.00000000  0.88544100  1
  O  O38  1  0.34303100  0.50000000  0.09526600  1
  O  O39  1  0.38496600  0.50000000  0.38854200  1
  O  O40  1  0.43108900  0.50000000  0.71130400  1
  O  O41  1  0.49921800  0.50000000  0.99505900  1
