# generated using pymatgen
data_Li2VH2OF5
_symmetry_space_group_name_H-M   'P 1'
_cell_length_a   9.56886965
_cell_length_b   6.33748059
_cell_length_c   7.87356490
_cell_angle_alpha   90.00000000
_cell_angle_beta   94.65854786
_cell_angle_gamma   90.00000000
_symmetry_Int_Tables_number   1
_chemical_formula_structural   Li2VH2OF5
_chemical_formula_sum   'Li8 V4 H8 O4 F20'
_cell_volume   475.89548550
_cell_formula_units_Z   4
loop_
 _symmetry_equiv_pos_site_id
 _symmetry_equiv_pos_as_xyz
  1  'x, y, z'
loop_
 _atom_site_type_symbol
 _atom_site_label
 _atom_site_symmetry_multiplicity
 _atom_site_fract_x
 _atom_site_fract_y
 _atom_site_fract_z
 _atom_site_occupancy
  Li  Li0  1  0.23002300  0.48963650  0.50217650  1
  Li  Li1  1  0.23002300  0.51036350  0.00217650  1
  Li  Li2  1  0.76997700  0.48963650  0.99782350  1
  Li  Li3  1  0.76997700  0.51036350  0.49782350  1
  Li  Li4  1  0.73002300  0.98963650  0.50217650  1
  Li  Li5  1  0.73002300  0.01036350  0.00217650  1
  Li  Li6  1  0.26997700  0.98963650  0.99782350  1
  Li  Li7  1  0.26997700  0.01036350  0.49782350  1
  V  V8  1  0.00000000  0.22864000  0.75000000  1
  V  V9  1  0.00000000  0.77136000  0.25000000  1
  V  V10  1  0.50000000  0.72864000  0.75000000  1
  V  V11  1  0.50000000  0.27136000  0.25000000  1
  H  H12  1  0.03503625  0.82383225  0.65949600  1
  H  H13  1  0.03503625  0.17616775  0.15949600  1
  H  H14  1  0.96496375  0.82383225  0.84050400  1
  H  H15  1  0.96496375  0.17616775  0.34050400  1
  H  H16  1  0.53503625  0.32383225  0.65949600  1
  H  H17  1  0.53503625  0.67616775  0.15949600  1
  H  H18  1  0.46496375  0.32383225  0.84050400  1
  H  H19  1  0.46496375  0.67616775  0.34050400  1
  O  O20  1  0.00000000  0.91351275  0.75000000  1
  O  O21  1  0.00000000  0.08648725  0.25000000  1
  O  O22  1  0.50000000  0.41351275  0.75000000  1
  O  O23  1  0.50000000  0.58648725  0.25000000  1
  F  F24  1  0.00000000  0.52487800  0.75000000  1
  F  F25  1  0.00000000  0.47512200  0.25000000  1
  F  F26  1  0.17541500  0.22847750  0.62867450  1
  F  F27  1  0.17541500  0.77152250  0.12867450  1
  F  F28  1  0.82458500  0.22847750  0.87132550  1
  F  F29  1  0.82458500  0.77152250  0.37132550  1
  F  F30  1  0.11620350  0.22658450  0.97391000  1
  F  F31  1  0.11620350  0.77341550  0.47391000  1
  F  F32  1  0.88379650  0.22658450  0.52609000  1
  F  F33  1  0.88379650  0.77341550  0.02609000  1
  F  F34  1  0.50000000  0.02487800  0.75000000  1
  F  F35  1  0.50000000  0.97512200  0.25000000  1
  F  F36  1  0.67541500  0.72847750  0.62867450  1
  F  F37  1  0.67541500  0.27152250  0.12867450  1
  F  F38  1  0.32458500  0.72847750  0.87132550  1
  F  F39  1  0.32458500  0.27152250  0.37132550  1
  F  F40  1  0.61620350  0.72658450  0.97391000  1
  F  F41  1  0.61620350  0.27341550  0.47391000  1
  F  F42  1  0.38379650  0.72658450  0.52609000  1
  F  F43  1  0.38379650  0.27341550  0.02609000  1
