# generated using pymatgen
data_Ca3B6(H4O5)4
_symmetry_space_group_name_H-M   'P 1'
_cell_length_a   13.19616600
_cell_length_b   9.59684000
_cell_length_c   13.62194827
_cell_angle_alpha   90.00000000
_cell_angle_beta   118.84537022
_cell_angle_gamma   90.00000000
_symmetry_Int_Tables_number   1
_chemical_formula_structural   Ca3B6(H4O5)4
_chemical_formula_sum   'Ca12 B24 H64 O80'
_cell_volume   1511.06148128
_cell_formula_units_Z   4
loop_
 _symmetry_equiv_pos_site_id
 _symmetry_equiv_pos_as_xyz
  1  'x, y, z'
loop_
 _atom_site_type_symbol
 _atom_site_label
 _atom_site_symmetry_multiplicity
 _atom_site_fract_x
 _atom_site_fract_y
 _atom_site_fract_z
 _atom_site_occupancy
  Ca  Ca0  1  0.50000000  0.74873600  0.75000000  1
  Ca  Ca1  1  0.00000000  0.75126400  0.25000000  1
  Ca  Ca2  1  0.33840100  0.90900700  0.06946100  1
  Ca  Ca3  1  0.66159900  0.90900700  0.43053900  1
  Ca  Ca4  1  0.16159900  0.59099300  0.93053900  1
  Ca  Ca5  1  0.83840100  0.59099300  0.56946100  1
  Ca  Ca6  1  0.00000000  0.24873600  0.75000000  1
  Ca  Ca7  1  0.50000000  0.25126400  0.25000000  1
  Ca  Ca8  1  0.83840100  0.40900700  0.06946100  1
  Ca  Ca9  1  0.16159900  0.40900700  0.43053900  1
  Ca  Ca10  1  0.66159900  0.09099300  0.93053900  1
  Ca  Ca11  1  0.33840100  0.09099300  0.56946100  1
  B  B12  1  0.76088300  0.83790500  0.66799600  1
  B  B13  1  0.73911700  0.33790500  0.83200400  1
  B  B14  1  0.73911700  0.66209500  0.33200400  1
  B  B15  1  0.76088300  0.16209500  0.16799600  1
  B  B16  1  0.09342950  0.47568850  0.65777400  1
  B  B17  1  0.90657050  0.47568850  0.84222600  1
  B  B18  1  0.40657050  0.02431150  0.34222600  1
  B  B19  1  0.59342950  0.02431150  0.15777400  1
  B  B20  1  0.74401400  0.84973300  0.84337300  1
  B  B21  1  0.75598600  0.34973300  0.65662700  1
  B  B22  1  0.75598600  0.65026700  0.15662700  1
  B  B23  1  0.74401400  0.15026700  0.34337300  1
  B  B24  1  0.26088300  0.33790500  0.66799600  1
  B  B25  1  0.23911700  0.83790500  0.83200400  1
  B  B26  1  0.23911700  0.16209500  0.33200400  1
  B  B27  1  0.26088300  0.66209500  0.16799600  1
  B  B28  1  0.59342950  0.97568850  0.65777400  1
  B  B29  1  0.40657050  0.97568850  0.84222600  1
  B  B30  1  0.90657050  0.52431150  0.34222600  1
  B  B31  1  0.09342950  0.52431150  0.15777400  1
  B  B32  1  0.24401400  0.34973300  0.84337300  1
  B  B33  1  0.25598600  0.84973300  0.65662700  1
  B  B34  1  0.25598600  0.15026700  0.15662700  1
  B  B35  1  0.24401400  0.65026700  0.34337300  1
  H  H36  1  0.80500150  0.15386850  0.51280500  1
  H  H37  1  0.69499850  0.65386850  0.98719500  1
  H  H38  1  0.69499850  0.34613150  0.48719500  1
  H  H39  1  0.80500150  0.84613150  0.01280500  1
  H  H40  1  0.47523550  0.86534550  0.51792900  1
  H  H41  1  0.02476450  0.36534550  0.98207100  1
  H  H42  1  0.02476450  0.63465450  0.48207100  1
  H  H43  1  0.47523550  0.13465450  0.01792900  1
  H  H44  1  0.90610050  0.91006650  0.65801200  1
  H  H45  1  0.59389950  0.41006650  0.84198800  1
  H  H46  1  0.59389950  0.58993350  0.34198800  1
  H  H47  1  0.90610050  0.08993350  0.15801200  1
  H  H48  1  0.09610550  0.69734550  0.66638500  1
  H  H49  1  0.90389450  0.69734550  0.83361500  1
  H  H50  1  0.40389450  0.80265450  0.33361500  1
  H  H51  1  0.59610550  0.80265450  0.16638500  1
  H  H52  1  0.64160350  0.66983350  0.62836300  1
  H  H53  1  0.85839650  0.16983350  0.87163700  1
  H  H54  1  0.85839650  0.83016650  0.37163700  1
  H  H55  1  0.64160350  0.33016650  0.12836300  1
  H  H56  1  0.57639600  0.46711100  0.65729500  1
  H  H57  1  0.92360400  0.96711100  0.84270500  1
  H  H58  1  0.92360400  0.03288900  0.34270500  1
  H  H59  1  0.57639600  0.53288900  0.15729500  1
  H  H60  1  0.95489800  0.03856100  0.56441600  1
  H  H61  1  0.54510200  0.53856100  0.93558400  1
  H  H62  1  0.54510200  0.46143900  0.43558400  1
  H  H63  1  0.95489800  0.96143900  0.06441600  1
  H  H64  1  0.25348950  0.62736850  0.64399300  1
  H  H65  1  0.74651050  0.62736850  0.85600700  1
  H  H66  1  0.24651050  0.87263150  0.35600700  1
  H  H67  1  0.75348950  0.87263150  0.14399300  1
  H  H68  1  0.30500150  0.65386850  0.51280500  1
  H  H69  1  0.19499850  0.15386850  0.98719500  1
  H  H70  1  0.19499850  0.84613150  0.48719500  1
  H  H71  1  0.30500150  0.34613150  0.01280500  1
  H  H72  1  0.97523550  0.36534550  0.51792900  1
  H  H73  1  0.52476450  0.86534550  0.98207100  1
  H  H74  1  0.52476450  0.13465450  0.48207100  1
  H  H75  1  0.97523550  0.63465450  0.01792900  1
  H  H76  1  0.40610050  0.41006650  0.65801200  1
  H  H77  1  0.09389950  0.91006650  0.84198800  1
  H  H78  1  0.09389950  0.08993350  0.34198800  1
  H  H79  1  0.40610050  0.58993350  0.15801200  1
  H  H80  1  0.59610550  0.19734550  0.66638500  1
  H  H81  1  0.40389450  0.19734550  0.83361500  1
  H  H82  1  0.90389450  0.30265450  0.33361500  1
  H  H83  1  0.09610550  0.30265450  0.16638500  1
  H  H84  1  0.14160350  0.16983350  0.62836300  1
  H  H85  1  0.35839650  0.66983350  0.87163700  1
  H  H86  1  0.35839650  0.33016650  0.37163700  1
  H  H87  1  0.14160350  0.83016650  0.12836300  1
  H  H88  1  0.07639600  0.96711100  0.65729500  1
  H  H89  1  0.42360400  0.46711100  0.84270500  1
  H  H90  1  0.42360400  0.53288900  0.34270500  1
  H  H91  1  0.07639600  0.03288900  0.15729500  1
  H  H92  1  0.45489800  0.53856100  0.56441600  1
  H  H93  1  0.04510200  0.03856100  0.93558400  1
  H  H94  1  0.04510200  0.96143900  0.43558400  1
  H  H95  1  0.45489800  0.46143900  0.06441600  1
  H  H96  1  0.75348950  0.12736850  0.64399300  1
  H  H97  1  0.24651050  0.12736850  0.85600700  1
  H  H98  1  0.74651050  0.37263150  0.35600700  1
  H  H99  1  0.25348950  0.37263150  0.14399300  1
  O  O100  1  0.68128750  0.95908150  0.62117500  1
  O  O101  1  0.81871250  0.45908150  0.87882500  1
  O  O102  1  0.81871250  0.54091850  0.37882500  1
  O  O103  1  0.68128750  0.04091850  0.12117500  1
  O  O104  1  0.14064300  0.43934000  0.77815300  1
  O  O105  1  0.85935700  0.43934000  0.72184700  1
  O  O106  1  0.35935700  0.06066000  0.22184700  1
  O  O107  1  0.64064300  0.06066000  0.27815300  1
  O  O108  1  0.30876400  0.41037000  0.95841700  1
  O  O109  1  0.69123600  0.41037000  0.54158300  1
  O  O110  1  0.19123600  0.08963000  0.04158300  1
  O  O111  1  0.80876400  0.08963000  0.45841700  1
  O  O112  1  0.01004150  0.38074950  0.90489100  1
  O  O113  1  0.48995850  0.88074950  0.59510900  1
  O  O114  1  0.48995850  0.11925050  0.09510900  1
  O  O115  1  0.01004150  0.61925050  0.40489100  1
  O  O116  1  0.81828600  0.83977300  0.79140000  1
  O  O117  1  0.68171400  0.33977300  0.70860000  1
  O  O118  1  0.68171400  0.66022700  0.20860000  1
  O  O119  1  0.81828600  0.16022700  0.29140000  1
  O  O120  1  0.84582400  0.83923800  0.62613800  1
  O  O121  1  0.15417600  0.83923800  0.87386200  1
  O  O122  1  0.65417600  0.66076200  0.37386200  1
  O  O123  1  0.34582400  0.66076200  0.12613800  1
  O  O124  1  0.95831800  0.61699200  0.86816700  1
  O  O125  1  0.04168200  0.61699200  0.63183300  1
  O  O126  1  0.54168200  0.88300800  0.13183300  1
  O  O127  1  0.45831800  0.88300800  0.36816700  1
  O  O128  1  0.70269950  0.70503150  0.61472300  1
  O  O129  1  0.79730050  0.20503150  0.88527700  1
  O  O130  1  0.79730050  0.79496850  0.38527700  1
  O  O131  1  0.70269950  0.29496850  0.11472300  1
  O  O132  1  0.51834200  0.54274600  0.64328400  1
  O  O133  1  0.48165800  0.54274600  0.85671600  1
  O  O134  1  0.98165800  0.95725400  0.35671600  1
  O  O135  1  0.01834200  0.95725400  0.14328400  1
  O  O136  1  0.69947250  0.70886550  0.85482900  1
  O  O137  1  0.80052750  0.20886550  0.64517100  1
  O  O138  1  0.80052750  0.79113450  0.14517100  1
  O  O139  1  0.69947250  0.29113450  0.35482900  1
  O  O140  1  0.18128750  0.45908150  0.62117500  1
  O  O141  1  0.31871250  0.95908150  0.87882500  1
  O  O142  1  0.31871250  0.04091850  0.37882500  1
  O  O143  1  0.18128750  0.54091850  0.12117500  1
  O  O144  1  0.64064300  0.93934000  0.77815300  1
  O  O145  1  0.35935700  0.93934000  0.72184700  1
  O  O146  1  0.85935700  0.56066000  0.22184700  1
  O  O147  1  0.14064300  0.56066000  0.27815300  1
  O  O148  1  0.80876400  0.91037000  0.95841700  1
  O  O149  1  0.19123600  0.91037000  0.54158300  1
  O  O150  1  0.69123600  0.58963000  0.04158300  1
  O  O151  1  0.30876400  0.58963000  0.45841700  1
  O  O152  1  0.51004150  0.88074950  0.90489100  1
  O  O153  1  0.98995850  0.38074950  0.59510900  1
  O  O154  1  0.98995850  0.61925050  0.09510900  1
  O  O155  1  0.51004150  0.11925050  0.40489100  1
  O  O156  1  0.31828600  0.33977300  0.79140000  1
  O  O157  1  0.18171400  0.83977300  0.70860000  1
  O  O158  1  0.18171400  0.16022700  0.20860000  1
  O  O159  1  0.31828600  0.66022700  0.29140000  1
  O  O160  1  0.34582400  0.33923800  0.62613800  1
  O  O161  1  0.65417600  0.33923800  0.87386200  1
  O  O162  1  0.15417600  0.16076200  0.37386200  1
  O  O163  1  0.84582400  0.16076200  0.12613800  1
  O  O164  1  0.45831800  0.11699200  0.86816700  1
  O  O165  1  0.54168200  0.11699200  0.63183300  1
  O  O166  1  0.04168200  0.38300800  0.13183300  1
  O  O167  1  0.95831800  0.38300800  0.36816700  1
  O  O168  1  0.20269950  0.20503150  0.61472300  1
  O  O169  1  0.29730050  0.70503150  0.88527700  1
  O  O170  1  0.29730050  0.29496850  0.38527700  1
  O  O171  1  0.20269950  0.79496850  0.11472300  1
  O  O172  1  0.01834200  0.04274600  0.64328400  1
  O  O173  1  0.98165800  0.04274600  0.85671600  1
  O  O174  1  0.48165800  0.45725400  0.35671600  1
  O  O175  1  0.51834200  0.45725400  0.14328400  1
  O  O176  1  0.19947250  0.20886550  0.85482900  1
  O  O177  1  0.30052750  0.70886550  0.64517100  1
  O  O178  1  0.30052750  0.29113450  0.14517100  1
  O  O179  1  0.19947250  0.79113450  0.35482900  1
