# generated using pymatgen
data_SmTaO4
_symmetry_space_group_name_H-M   'P 1'
_cell_length_a   3.92906400
_cell_length_b   14.99781200
_cell_length_c   5.55232400
_cell_angle_alpha   90.00000000
_cell_angle_beta   90.00000000
_cell_angle_gamma   90.00000000
_symmetry_Int_Tables_number   1
_chemical_formula_structural   SmTaO4
_chemical_formula_sum   'Sm4 Ta4 O16'
_cell_volume   327.18381300
_cell_formula_units_Z   4
loop_
 _symmetry_equiv_pos_site_id
 _symmetry_equiv_pos_as_xyz
  1  'x, y, z'
loop_
 _atom_site_type_symbol
 _atom_site_label
 _atom_site_symmetry_multiplicity
 _atom_site_fract_x
 _atom_site_fract_y
 _atom_site_fract_z
 _atom_site_occupancy
  Sm  Sm0  1  0.50000000  0.68326300  0.86699300  1
  Sm  Sm1  1  0.00000000  0.81673700  0.36699300  1
  Sm  Sm2  1  0.00000000  0.18326300  0.86699300  1
  Sm  Sm3  1  0.50000000  0.31673700  0.36699300  1
  Ta  Ta4  1  0.50000000  0.91513500  0.80942600  1
  Ta  Ta5  1  0.00000000  0.58486500  0.30942600  1
  Ta  Ta6  1  0.00000000  0.41513500  0.80942600  1
  Ta  Ta7  1  0.50000000  0.08486500  0.30942600  1
  O  O8  1  0.50000000  0.59261700  0.26707700  1
  O  O9  1  0.50000000  0.79921500  0.59568500  1
  O  O10  1  0.50000000  0.83487000  0.08215800  1
  O  O11  1  0.50000000  0.97053400  0.46345900  1
  O  O12  1  0.00000000  0.52946600  0.96345900  1
  O  O13  1  0.00000000  0.66513000  0.58215800  1
  O  O14  1  0.00000000  0.70078500  0.09568500  1
  O  O15  1  0.00000000  0.90738300  0.76707700  1
  O  O16  1  0.00000000  0.09261700  0.26707700  1
  O  O17  1  0.00000000  0.29921500  0.59568500  1
  O  O18  1  0.00000000  0.33487000  0.08215800  1
  O  O19  1  0.00000000  0.47053400  0.46345900  1
  O  O20  1  0.50000000  0.02946600  0.96345900  1
  O  O21  1  0.50000000  0.16513000  0.58215800  1
  O  O22  1  0.50000000  0.20078500  0.09568500  1
  O  O23  1  0.50000000  0.40738300  0.76707700  1
