# generated using pymatgen
data_Li2Cr2H4O9
_symmetry_space_group_name_H-M   'P 1'
_cell_length_a   13.63408000
_cell_length_b   7.76490200
_cell_length_c   8.95558674
_cell_angle_alpha   90.00000000
_cell_angle_beta   92.81410897
_cell_angle_gamma   90.00000000
_symmetry_Int_Tables_number   1
_chemical_formula_structural   Li2Cr2H4O9
_chemical_formula_sum   'Li8 Cr8 H16 O36'
_cell_volume   946.96040458
_cell_formula_units_Z   4
loop_
 _symmetry_equiv_pos_site_id
 _symmetry_equiv_pos_as_xyz
  1  'x, y, z'
loop_
 _atom_site_type_symbol
 _atom_site_label
 _atom_site_symmetry_multiplicity
 _atom_site_fract_x
 _atom_site_fract_y
 _atom_site_fract_z
 _atom_site_occupancy
  Li  Li0  1  0.61554700  0.94202900  0.98310200  1
  Li  Li1  1  0.61554700  0.05797100  0.48310200  1
  Li  Li2  1  0.94846600  0.41197600  0.73224200  1
  Li  Li3  1  0.94846600  0.58802400  0.23224200  1
  Li  Li4  1  0.11554700  0.44202900  0.98310200  1
  Li  Li5  1  0.11554700  0.55797100  0.48310200  1
  Li  Li6  1  0.44846600  0.91197600  0.73224200  1
  Li  Li7  1  0.44846600  0.08802400  0.23224200  1
  Cr  Cr8  1  0.63226500  0.33578300  0.88293200  1
  Cr  Cr9  1  0.63226500  0.66421700  0.38293200  1
  Cr  Cr10  1  0.93269600  0.74930700  0.69930800  1
  Cr  Cr11  1  0.93269600  0.25069300  0.19930800  1
  Cr  Cr12  1  0.13226500  0.83578300  0.88293200  1
  Cr  Cr13  1  0.13226500  0.16421700  0.38293200  1
  Cr  Cr14  1  0.43269600  0.24930700  0.69930800  1
  Cr  Cr15  1  0.43269600  0.75069300  0.19930800  1
  H  H16  1  0.60117050  0.78923750  0.70683300  1
  H  H17  1  0.60117050  0.21076250  0.20683300  1
  H  H18  1  0.58941050  0.68400350  0.85513000  1
  H  H19  1  0.58941050  0.31599650  0.35513000  1
  H  H20  1  0.79821350  0.04009750  0.52802000  1
  H  H21  1  0.79821350  0.95990250  0.02802000  1
  H  H22  1  0.77791850  0.77278350  0.95576400  1
  H  H23  1  0.77791850  0.22721650  0.45576400  1
  H  H24  1  0.10117050  0.28923750  0.70683300  1
  H  H25  1  0.10117050  0.71076250  0.20683300  1
  H  H26  1  0.08941050  0.18400350  0.85513000  1
  H  H27  1  0.08941050  0.81599650  0.35513000  1
  H  H28  1  0.29821350  0.54009750  0.52802000  1
  H  H29  1  0.29821350  0.45990250  0.02802000  1
  H  H30  1  0.27791850  0.27278350  0.95576400  1
  H  H31  1  0.27791850  0.72721650  0.45576400  1
  O  O32  1  0.52161350  0.39383950  0.77436800  1
  O  O33  1  0.52161350  0.60616050  0.27436800  1
  O  O34  1  0.60535400  0.19194800  0.01228900  1
  O  O35  1  0.60535400  0.80805200  0.51228900  1
  O  O36  1  0.67191000  0.51623600  0.95575600  1
  O  O37  1  0.67191000  0.48376400  0.45575600  1
  O  O38  1  0.71090900  0.25321100  0.77459000  1
  O  O39  1  0.71090900  0.74678900  0.27459000  1
  O  O40  1  0.98732500  0.60498900  0.59363600  1
  O  O41  1  0.98732500  0.39501100  0.09363600  1
  O  O42  1  0.84857700  0.85561400  0.60580200  1
  O  O43  1  0.84857700  0.14438600  0.10580200  1
  O  O44  1  0.88714600  0.63454200  0.83389200  1
  O  O45  1  0.88714600  0.36545800  0.33389200  1
  O  O46  1  0.56786100  0.79120200  0.80381400  1
  O  O47  1  0.56786100  0.20879800  0.30381400  1
  O  O48  1  0.74861750  0.88274350  0.97952300  1
  O  O49  1  0.74861750  0.11725650  0.47952300  1
  O  O50  1  0.02161350  0.89383950  0.77436800  1
  O  O51  1  0.02161350  0.10616050  0.27436800  1
  O  O52  1  0.10535400  0.69194800  0.01228900  1
  O  O53  1  0.10535400  0.30805200  0.51228900  1
  O  O54  1  0.17191000  0.01623600  0.95575600  1
  O  O55  1  0.17191000  0.98376400  0.45575600  1
  O  O56  1  0.21090900  0.75321100  0.77459000  1
  O  O57  1  0.21090900  0.24678900  0.27459000  1
  O  O58  1  0.48732500  0.10498900  0.59363600  1
  O  O59  1  0.48732500  0.89501100  0.09363600  1
  O  O60  1  0.34857700  0.35561400  0.60580200  1
  O  O61  1  0.34857700  0.64438600  0.10580200  1
  O  O62  1  0.38714600  0.13454200  0.83389200  1
  O  O63  1  0.38714600  0.86545800  0.33389200  1
  O  O64  1  0.06786100  0.29120200  0.80381400  1
  O  O65  1  0.06786100  0.70879800  0.30381400  1
  O  O66  1  0.24861750  0.38274350  0.97952300  1
  O  O67  1  0.24861750  0.61725650  0.47952300  1
