# generated using pymatgen
data_YAlO3
_symmetry_space_group_name_H-M   'P 1'
_cell_length_a   6.72110600
_cell_length_b   11.68042600
_cell_length_c   10.11813900
_cell_angle_alpha   90.00000000
_cell_angle_beta   90.00000000
_cell_angle_gamma   90.00000000
_symmetry_Int_Tables_number   1
_chemical_formula_structural   YAlO3
_chemical_formula_sum   'Y12 Al12 O36'
_cell_volume   794.32835995
_cell_formula_units_Z   12
loop_
 _symmetry_equiv_pos_site_id
 _symmetry_equiv_pos_as_xyz
  1  'x, y, z'
loop_
 _atom_site_type_symbol
 _atom_site_label
 _atom_site_symmetry_multiplicity
 _atom_site_fract_x
 _atom_site_fract_y
 _atom_site_fract_z
 _atom_site_occupancy
  Y  Y0  1  0.00000000  0.16985400  0.50000000  1
  Y  Y1  1  0.00000000  0.16985400  0.00000000  1
  Y  Y2  1  0.50000000  0.33014600  0.50000000  1
  Y  Y3  1  0.50000000  0.33014600  0.00000000  1
  Y  Y4  1  0.50000000  0.00000000  0.00000000  1
  Y  Y5  1  0.50000000  0.00000000  0.50000000  1
  Y  Y6  1  0.50000000  0.66985400  0.50000000  1
  Y  Y7  1  0.50000000  0.66985400  0.00000000  1
  Y  Y8  1  0.00000000  0.83014600  0.50000000  1
  Y  Y9  1  0.00000000  0.83014600  0.00000000  1
  Y  Y10  1  0.00000000  0.50000000  0.00000000  1
  Y  Y11  1  0.00000000  0.50000000  0.50000000  1
  Al  Al12  1  0.30003900  0.13443500  0.25000000  1
  Al  Al13  1  0.69996100  0.13443500  0.75000000  1
  Al  Al14  1  0.80003900  0.36556500  0.25000000  1
  Al  Al15  1  0.19996100  0.36556500  0.75000000  1
  Al  Al16  1  0.10674900  0.00000000  0.75000000  1
  Al  Al17  1  0.89325100  0.00000000  0.25000000  1
  Al  Al18  1  0.80003900  0.63443500  0.25000000  1
  Al  Al19  1  0.19996100  0.63443500  0.75000000  1
  Al  Al20  1  0.30003900  0.86556500  0.25000000  1
  Al  Al21  1  0.69996100  0.86556500  0.75000000  1
  Al  Al22  1  0.60674900  0.50000000  0.75000000  1
  Al  Al23  1  0.39325100  0.50000000  0.25000000  1
  O  O24  1  0.03546300  0.12839200  0.25000000  1
  O  O25  1  0.96453700  0.12839200  0.75000000  1
  O  O26  1  0.34429800  0.17796000  0.08814500  1
  O  O27  1  0.34429800  0.17796000  0.41185500  1
  O  O28  1  0.65570200  0.17796000  0.58814500  1
  O  O29  1  0.65570200  0.17796000  0.91185500  1
  O  O30  1  0.84429800  0.32204000  0.41185500  1
  O  O31  1  0.15570200  0.32204000  0.58814500  1
  O  O32  1  0.84429800  0.32204000  0.08814500  1
  O  O33  1  0.15570200  0.32204000  0.91185500  1
  O  O34  1  0.53546300  0.37160800  0.25000000  1
  O  O35  1  0.46453700  0.37160800  0.75000000  1
  O  O36  1  0.57441500  0.00000000  0.75000000  1
  O  O37  1  0.18779200  0.00000000  0.58368000  1
  O  O38  1  0.18779200  0.00000000  0.91632000  1
  O  O39  1  0.81220800  0.00000000  0.08368000  1
  O  O40  1  0.81220800  0.00000000  0.41632000  1
  O  O41  1  0.42558500  0.00000000  0.25000000  1
  O  O42  1  0.53546300  0.62839200  0.25000000  1
  O  O43  1  0.46453700  0.62839200  0.75000000  1
  O  O44  1  0.84429800  0.67796000  0.08814500  1
  O  O45  1  0.84429800  0.67796000  0.41185500  1
  O  O46  1  0.15570200  0.67796000  0.58814500  1
  O  O47  1  0.15570200  0.67796000  0.91185500  1
  O  O48  1  0.34429800  0.82204000  0.41185500  1
  O  O49  1  0.65570200  0.82204000  0.58814500  1
  O  O50  1  0.34429800  0.82204000  0.08814500  1
  O  O51  1  0.65570200  0.82204000  0.91185500  1
  O  O52  1  0.03546300  0.87160800  0.25000000  1
  O  O53  1  0.96453700  0.87160800  0.75000000  1
  O  O54  1  0.07441500  0.50000000  0.75000000  1
  O  O55  1  0.68779200  0.50000000  0.58368000  1
  O  O56  1  0.68779200  0.50000000  0.91632000  1
  O  O57  1  0.31220800  0.50000000  0.08368000  1
  O  O58  1  0.31220800  0.50000000  0.41632000  1
  O  O59  1  0.92558500  0.50000000  0.25000000  1
