# generated using pymatgen
data_Ce(ClO4)4
_symmetry_space_group_name_H-M   'P 1'
_cell_length_a   13.68593200
_cell_length_b   8.52983200
_cell_length_c   13.99120328
_cell_angle_alpha   90.00000000
_cell_angle_beta   107.34253496
_cell_angle_gamma   90.00000000
_symmetry_Int_Tables_number   1
_chemical_formula_structural   Ce(ClO4)4
_chemical_formula_sum   'Ce4 Cl16 O64'
_cell_volume   1559.06402635
_cell_formula_units_Z   4
loop_
 _symmetry_equiv_pos_site_id
 _symmetry_equiv_pos_as_xyz
  1  'x, y, z'
loop_
 _atom_site_type_symbol
 _atom_site_label
 _atom_site_symmetry_multiplicity
 _atom_site_fract_x
 _atom_site_fract_y
 _atom_site_fract_z
 _atom_site_occupancy
  Ce  Ce0  1  0.37747800  0.97288200  0.90261800  1
  Ce  Ce1  1  0.37747800  0.02711800  0.40261800  1
  Ce  Ce2  1  0.87747800  0.47288200  0.90261800  1
  Ce  Ce3  1  0.87747800  0.52711800  0.40261800  1
  Cl  Cl4  1  0.31134000  0.73122700  0.73362800  1
  Cl  Cl5  1  0.31134000  0.26877300  0.23362800  1
  Cl  Cl6  1  0.43352300  0.26550800  0.57401600  1
  Cl  Cl7  1  0.55862750  0.81123450  0.50141400  1
  Cl  Cl8  1  0.43352300  0.73449200  0.07401600  1
  Cl  Cl9  1  0.70177450  0.70857850  0.83716000  1
  Cl  Cl10  1  0.55862750  0.18876550  0.00141400  1
  Cl  Cl11  1  0.70177450  0.29142150  0.33716000  1
  Cl  Cl12  1  0.81134000  0.23122700  0.73362800  1
  Cl  Cl13  1  0.81134000  0.76877300  0.23362800  1
  Cl  Cl14  1  0.93352300  0.76550800  0.57401600  1
  Cl  Cl15  1  0.05862750  0.31123450  0.50141400  1
  Cl  Cl16  1  0.93352300  0.23449200  0.07401600  1
  Cl  Cl17  1  0.20177450  0.20857850  0.83716000  1
  Cl  Cl18  1  0.05862750  0.68876550  0.00141400  1
  Cl  Cl19  1  0.20177450  0.79142150  0.33716000  1
  O  O20  1  0.22743800  0.09705300  0.92557400  1
  O  O21  1  0.25974500  0.77569900  0.81274000  1
  O  O22  1  0.29109600  0.17577200  0.79455200  1
  O  O23  1  0.22743800  0.90294700  0.42557400  1
  O  O24  1  0.25974500  0.22430100  0.31274000  1
  O  O25  1  0.40086550  0.84688150  0.75898500  1
  O  O26  1  0.34387250  0.15172050  0.54345300  1
  O  O27  1  0.48538900  0.76912100  0.99321700  1
  O  O28  1  0.29109600  0.82422800  0.29455200  1
  O  O29  1  0.53585950  0.09148350  0.90552000  1
  O  O30  1  0.56208650  0.35037250  0.97854800  1
  O  O31  1  0.46377100  0.84639600  0.53341500  1
  O  O32  1  0.50023550  0.22426250  0.66980400  1
  O  O33  1  0.40086550  0.15311850  0.25898500  1
  O  O34  1  0.34387250  0.84827950  0.04345300  1
  O  O35  1  0.48538900  0.23087900  0.49321700  1
  O  O36  1  0.60805100  0.66385000  0.76600300  1
  O  O37  1  0.53585950  0.90851650  0.40552000  1
  O  O38  1  0.56208650  0.64962750  0.47854800  1
  O  O39  1  0.70639250  0.86664050  0.87017900  1
  O  O40  1  0.46377100  0.15360400  0.03341500  1
  O  O41  1  0.50023550  0.77573750  0.16980400  1
  O  O42  1  0.64757150  0.87031950  0.57375100  1
  O  O43  1  0.60805100  0.33615000  0.26600300  1
  O  O44  1  0.24490750  0.76328350  0.63646700  1
  O  O45  1  0.70639250  0.13335950  0.37017900  1
  O  O46  1  0.84910000  0.07519500  0.74989900  1
  O  O47  1  0.64757150  0.12968050  0.07375100  1
  O  O48  1  0.24490750  0.23671650  0.13646700  1
  O  O49  1  0.89758400  0.92251500  0.56516600  1
  O  O50  1  0.84910000  0.92480500  0.24989900  1
  O  O51  1  0.89758400  0.07748500  0.06516600  1
  O  O52  1  0.72743800  0.59705300  0.92557400  1
  O  O53  1  0.75974500  0.27569900  0.81274000  1
  O  O54  1  0.79109600  0.67577200  0.79455200  1
  O  O55  1  0.72743800  0.40294700  0.42557400  1
  O  O56  1  0.75974500  0.72430100  0.31274000  1
  O  O57  1  0.90086550  0.34688150  0.75898500  1
  O  O58  1  0.84387250  0.65172050  0.54345300  1
  O  O59  1  0.98538900  0.26912100  0.99321700  1
  O  O60  1  0.79109600  0.32422800  0.29455200  1
  O  O61  1  0.03585950  0.59148350  0.90552000  1
  O  O62  1  0.06208650  0.85037250  0.97854800  1
  O  O63  1  0.96377100  0.34639600  0.53341500  1
  O  O64  1  0.00023550  0.72426250  0.66980400  1
  O  O65  1  0.90086550  0.65311850  0.25898500  1
  O  O66  1  0.84387250  0.34827950  0.04345300  1
  O  O67  1  0.98538900  0.73087900  0.49321700  1
  O  O68  1  0.10805100  0.16385000  0.76600300  1
  O  O69  1  0.03585950  0.40851650  0.40552000  1
  O  O70  1  0.06208650  0.14962750  0.47854800  1
  O  O71  1  0.20639250  0.36664050  0.87017900  1
  O  O72  1  0.96377100  0.65360400  0.03341500  1
  O  O73  1  0.00023550  0.27573750  0.16980400  1
  O  O74  1  0.14757150  0.37031950  0.57375100  1
  O  O75  1  0.10805100  0.83615000  0.26600300  1
  O  O76  1  0.74490750  0.26328350  0.63646700  1
  O  O77  1  0.20639250  0.63335950  0.37017900  1
  O  O78  1  0.34910000  0.57519500  0.74989900  1
  O  O79  1  0.14757150  0.62968050  0.07375100  1
  O  O80  1  0.74490750  0.73671650  0.13646700  1
  O  O81  1  0.39758400  0.42251500  0.56516600  1
  O  O82  1  0.34910000  0.42480500  0.24989900  1
  O  O83  1  0.39758400  0.57748500  0.06516600  1
