# generated using pymatgen
data_Li2Bi(PO3)5
_symmetry_space_group_name_H-M   'P 1'
_cell_length_a   7.74257800
_cell_length_b   11.95328600
_cell_length_c   13.40791843
_cell_angle_alpha   90.00000000
_cell_angle_beta   93.46199239
_cell_angle_gamma   90.00000000
_symmetry_Int_Tables_number   1
_chemical_formula_structural   Li2Bi(PO3)5
_chemical_formula_sum   'Li8 Bi4 P20 O60'
_cell_volume   1238.62824936
_cell_formula_units_Z   4
loop_
 _symmetry_equiv_pos_site_id
 _symmetry_equiv_pos_as_xyz
  1  'x, y, z'
loop_
 _atom_site_type_symbol
 _atom_site_label
 _atom_site_symmetry_multiplicity
 _atom_site_fract_x
 _atom_site_fract_y
 _atom_site_fract_z
 _atom_site_occupancy
  Li  Li0  1  0.51598900  0.79845600  0.72325800  1
  Li  Li1  1  0.51598900  0.20154400  0.22325800  1
  Li  Li2  1  0.74264550  0.02056850  0.59578600  1
  Li  Li3  1  0.74264550  0.97943150  0.09578600  1
  Li  Li4  1  0.01598900  0.29845600  0.72325800  1
  Li  Li5  1  0.01598900  0.70154400  0.22325800  1
  Li  Li6  1  0.24264550  0.52056850  0.59578600  1
  Li  Li7  1  0.24264550  0.47943150  0.09578600  1
  Bi  Bi8  1  0.50680450  0.38550950  0.76007100  1
  Bi  Bi9  1  0.50680450  0.61449050  0.26007100  1
  Bi  Bi10  1  0.00680450  0.88550950  0.76007100  1
  Bi  Bi11  1  0.00680450  0.11449050  0.26007100  1
  P  P12  1  0.32688950  0.30144050  0.50360000  1
  P  P13  1  0.33473950  0.93465850  0.56404300  1
  P  P14  1  0.28273000  0.12989600  0.84926500  1
  P  P15  1  0.32688950  0.69855950  0.00360000  1
  P  P16  1  0.33473950  0.06534150  0.06404300  1
  P  P17  1  0.28273000  0.87010400  0.34926500  1
  P  P18  1  0.55662150  0.62274850  0.52821400  1
  P  P19  1  0.55662150  0.37725150  0.02821400  1
  P  P20  1  0.66032650  0.10115650  0.81820300  1
  P  P21  1  0.66032650  0.89884350  0.31820300  1
  P  P22  1  0.82688950  0.80144050  0.50360000  1
  P  P23  1  0.83473950  0.43465850  0.56404300  1
  P  P24  1  0.78273000  0.62989600  0.84926500  1
  P  P25  1  0.82688950  0.19855950  0.00360000  1
  P  P26  1  0.83473950  0.56534150  0.06404300  1
  P  P27  1  0.78273000  0.37010400  0.34926500  1
  P  P28  1  0.05662150  0.12274850  0.52821400  1
  P  P29  1  0.05662150  0.87725150  0.02821400  1
  P  P30  1  0.16032650  0.60115650  0.81820300  1
  P  P31  1  0.16032650  0.39884350  0.31820300  1
  O  O32  1  0.14020200  0.04828000  0.82304800  1
  O  O33  1  0.14020200  0.95172000  0.32304800  1
  O  O34  1  0.27535200  0.87517400  0.65556400  1
  O  O35  1  0.27535200  0.12482600  0.15556400  1
  O  O36  1  0.21100000  0.03532800  0.53001200  1
  O  O37  1  0.21100000  0.96467200  0.03001200  1
  O  O38  1  0.30314400  0.14990300  0.96832400  1
  O  O39  1  0.30314400  0.85009700  0.46832400  1
  O  O40  1  0.26714700  0.24053500  0.79385800  1
  O  O41  1  0.26714700  0.75946500  0.29385800  1
  O  O42  1  0.44231400  0.77391900  0.95209800  1
  O  O43  1  0.44231400  0.22608100  0.45209800  1
  O  O44  1  0.46247750  0.38184350  0.92667800  1
  O  O45  1  0.51631550  0.97427050  0.57379700  1
  O  O46  1  0.46247750  0.61815650  0.42667800  1
  O  O47  1  0.46119400  0.06544200  0.82797100  1
  O  O48  1  0.51631550  0.02572950  0.07379700  1
  O  O49  1  0.46119400  0.93455800  0.32797100  1
  O  O50  1  0.44849500  0.61191700  0.61621000  1
  O  O51  1  0.44849500  0.38808300  0.11621000  1
  O  O52  1  0.65603100  0.73979700  0.54294200  1
  O  O53  1  0.65603100  0.26020300  0.04294200  1
  O  O54  1  0.66640800  0.21876700  0.77738400  1
  O  O55  1  0.66640800  0.78123300  0.27738400  1
  O  O56  1  0.74125000  0.10074100  0.93045300  1
  O  O57  1  0.74125000  0.89925900  0.43045300  1
  O  O58  1  0.73972300  0.00728300  0.76143500  1
  O  O59  1  0.73972300  0.99271700  0.26143500  1
  O  O60  1  0.38481100  0.37255500  0.59358700  1
  O  O61  1  0.38481100  0.62744500  0.09358700  1
  O  O62  1  0.64020200  0.54828000  0.82304800  1
  O  O63  1  0.64020200  0.45172000  0.32304800  1
  O  O64  1  0.77535200  0.37517400  0.65556400  1
  O  O65  1  0.77535200  0.62482600  0.15556400  1
  O  O66  1  0.71100000  0.53532800  0.53001200  1
  O  O67  1  0.71100000  0.46467200  0.03001200  1
  O  O68  1  0.80314400  0.64990300  0.96832400  1
  O  O69  1  0.80314400  0.35009700  0.46832400  1
  O  O70  1  0.76714700  0.74053500  0.79385800  1
  O  O71  1  0.76714700  0.25946500  0.29385800  1
  O  O72  1  0.94231400  0.27391900  0.95209800  1
  O  O73  1  0.94231400  0.72608100  0.45209800  1
  O  O74  1  0.96247750  0.88184350  0.92667800  1
  O  O75  1  0.01631550  0.47427050  0.57379700  1
  O  O76  1  0.96247750  0.11815650  0.42667800  1
  O  O77  1  0.96119400  0.56544200  0.82797100  1
  O  O78  1  0.01631550  0.52572950  0.07379700  1
  O  O79  1  0.96119400  0.43455800  0.32797100  1
  O  O80  1  0.94849500  0.11191700  0.61621000  1
  O  O81  1  0.94849500  0.88808300  0.11621000  1
  O  O82  1  0.15603100  0.23979700  0.54294200  1
  O  O83  1  0.15603100  0.76020300  0.04294200  1
  O  O84  1  0.16640800  0.71876700  0.77738400  1
  O  O85  1  0.16640800  0.28123300  0.27738400  1
  O  O86  1  0.24125000  0.60074100  0.93045300  1
  O  O87  1  0.24125000  0.39925900  0.43045300  1
  O  O88  1  0.23972300  0.50728300  0.76143500  1
  O  O89  1  0.23972300  0.49271700  0.26143500  1
  O  O90  1  0.88481100  0.87255500  0.59358700  1
  O  O91  1  0.88481100  0.12744500  0.09358700  1
