# generated using pymatgen
data_Mn3(OF2)2
_symmetry_space_group_name_H-M   'P 1'
_cell_length_a   9.11044200
_cell_length_b   7.20960600
_cell_length_c   7.14321147
_cell_angle_alpha   90.00000000
_cell_angle_beta   110.01069389
_cell_angle_gamma   90.00000000
_symmetry_Int_Tables_number   1
_chemical_formula_structural   Mn3(OF2)2
_chemical_formula_sum   'Mn12 O8 F16'
_cell_volume   440.86009679
_cell_formula_units_Z   4
loop_
 _symmetry_equiv_pos_site_id
 _symmetry_equiv_pos_as_xyz
  1  'x, y, z'
loop_
 _atom_site_type_symbol
 _atom_site_label
 _atom_site_symmetry_multiplicity
 _atom_site_fract_x
 _atom_site_fract_y
 _atom_site_fract_z
 _atom_site_occupancy
  Mn  Mn0  1  0.83281200  0.50000000  0.83608700  1
  Mn  Mn1  1  0.15058800  0.50000000  0.67049100  1
  Mn  Mn2  1  0.84941200  0.50000000  0.32950900  1
  Mn  Mn3  1  0.16718800  0.50000000  0.16391300  1
  Mn  Mn4  1  0.00000000  0.00000000  0.50000000  1
  Mn  Mn5  1  0.00000000  0.00000000  0.00000000  1
  Mn  Mn6  1  0.33281200  0.00000000  0.83608700  1
  Mn  Mn7  1  0.65058800  0.00000000  0.67049100  1
  Mn  Mn8  1  0.34941200  0.00000000  0.32950900  1
  Mn  Mn9  1  0.66718800  0.00000000  0.16391300  1
  Mn  Mn10  1  0.50000000  0.50000000  0.50000000  1
  Mn  Mn11  1  0.50000000  0.50000000  0.00000000  1
  O  O12  1  0.92934100  0.50000000  0.62725900  1
  O  O13  1  0.25894200  0.50000000  0.96073100  1
  O  O14  1  0.74105800  0.50000000  0.03926900  1
  O  O15  1  0.07065900  0.50000000  0.37274100  1
  O  O16  1  0.42934100  0.00000000  0.62725900  1
  O  O17  1  0.75894200  0.00000000  0.96073100  1
  O  O18  1  0.24105800  0.00000000  0.03926900  1
  O  O19  1  0.57065900  0.00000000  0.37274100  1
  F  F20  1  0.16920700  0.19096900  0.67307100  1
  F  F21  1  0.83079300  0.19096900  0.32692900  1
  F  F22  1  0.62115700  0.50000000  0.30524300  1
  F  F23  1  0.37884300  0.50000000  0.69475700  1
  F  F24  1  0.83079300  0.80903100  0.32692900  1
  F  F25  1  0.16920700  0.80903100  0.67307100  1
  F  F26  1  0.00000000  0.30742700  0.00000000  1
  F  F27  1  0.00000000  0.69257300  0.00000000  1
  F  F28  1  0.66920700  0.69096900  0.67307100  1
  F  F29  1  0.33079300  0.69096900  0.32692900  1
  F  F30  1  0.12115700  0.00000000  0.30524300  1
  F  F31  1  0.87884300  0.00000000  0.69475700  1
  F  F32  1  0.33079300  0.30903100  0.32692900  1
  F  F33  1  0.66920700  0.30903100  0.67307100  1
  F  F34  1  0.50000000  0.80742700  0.00000000  1
  F  F35  1  0.50000000  0.19257300  0.00000000  1
