# generated using pymatgen
data_Li3Cr(PO4)2
_symmetry_space_group_name_H-M   'P 1'
_cell_length_a   8.88468963
_cell_length_b   8.88468963
_cell_length_c   20.03671759
_cell_angle_alpha   90.00000000
_cell_angle_beta   90.00000000
_cell_angle_gamma   120.00000000
_symmetry_Int_Tables_number   1
_chemical_formula_structural   Li3Cr(PO4)2
_chemical_formula_sum   'Li27 Cr9 P18 O72'
_cell_volume   1369.75133173
_cell_formula_units_Z   9
loop_
 _symmetry_equiv_pos_site_id
 _symmetry_equiv_pos_as_xyz
  1  'x, y, z'
loop_
 _atom_site_type_symbol
 _atom_site_label
 _atom_site_symmetry_multiplicity
 _atom_site_fract_x
 _atom_site_fract_y
 _atom_site_fract_z
 _atom_site_occupancy
  Li  Li0  1  0.60125767  0.59575233  0.24904733  1
  Li  Li1  1  0.71374433  0.94873167  0.09117767  1
  Li  Li2  1  0.23498733  0.28625567  0.09117767  1
  Li  Li3  1  0.33333333  0.66666667  0.81897367  1
  Li  Li4  1  0.33333333  0.66666667  0.67614467  1
  Li  Li5  1  0.33333333  0.66666667  0.16426167  1
  Li  Li6  1  0.40424767  0.00550533  0.24904733  1
  Li  Li7  1  0.99449467  0.39874233  0.24904733  1
  Li  Li8  1  0.05126833  0.76501267  0.09117767  1
  Li  Li9  1  0.26792433  0.92908567  0.58238067  1
  Li  Li10  1  0.38041100  0.28206500  0.42451100  1
  Li  Li11  1  0.90165400  0.61958900  0.42451100  1
  Li  Li12  1  0.00000000  0.00000000  0.15230700  1
  Li  Li13  1  0.00000000  0.00000000  0.00947800  1
  Li  Li14  1  0.00000000  0.00000000  0.49759500  1
  Li  Li15  1  0.07091433  0.33883867  0.58238067  1
  Li  Li16  1  0.66116133  0.73207567  0.58238067  1
  Li  Li17  1  0.71793500  0.09834600  0.42451100  1
  Li  Li18  1  0.93459100  0.26241900  0.91571400  1
  Li  Li19  1  0.04707767  0.61539833  0.75784433  1
  Li  Li20  1  0.56832067  0.95292233  0.75784433  1
  Li  Li21  1  0.66666667  0.33333333  0.48564033  1
  Li  Li22  1  0.66666667  0.33333333  0.34281133  1
  Li  Li23  1  0.66666667  0.33333333  0.83092833  1
  Li  Li24  1  0.73758100  0.67217200  0.91571400  1
  Li  Li25  1  0.32782800  0.06540900  0.91571400  1
  Li  Li26  1  0.38460167  0.43167933  0.75784433  1
  Cr  Cr27  1  0.33333333  0.66666667  0.02331367  1
  Cr  Cr28  1  0.33333333  0.66666667  0.52391167  1
  Cr  Cr29  1  0.33333333  0.66666667  0.30850367  1
  Cr  Cr30  1  0.00000000  0.00000000  0.35664700  1
  Cr  Cr31  1  0.00000000  0.00000000  0.85724500  1
  Cr  Cr32  1  0.00000000  0.00000000  0.64183700  1
  Cr  Cr33  1  0.66666667  0.33333333  0.68998033  1
  Cr  Cr34  1  0.66666667  0.33333333  0.19057833  1
  Cr  Cr35  1  0.66666667  0.33333333  0.97517033  1
  P  P36  1  0.66361367  0.62803733  0.08169133  1
  P  P37  1  0.70169867  0.00164633  0.24821333  1
  P  P38  1  0.29994767  0.29830133  0.24821333  1
  P  P39  1  0.37196267  0.03557633  0.08169133  1
  P  P40  1  0.96442367  0.33638633  0.08169133  1
  P  P41  1  0.99835367  0.70005233  0.24821333  1
  P  P42  1  0.33028033  0.96137067  0.41502467  1
  P  P43  1  0.36836533  0.33497967  0.58154667  1
  P  P44  1  0.96661433  0.63163467  0.58154667  1
  P  P45  1  0.03862933  0.36890967  0.41502467  1
  P  P46  1  0.63109033  0.66971967  0.41502467  1
  P  P47  1  0.66502033  0.03338567  0.58154667  1
  P  P48  1  0.99694700  0.29470400  0.74835800  1
  P  P49  1  0.03503200  0.66831300  0.91488000  1
  P  P50  1  0.63328100  0.96496800  0.91488000  1
  P  P51  1  0.70529600  0.70224300  0.74835800  1
  P  P52  1  0.29775700  0.00305300  0.74835800  1
  P  P53  1  0.33168700  0.36671900  0.91488000  1
  O  O54  1  0.82884333  0.80616867  0.07415267  1
  O  O55  1  0.48829067  0.32356433  0.25622533  1
  O  O56  1  0.53718600  0.68034800  0.35211400  1
  O  O57  1  0.87244233  0.34332067  0.14647967  1
  O  O58  1  0.50476567  0.65855133  0.08860333  1
  O  O59  1  0.20772833  0.21230967  0.18425067  1
  O  O60  1  0.32570333  0.46224867  0.97801867  1
  O  O61  1  0.50921533  0.84321367  0.24498967  1
  O  O62  1  0.67643567  0.16472633  0.25622533  1
  O  O63  1  0.00458133  0.79227167  0.18425067  1
  O  O64  1  0.53775133  0.86345467  0.97801867  1
  O  O65  1  0.33399833  0.49078467  0.24498967  1
  O  O66  1  0.34144867  0.84621433  0.08860333  1
  O  O67  1  0.14316200  0.46281400  0.35211400  1
  O  O68  1  0.65667933  0.52912167  0.14647967  1
  O  O69  1  0.15378567  0.49523433  0.08860333  1
  O  O70  1  0.97732533  0.17115667  0.07415267  1
  O  O71  1  0.47087833  0.12755767  0.14647967  1
  O  O72  1  0.31965200  0.85683800  0.35211400  1
  O  O73  1  0.15678633  0.66600167  0.24498967  1
  O  O74  1  0.78769033  0.99541867  0.18425067  1
  O  O75  1  0.13654533  0.67429667  0.97801867  1
  O  O76  1  0.19383133  0.02267467  0.07415267  1
  O  O77  1  0.83527367  0.51170933  0.25622533  1
  O  O78  1  0.49551000  0.13950200  0.40748600  1
  O  O79  1  0.15495733  0.65689767  0.58955867  1
  O  O80  1  0.20385267  0.01368133  0.68544733  1
  O  O81  1  0.53910900  0.67665400  0.47981300  1
  O  O82  1  0.17143233  0.99188467  0.42193667  1
  O  O83  1  0.87439500  0.54564300  0.51758400  1
  O  O84  1  0.99237000  0.79558200  0.31135200  1
  O  O85  1  0.17588200  0.17654700  0.57832300  1
  O  O86  1  0.34310233  0.49805967  0.58955867  1
  O  O87  1  0.67124800  0.12560500  0.51758400  1
  O  O88  1  0.20441800  0.19678800  0.31135200  1
  O  O89  1  0.00066500  0.82411800  0.57832300  1
  O  O90  1  0.00811533  0.17954767  0.42193667  1
  O  O91  1  0.80982867  0.79614733  0.68544733  1
  O  O92  1  0.32334600  0.86245500  0.47981300  1
  O  O93  1  0.82045233  0.82856767  0.42193667  1
  O  O94  1  0.64399200  0.50449000  0.40748600  1
  O  O95  1  0.13754500  0.46089100  0.47981300  1
  O  O96  1  0.98631867  0.19017133  0.68544733  1
  O  O97  1  0.82345300  0.99933500  0.57832300  1
  O  O98  1  0.45435700  0.32875200  0.51758400  1
  O  O99  1  0.80321200  0.00763000  0.31135200  1
  O  O100  1  0.86049800  0.35600800  0.40748600  1
  O  O101  1  0.50194033  0.84504267  0.58955867  1
  O  O102  1  0.16217667  0.47283533  0.74081933  1
  O  O103  1  0.82162400  0.99023100  0.92289200  1
  O  O104  1  0.87051933  0.34701467  0.01878067  1
  O  O105  1  0.20577567  0.00998733  0.81314633  1
  O  O106  1  0.83809900  0.32521800  0.75527000  1
  O  O107  1  0.54106167  0.87897633  0.85091733  1
  O  O108  1  0.65903667  0.12891533  0.64468533  1
  O  O109  1  0.84254867  0.50988033  0.91165633  1
  O  O110  1  0.00976900  0.83139300  0.92289200  1
  O  O111  1  0.33791467  0.45893833  0.85091733  1
  O  O112  1  0.87108467  0.53012133  0.64468533  1
  O  O113  1  0.66733167  0.15745133  0.91165633  1
  O  O114  1  0.67478200  0.51288100  0.75527000  1
  O  O115  1  0.47649533  0.12948067  0.01878067  1
  O  O116  1  0.99001267  0.19578833  0.81314633  1
  O  O117  1  0.48711900  0.16190100  0.75527000  1
  O  O118  1  0.31065867  0.83782333  0.74081933  1
  O  O119  1  0.80421167  0.79422433  0.81314633  1
  O  O120  1  0.65298533  0.52350467  0.01878067  1
  O  O121  1  0.49011967  0.33266833  0.91165633  1
  O  O122  1  0.12102367  0.66208533  0.85091733  1
  O  O123  1  0.46987867  0.34096333  0.64468533  1
  O  O124  1  0.52716467  0.68934133  0.74081933  1
  O  O125  1  0.16860700  0.17837600  0.92289200  1
