# generated using pymatgen
data_Na5LaO4
_symmetry_space_group_name_H-M   'P 1'
_cell_length_a   15.36469300
_cell_length_b   15.36469300
_cell_length_c   5.57121600
_cell_angle_alpha   90.00000000
_cell_angle_beta   90.00000000
_cell_angle_gamma   90.00000000
_symmetry_Int_Tables_number   1
_chemical_formula_structural   Na5LaO4
_chemical_formula_sum   'Na40 La8 O32'
_cell_volume   1315.21808151
_cell_formula_units_Z   8
loop_
 _symmetry_equiv_pos_site_id
 _symmetry_equiv_pos_as_xyz
  1  'x, y, z'
loop_
 _atom_site_type_symbol
 _atom_site_label
 _atom_site_symmetry_multiplicity
 _atom_site_fract_x
 _atom_site_fract_y
 _atom_site_fract_z
 _atom_site_occupancy
  Na  Na0  1  0.23905700  0.76094300  0.00000000  1
  Na  Na1  1  0.26094300  0.73905700  0.50000000  1
  Na  Na2  1  0.23905700  0.23905700  0.00000000  1
  Na  Na3  1  0.26094300  0.26094300  0.50000000  1
  Na  Na4  1  0.35442100  0.10659400  0.56037300  1
  Na  Na5  1  0.35442100  0.89340600  0.56037300  1
  Na  Na6  1  0.37268100  0.37268100  0.00000000  1
  Na  Na7  1  0.37268100  0.62731900  0.00000000  1
  Na  Na8  1  0.39340600  0.85442100  0.06037300  1
  Na  Na9  1  0.39340600  0.14557900  0.06037300  1
  Na  Na10  1  0.50000000  0.00000000  0.11279800  1
  Na  Na11  1  0.50000000  0.50000000  0.50000000  1
  Na  Na12  1  0.50000000  0.50000000  0.00000000  1
  Na  Na13  1  0.50000000  0.00000000  0.61279800  1
  Na  Na14  1  0.60659400  0.85442100  0.06037300  1
  Na  Na15  1  0.60659400  0.14557900  0.06037300  1
  Na  Na16  1  0.62731900  0.37268100  0.00000000  1
  Na  Na17  1  0.62731900  0.62731900  0.00000000  1
  Na  Na18  1  0.64557900  0.89340600  0.56037300  1
  Na  Na19  1  0.64557900  0.10659400  0.56037300  1
  Na  Na20  1  0.76094300  0.76094300  0.00000000  1
  Na  Na21  1  0.73905700  0.73905700  0.50000000  1
  Na  Na22  1  0.76094300  0.23905700  0.00000000  1
  Na  Na23  1  0.73905700  0.26094300  0.50000000  1
  Na  Na24  1  0.85442100  0.39340600  0.93962700  1
  Na  Na25  1  0.85442100  0.60659400  0.93962700  1
  Na  Na26  1  0.87268100  0.87268100  0.50000000  1
  Na  Na27  1  0.87268100  0.12731900  0.50000000  1
  Na  Na28  1  0.89340600  0.35442100  0.43962700  1
  Na  Na29  1  0.89340600  0.64557900  0.43962700  1
  Na  Na30  1  0.00000000  0.00000000  0.00000000  1
  Na  Na31  1  0.00000000  0.00000000  0.50000000  1
  Na  Na32  1  0.00000000  0.50000000  0.88720200  1
  Na  Na33  1  0.00000000  0.50000000  0.38720200  1
  Na  Na34  1  0.10659400  0.35442100  0.43962700  1
  Na  Na35  1  0.10659400  0.64557900  0.43962700  1
  Na  Na36  1  0.12731900  0.87268100  0.50000000  1
  Na  Na37  1  0.12731900  0.12731900  0.50000000  1
  Na  Na38  1  0.14557900  0.39340600  0.93962700  1
  Na  Na39  1  0.14557900  0.60659400  0.93962700  1
  La  La40  1  0.26933300  0.50000000  0.46337300  1
  La  La41  1  0.50000000  0.26933300  0.53662700  1
  La  La42  1  0.50000000  0.73066700  0.53662700  1
  La  La43  1  0.73066700  0.50000000  0.46337300  1
  La  La44  1  0.76933300  0.00000000  0.03662700  1
  La  La45  1  0.00000000  0.76933300  0.96337300  1
  La  La46  1  0.00000000  0.23066700  0.96337300  1
  La  La47  1  0.23066700  0.00000000  0.03662700  1
  O  O48  1  0.25642000  0.87398600  0.25764100  1
  O  O49  1  0.25642000  0.12601400  0.25764100  1
  O  O50  1  0.37398600  0.75642000  0.75764100  1
  O  O51  1  0.37398600  0.24358000  0.75764100  1
  O  O52  1  0.37363000  0.00000000  0.85869300  1
  O  O53  1  0.37548700  0.50000000  0.74957900  1
  O  O54  1  0.50000000  0.87363000  0.35869300  1
  O  O55  1  0.50000000  0.37548700  0.25042100  1
  O  O56  1  0.50000000  0.62451300  0.25042100  1
  O  O57  1  0.50000000  0.12637000  0.35869300  1
  O  O58  1  0.62451300  0.50000000  0.74957900  1
  O  O59  1  0.62637000  0.00000000  0.85869300  1
  O  O60  1  0.62601400  0.24358000  0.75764100  1
  O  O61  1  0.62601400  0.75642000  0.75764100  1
  O  O62  1  0.74358000  0.87398600  0.25764100  1
  O  O63  1  0.74358000  0.12601400  0.25764100  1
  O  O64  1  0.75642000  0.37398600  0.24235900  1
  O  O65  1  0.75642000  0.62601400  0.24235900  1
  O  O66  1  0.87398600  0.74358000  0.74235900  1
  O  O67  1  0.87398600  0.25642000  0.74235900  1
  O  O68  1  0.87363000  0.50000000  0.64130700  1
  O  O69  1  0.87548700  0.00000000  0.75042100  1
  O  O70  1  0.00000000  0.87548700  0.24957900  1
  O  O71  1  0.00000000  0.12451300  0.24957900  1
  O  O72  1  0.00000000  0.37363000  0.14130700  1
  O  O73  1  0.00000000  0.62637000  0.14130700  1
  O  O74  1  0.12451300  0.00000000  0.75042100  1
  O  O75  1  0.12637000  0.50000000  0.64130700  1
  O  O76  1  0.12601400  0.74358000  0.74235900  1
  O  O77  1  0.12601400  0.25642000  0.74235900  1
  O  O78  1  0.24358000  0.37398600  0.24235900  1
  O  O79  1  0.24358000  0.62601400  0.24235900  1
