# generated using pymatgen
data_NbPO5
_symmetry_space_group_name_H-M   'P 1'
_cell_length_a   6.55773600
_cell_length_b   7.52707200
_cell_length_c   7.66239200
_cell_angle_alpha   90.00000000
_cell_angle_beta   90.00000000
_cell_angle_gamma   90.00000000
_symmetry_Int_Tables_number   1
_chemical_formula_structural   NbPO5
_chemical_formula_sum   'Nb4 P4 O20'
_cell_volume   378.21989132
_cell_formula_units_Z   4
loop_
 _symmetry_equiv_pos_site_id
 _symmetry_equiv_pos_as_xyz
  1  'x, y, z'
loop_
 _atom_site_type_symbol
 _atom_site_label
 _atom_site_symmetry_multiplicity
 _atom_site_fract_x
 _atom_site_fract_y
 _atom_site_fract_z
 _atom_site_occupancy
  Nb  Nb0  1  0.25000000  0.74011100  0.15435600  1
  Nb  Nb1  1  0.75000000  0.24011100  0.34564400  1
  Nb  Nb2  1  0.25000000  0.75988900  0.65435600  1
  Nb  Nb3  1  0.75000000  0.25988900  0.84564400  1
  P  P4  1  0.75000000  0.62321500  0.12179400  1
  P  P5  1  0.25000000  0.12321500  0.37820600  1
  P  P6  1  0.75000000  0.87678500  0.62179400  1
  P  P7  1  0.25000000  0.37678500  0.87820600  1
  O  O8  1  0.25000000  0.48982200  0.04763100  1
  O  O9  1  0.75000000  0.17456700  0.11830000  1
  O  O10  1  0.55878700  0.74137300  0.12738400  1
  O  O11  1  0.94121300  0.74137300  0.12738400  1
  O  O12  1  0.25000000  0.99879100  0.21503800  1
  O  O13  1  0.75000000  0.49879100  0.28496200  1
  O  O14  1  0.05878700  0.24137300  0.37261600  1
  O  O15  1  0.44121300  0.24137300  0.37261600  1
  O  O16  1  0.25000000  0.67456700  0.38170000  1
  O  O17  1  0.75000000  0.98982200  0.45236900  1
  O  O18  1  0.25000000  0.01017800  0.54763100  1
  O  O19  1  0.75000000  0.32543300  0.61830000  1
  O  O20  1  0.55878700  0.75862700  0.62738400  1
  O  O21  1  0.94121300  0.75862700  0.62738400  1
  O  O22  1  0.25000000  0.50120900  0.71503800  1
  O  O23  1  0.75000000  0.00120900  0.78496200  1
  O  O24  1  0.05878700  0.25862700  0.87261600  1
  O  O25  1  0.44121300  0.25862700  0.87261600  1
  O  O26  1  0.25000000  0.82543300  0.88170000  1
  O  O27  1  0.75000000  0.51017800  0.95236900  1
