# generated using pymatgen
data_Li2Ti3O7
_symmetry_space_group_name_H-M   'P 1'
_cell_length_a   10.28823800
_cell_length_b   4.93868200
_cell_length_c   10.57124674
_cell_angle_alpha   90.00000000
_cell_angle_beta   91.94185171
_cell_angle_gamma   90.00000000
_symmetry_Int_Tables_number   1
_chemical_formula_structural   Li2Ti3O7
_chemical_formula_sum   'Li8 Ti12 O28'
_cell_volume   536.82014058
_cell_formula_units_Z   4
loop_
 _symmetry_equiv_pos_site_id
 _symmetry_equiv_pos_as_xyz
  1  'x, y, z'
loop_
 _atom_site_type_symbol
 _atom_site_label
 _atom_site_symmetry_multiplicity
 _atom_site_fract_x
 _atom_site_fract_y
 _atom_site_fract_z
 _atom_site_occupancy
  Li  Li0  1  0.64883750  0.17612950  0.68333900  1
  Li  Li1  1  0.64883750  0.82387050  0.18333900  1
  Li  Li2  1  0.85116250  0.67612950  0.81666100  1
  Li  Li3  1  0.85116250  0.32387050  0.31666100  1
  Li  Li4  1  0.14883750  0.67612950  0.68333900  1
  Li  Li5  1  0.14883750  0.32387050  0.18333900  1
  Li  Li6  1  0.35116250  0.17612950  0.81666100  1
  Li  Li7  1  0.35116250  0.82387050  0.31666100  1
  Ti  Ti8  1  0.75000000  0.75000000  0.50000000  1
  Ti  Ti9  1  0.55971800  0.67802700  0.89615900  1
  Ti  Ti10  1  0.94028200  0.17802700  0.60384100  1
  Ti  Ti11  1  0.55971800  0.32197300  0.39615900  1
  Ti  Ti12  1  0.94028200  0.82197300  0.10384100  1
  Ti  Ti13  1  0.75000000  0.25000000  0.00000000  1
  Ti  Ti14  1  0.25000000  0.25000000  0.50000000  1
  Ti  Ti15  1  0.05971800  0.17802700  0.89615900  1
  Ti  Ti16  1  0.44028200  0.67802700  0.60384100  1
  Ti  Ti17  1  0.05971800  0.82197300  0.39615900  1
  Ti  Ti18  1  0.44028200  0.32197300  0.10384100  1
  Ti  Ti19  1  0.25000000  0.75000000  0.00000000  1
  O  O20  1  0.81877400  0.93432300  0.66209900  1
  O  O21  1  0.81877400  0.06567700  0.16209900  1
  O  O22  1  0.60562450  0.52830850  0.57259700  1
  O  O23  1  0.63246500  0.96139800  0.98232800  1
  O  O24  1  0.60562450  0.47169150  0.07259700  1
  O  O25  1  0.00000000  0.37338900  0.75000000  1
  O  O26  1  0.63246500  0.03860200  0.48232800  1
  O  O27  1  0.86753500  0.46139800  0.51767200  1
  O  O28  1  0.00000000  0.62661100  0.25000000  1
  O  O29  1  0.89437550  0.02830850  0.92740300  1
  O  O30  1  0.86753500  0.53860200  0.01767200  1
  O  O31  1  0.89437550  0.97169150  0.42740300  1
  O  O32  1  0.68122600  0.43432300  0.83790100  1
  O  O33  1  0.68122600  0.56567700  0.33790100  1
  O  O34  1  0.31877400  0.43432300  0.66209900  1
  O  O35  1  0.31877400  0.56567700  0.16209900  1
  O  O36  1  0.10562450  0.02830850  0.57259700  1
  O  O37  1  0.13246500  0.46139800  0.98232800  1
  O  O38  1  0.10562450  0.97169150  0.07259700  1
  O  O39  1  0.50000000  0.87338900  0.75000000  1
  O  O40  1  0.13246500  0.53860200  0.48232800  1
  O  O41  1  0.36753500  0.96139800  0.51767200  1
  O  O42  1  0.50000000  0.12661100  0.25000000  1
  O  O43  1  0.39437550  0.52830850  0.92740300  1
  O  O44  1  0.36753500  0.03860200  0.01767200  1
  O  O45  1  0.39437550  0.47169150  0.42740300  1
  O  O46  1  0.18122600  0.93432300  0.83790100  1
  O  O47  1  0.18122600  0.06567700  0.33790100  1
