# generated using pymatgen
data_Mn2Fe3Sb(PO4)6
_symmetry_space_group_name_H-M   'P 1'
_cell_length_a   8.67696813
_cell_length_b   8.67696813
_cell_length_c   21.34382449
_cell_angle_alpha   90.00000000
_cell_angle_beta   90.00000000
_cell_angle_gamma   120.00000000
_symmetry_Int_Tables_number   1
_chemical_formula_structural   Mn2Fe3Sb(PO4)6
_chemical_formula_sum   'Mn6 Fe9 Sb3 P18 O72'
_cell_volume   1391.67837013
_cell_formula_units_Z   3
loop_
 _symmetry_equiv_pos_site_id
 _symmetry_equiv_pos_as_xyz
  1  'x, y, z'
loop_
 _atom_site_type_symbol
 _atom_site_label
 _atom_site_symmetry_multiplicity
 _atom_site_fract_x
 _atom_site_fract_y
 _atom_site_fract_z
 _atom_site_occupancy
  Mn  Mn0  1  0.66666667  0.33333333  0.32660233  1
  Mn  Mn1  1  0.33333333  0.66666667  0.16719367  1
  Mn  Mn2  1  0.33333333  0.66666667  0.65993567  1
  Mn  Mn3  1  0.00000000  0.00000000  0.50052700  1
  Mn  Mn4  1  0.00000000  0.00000000  0.99326900  1
  Mn  Mn5  1  0.66666667  0.33333333  0.83386033  1
  Fe  Fe6  1  0.66666667  0.33333333  0.18645433  1
  Fe  Fe7  1  0.33333333  0.66666667  0.31279567  1
  Fe  Fe8  1  0.33333333  0.66666667  0.02175267  1
  Fe  Fe9  1  0.33333333  0.66666667  0.51978767  1
  Fe  Fe10  1  0.00000000  0.00000000  0.64612900  1
  Fe  Fe11  1  0.00000000  0.00000000  0.35508600  1
  Fe  Fe12  1  0.00000000  0.00000000  0.85312100  1
  Fe  Fe13  1  0.66666667  0.33333333  0.97946233  1
  Fe  Fe14  1  0.66666667  0.33333333  0.68841933  1
  Sb  Sb15  1  0.00000000  0.00000000  0.14421000  1
  Sb  Sb16  1  0.66666667  0.33333333  0.47754333  1
  Sb  Sb17  1  0.33333333  0.66666667  0.81087667  1
  P  P18  1  0.00202700  0.29646900  0.25147500  1
  P  P19  1  0.70353100  0.70555800  0.25147500  1
  P  P20  1  0.29444200  0.99797300  0.25147500  1
  P  P21  1  0.37643667  0.33652533  0.08415733  1
  P  P22  1  0.96008867  0.62356333  0.08415733  1
  P  P23  1  0.66347467  0.03991133  0.08415733  1
  P  P24  1  0.66869367  0.62980233  0.58480833  1
  P  P25  1  0.37019767  0.03889133  0.58480833  1
  P  P26  1  0.96110867  0.33130633  0.58480833  1
  P  P27  1  0.04310333  0.66985867  0.41749067  1
  P  P28  1  0.62675533  0.95689667  0.41749067  1
  P  P29  1  0.33014133  0.37324467  0.41749067  1
  P  P30  1  0.33536033  0.96313567  0.91814167  1
  P  P31  1  0.03686433  0.37222467  0.91814167  1
  P  P32  1  0.62777533  0.66463967  0.91814167  1
  P  P33  1  0.70977000  0.00319200  0.75082400  1
  P  P34  1  0.29342200  0.29023000  0.75082400  1
  P  P35  1  0.99680800  0.70657800  0.75082400  1
  O  O36  1  0.67431967  0.13956533  0.02413333  1
  O  O37  1  0.46524567  0.32568033  0.02413333  1
  O  O38  1  0.83187467  0.31185133  0.25434133  1
  O  O39  1  0.86043467  0.53475433  0.02413333  1
  O  O40  1  0.00554333  0.20053267  0.18890467  1
  O  O41  1  0.16949133  0.48176367  0.24506867  1
  O  O42  1  0.68814867  0.52002333  0.25434133  1
  O  O43  1  0.51823633  0.68772767  0.24506867  1
  O  O44  1  0.46959967  0.33158833  0.14383433  1
  O  O45  1  0.31227233  0.83050867  0.24506867  1
  O  O46  1  0.18126467  0.16126933  0.07966533  1
  O  O47  1  0.86198867  0.53040033  0.14383433  1
  O  O48  1  0.79946733  0.80501067  0.18890467  1
  O  O49  1  0.47997667  0.16812533  0.25434133  1
  O  O50  1  0.34926367  0.49909033  0.08865433  1
  O  O51  1  0.19498933  0.99445667  0.18890467  1
  O  O52  1  0.14982667  0.65073633  0.08865433  1
  O  O53  1  0.98000467  0.81873533  0.07966533  1
  O  O54  1  0.50090967  0.85017333  0.08865433  1
  O  O55  1  0.66841167  0.13801133  0.14383433  1
  O  O56  1  0.80738167  0.80815533  0.30898433  1
  O  O57  1  0.83873067  0.01999533  0.07966533  1
  O  O58  1  0.19184467  0.99922633  0.30898433  1
  O  O59  1  0.00077367  0.19261833  0.30898433  1
  O  O60  1  0.34098633  0.47289867  0.35746667  1
  O  O61  1  0.13191233  0.65901367  0.35746667  1
  O  O62  1  0.49854133  0.64518467  0.58767467  1
  O  O63  1  0.52710133  0.86808767  0.35746667  1
  O  O64  1  0.67221000  0.53386600  0.52223800  1
  O  O65  1  0.83615800  0.81509700  0.57840200  1
  O  O66  1  0.35481533  0.85335667  0.58767467  1
  O  O67  1  0.18490300  0.02106100  0.57840200  1
  O  O68  1  0.13626633  0.66492167  0.47716767  1
  O  O69  1  0.97893900  0.16384200  0.57840200  1
  O  O70  1  0.84793133  0.49460267  0.41299867  1
  O  O71  1  0.52865533  0.86373367  0.47716767  1
  O  O72  1  0.46613400  0.13834400  0.52223800  1
  O  O73  1  0.14664333  0.50145867  0.58767467  1
  O  O74  1  0.01593033  0.83242367  0.42198767  1
  O  O75  1  0.86165600  0.32779000  0.52223800  1
  O  O76  1  0.81649333  0.98406967  0.42198767  1
  O  O77  1  0.64667133  0.15206867  0.41299867  1
  O  O78  1  0.16757633  0.18350667  0.42198767  1
  O  O79  1  0.33507833  0.47134467  0.47716767  1
  O  O80  1  0.47404833  0.14148867  0.64231767  1
  O  O81  1  0.50539733  0.35332867  0.41299867  1
  O  O82  1  0.85851133  0.33255967  0.64231767  1
  O  O83  1  0.66744033  0.52595167  0.64231767  1
  O  O84  1  0.00765300  0.80623200  0.69080000  1
  O  O85  1  0.79857900  0.99234700  0.69080000  1
  O  O86  1  0.16520800  0.97851800  0.92100800  1
  O  O87  1  0.19376800  0.20142100  0.69080000  1
  O  O88  1  0.33887667  0.86719933  0.85557133  1
  O  O89  1  0.50282467  0.14843033  0.91173533  1
  O  O90  1  0.02148200  0.18669000  0.92100800  1
  O  O91  1  0.85156967  0.35439433  0.91173533  1
  O  O92  1  0.80293300  0.99825500  0.81050100  1
  O  O93  1  0.64560567  0.49717533  0.91173533  1
  O  O94  1  0.51459800  0.82793600  0.74633200  1
  O  O95  1  0.19532200  0.19706700  0.81050100  1
  O  O96  1  0.13280067  0.47167733  0.85557133  1
  O  O97  1  0.81331000  0.83479200  0.92100800  1
  O  O98  1  0.68259700  0.16575700  0.75532100  1
  O  O99  1  0.52832267  0.66112333  0.85557133  1
  O  O100  1  0.48316000  0.31740300  0.75532100  1
  O  O101  1  0.31333800  0.48540200  0.74633200  1
  O  O102  1  0.83424300  0.51684000  0.75532100  1
  O  O103  1  0.00174500  0.80467800  0.81050100  1
  O  O104  1  0.14071500  0.47482200  0.97565100  1
  O  O105  1  0.17206400  0.68666200  0.74633200  1
  O  O106  1  0.52517800  0.66589300  0.97565100  1
  O  O107  1  0.33410700  0.85928500  0.97565100  1
