# generated using pymatgen
data_AgClO3
_symmetry_space_group_name_H-M   'P 1'
_cell_length_a   6.81116500
_cell_length_b   6.81116500
_cell_length_c   6.81116500
_cell_angle_alpha   90.00000000
_cell_angle_beta   90.00000000
_cell_angle_gamma   90.00000000
_symmetry_Int_Tables_number   1
_chemical_formula_structural   AgClO3
_chemical_formula_sum   'Ag4 Cl4 O12'
_cell_volume   315.98335320
_cell_formula_units_Z   4
loop_
 _symmetry_equiv_pos_site_id
 _symmetry_equiv_pos_as_xyz
  1  'x, y, z'
loop_
 _atom_site_type_symbol
 _atom_site_label
 _atom_site_symmetry_multiplicity
 _atom_site_fract_x
 _atom_site_fract_y
 _atom_site_fract_z
 _atom_site_occupancy
  Ag  Ag0  1  0.06995400  0.06995400  0.06995400  1
  Ag  Ag1  1  0.43004600  0.93004600  0.56995400  1
  Ag  Ag2  1  0.56995400  0.43004600  0.93004600  1
  Ag  Ag3  1  0.93004600  0.56995400  0.43004600  1
  Cl  Cl4  1  0.07991400  0.57991400  0.92008600  1
  Cl  Cl5  1  0.42008600  0.42008600  0.42008600  1
  Cl  Cl6  1  0.57991400  0.92008600  0.07991400  1
  Cl  Cl7  1  0.92008600  0.07991400  0.57991400  1
  O  O8  1  0.00478000  0.19336100  0.40772500  1
  O  O9  1  0.09227500  0.99522000  0.69336100  1
  O  O10  1  0.19336100  0.40772500  0.00478000  1
  O  O11  1  0.30663900  0.59227500  0.50478000  1
  O  O12  1  0.40772500  0.00478000  0.19336100  1
  O  O13  1  0.49522000  0.80663900  0.90772500  1
  O  O14  1  0.50478000  0.30663900  0.59227500  1
  O  O15  1  0.59227500  0.50478000  0.30663900  1
  O  O16  1  0.69336100  0.09227500  0.99522000  1
  O  O17  1  0.80663900  0.90772500  0.49522000  1
  O  O18  1  0.90772500  0.49522000  0.80663900  1
  O  O19  1  0.99522000  0.69336100  0.09227500  1
