# generated using pymatgen
data_Ni3OF5
_symmetry_space_group_name_H-M   'P 1'
_cell_length_a   9.04402800
_cell_length_b   6.70495200
_cell_length_c   7.27774729
_cell_angle_alpha   90.00000000
_cell_angle_beta   111.51009231
_cell_angle_gamma   90.00000000
_symmetry_Int_Tables_number   1
_chemical_formula_structural   Ni3OF5
_chemical_formula_sum   'Ni12 O4 F20'
_cell_volume   410.58426661
_cell_formula_units_Z   4
loop_
 _symmetry_equiv_pos_site_id
 _symmetry_equiv_pos_as_xyz
  1  'x, y, z'
loop_
 _atom_site_type_symbol
 _atom_site_label
 _atom_site_symmetry_multiplicity
 _atom_site_fract_x
 _atom_site_fract_y
 _atom_site_fract_z
 _atom_site_occupancy
  Ni  Ni0  1  0.17050200  0.50000000  0.16100000  1
  Ni  Ni1  1  0.16182800  0.50000000  0.67421200  1
  Ni  Ni2  1  0.83614700  0.50000000  0.33928300  1
  Ni  Ni3  1  0.83606700  0.50000000  0.82782300  1
  Ni  Ni4  1  0.49926300  0.50000000  0.49944500  1
  Ni  Ni5  1  0.49535700  0.50000000  0.00081300  1
  Ni  Ni6  1  0.67050200  0.00000000  0.16100000  1
  Ni  Ni7  1  0.66182800  0.00000000  0.67421200  1
  Ni  Ni8  1  0.33614700  0.00000000  0.33928300  1
  Ni  Ni9  1  0.33606700  0.00000000  0.82782300  1
  Ni  Ni10  1  0.99926300  0.00000000  0.49944500  1
  Ni  Ni11  1  0.99535700  0.00000000  0.00081300  1
  O  O12  1  0.26784000  0.50000000  0.96445900  1
  O  O13  1  0.93418500  0.50000000  0.63049400  1
  O  O14  1  0.76784000  0.00000000  0.96445900  1
  O  O15  1  0.43418500  0.00000000  0.63049400  1
  F  F16  1  0.83385700  0.19736900  0.33350400  1
  F  F17  1  0.16654000  0.19670000  0.66668100  1
  F  F18  1  0.39587100  0.50000000  0.70050600  1
  F  F19  1  0.06999200  0.50000000  0.36764900  1
  F  F20  1  0.73198500  0.50000000  0.03551200  1
  F  F21  1  0.60152900  0.50000000  0.29770200  1
  F  F22  1  0.99932100  0.30303100  0.00036600  1
  F  F23  1  0.16654000  0.80330000  0.66668100  1
  F  F24  1  0.83385700  0.80263100  0.33350400  1
  F  F25  1  0.99932100  0.69696900  0.00036600  1
  F  F26  1  0.33385700  0.69736900  0.33350400  1
  F  F27  1  0.66654000  0.69670000  0.66668100  1
  F  F28  1  0.89587100  0.00000000  0.70050600  1
  F  F29  1  0.56999200  0.00000000  0.36764900  1
  F  F30  1  0.23198500  0.00000000  0.03551200  1
  F  F31  1  0.10152900  0.00000000  0.29770200  1
  F  F32  1  0.49932100  0.80303100  0.00036600  1
  F  F33  1  0.66654000  0.30330000  0.66668100  1
  F  F34  1  0.33385700  0.30263100  0.33350400  1
  F  F35  1  0.49932100  0.19696900  0.00036600  1
