# generated using pymatgen
data_VOF2
_symmetry_space_group_name_H-M   'P 1'
_cell_length_a   5.15606600
_cell_length_b   5.35489280
_cell_length_c   11.80233028
_cell_angle_alpha   100.37451932
_cell_angle_beta   102.36293585
_cell_angle_gamma   91.67672277
_symmetry_Int_Tables_number   1
_chemical_formula_structural   VOF2
_chemical_formula_sum   'V6 O6 F12'
_cell_volume   312.32334138
_cell_formula_units_Z   6
loop_
 _symmetry_equiv_pos_site_id
 _symmetry_equiv_pos_as_xyz
  1  'x, y, z'
loop_
 _atom_site_type_symbol
 _atom_site_label
 _atom_site_symmetry_multiplicity
 _atom_site_fract_x
 _atom_site_fract_y
 _atom_site_fract_z
 _atom_site_occupancy
  V  V0  1  0.14184500  0.19928000  0.33015400  1
  V  V1  1  0.36589400  0.30256800  0.66110800  1
  V  V2  1  0.50000000  0.50000000  0.00000000  1
  V  V3  1  0.63410600  0.69743200  0.33889200  1
  V  V4  1  0.00000000  0.00000000  0.00000000  1
  V  V5  1  0.85815500  0.80072000  0.66984600  1
  O  O6  1  0.60584000  0.11386300  0.63741700  1
  O  O7  1  0.78437100  0.73734900  0.02168500  1
  O  O8  1  0.95589500  0.44205900  0.31184000  1
  O  O9  1  0.21562900  0.26265100  0.97831500  1
  O  O10  1  0.04410500  0.55794100  0.68816000  1
  O  O11  1  0.39416000  0.88613700  0.36258300  1
  F  F12  1  0.80848700  0.92389400  0.83147000  1
  F  F13  1  0.50674300  0.61494900  0.62513000  1
  F  F14  1  0.51292900  0.42136900  0.83160600  1
  F  F15  1  0.14570600  0.22317400  0.49933200  1
  F  F16  1  0.14228500  0.06879600  0.71216500  1
  F  F17  1  0.25873900  0.76084200  0.95812300  1
  F  F18  1  0.74126100  0.23915800  0.04187700  1
  F  F19  1  0.85771500  0.93120400  0.28783500  1
  F  F20  1  0.85429400  0.77682600  0.50066800  1
  F  F21  1  0.48707100  0.57863100  0.16839400  1
  F  F22  1  0.49325700  0.38505100  0.37487000  1
  F  F23  1  0.19151300  0.07610600  0.16853000  1
