# generated using pymatgen
data_LiV3O5F3
_symmetry_space_group_name_H-M   'P 1'
_cell_length_a   9.11651600
_cell_length_b   11.15363000
_cell_length_c   5.09511299
_cell_angle_alpha   90.00000000
_cell_angle_beta   91.21470085
_cell_angle_gamma   90.00000000
_symmetry_Int_Tables_number   1
_chemical_formula_structural   LiV3O5F3
_chemical_formula_sum   'Li4 V12 O20 F12'
_cell_volume   517.96610909
_cell_formula_units_Z   4
loop_
 _symmetry_equiv_pos_site_id
 _symmetry_equiv_pos_as_xyz
  1  'x, y, z'
loop_
 _atom_site_type_symbol
 _atom_site_label
 _atom_site_symmetry_multiplicity
 _atom_site_fract_x
 _atom_site_fract_y
 _atom_site_fract_z
 _atom_site_occupancy
  Li  Li0  1  0.49353750  0.66543550  0.74723500  1
  Li  Li1  1  0.49353750  0.33456450  0.24723500  1
  Li  Li2  1  0.99353750  0.16543550  0.74723500  1
  Li  Li3  1  0.99353750  0.83456450  0.24723500  1
  V  V4  1  0.25158250  0.94347150  0.73888400  1
  V  V5  1  0.25158250  0.05652850  0.23888400  1
  V  V6  1  0.50789450  0.17666050  0.77837000  1
  V  V7  1  0.50789450  0.82333950  0.27837000  1
  V  V8  1  0.74316600  0.91813300  0.77931200  1
  V  V9  1  0.74316600  0.08186700  0.27931200  1
  V  V10  1  0.75158250  0.44347150  0.73888400  1
  V  V11  1  0.75158250  0.55652850  0.23888400  1
  V  V12  1  0.00789450  0.67666050  0.77837000  1
  V  V13  1  0.00789450  0.32333950  0.27837000  1
  V  V14  1  0.24316600  0.41813300  0.77931200  1
  V  V15  1  0.24316600  0.58186700  0.27931200  1
  O  O16  1  0.14362350  0.05008250  0.56653000  1
  O  O17  1  0.14362350  0.94991750  0.06653000  1
  O  O18  1  0.37077550  0.06122650  0.91356000  1
  O  O19  1  0.37077550  0.93877350  0.41356000  1
  O  O20  1  0.37282100  0.30908800  0.87072200  1
  O  O21  1  0.37282100  0.69091200  0.37072200  1
  O  O22  1  0.61259400  0.81628000  0.56645700  1
  O  O23  1  0.61259400  0.18372000  0.06645700  1
  O  O24  1  0.63780450  0.06084950  0.59457200  1
  O  O25  1  0.63780450  0.93915050  0.09457200  1
  O  O26  1  0.64362350  0.55008250  0.56653000  1
  O  O27  1  0.64362350  0.44991750  0.06653000  1
  O  O28  1  0.87077550  0.56122650  0.91356000  1
  O  O29  1  0.87077550  0.43877350  0.41356000  1
  O  O30  1  0.87282100  0.80908800  0.87072200  1
  O  O31  1  0.87282100  0.19091200  0.37072200  1
  O  O32  1  0.11259400  0.31628000  0.56645700  1
  O  O33  1  0.11259400  0.68372000  0.06645700  1
  O  O34  1  0.13780450  0.56084950  0.59457200  1
  O  O35  1  0.13780450  0.43915050  0.09457200  1
  F  F36  1  0.38538000  0.81778000  0.91586100  1
  F  F37  1  0.38538000  0.18222000  0.41586100  1
  F  F38  1  0.62022450  0.30771150  0.59233700  1
  F  F39  1  0.62022450  0.69228850  0.09233700  1
  F  F40  1  0.86059600  0.05360000  0.93616000  1
  F  F41  1  0.86059600  0.94640000  0.43616000  1
  F  F42  1  0.88538000  0.31778000  0.91586100  1
  F  F43  1  0.88538000  0.68222000  0.41586100  1
  F  F44  1  0.12022450  0.80771150  0.59233700  1
  F  F45  1  0.12022450  0.19228850  0.09233700  1
  F  F46  1  0.36059600  0.55360000  0.93616000  1
  F  F47  1  0.36059600  0.44640000  0.43616000  1
