# generated using pymatgen
data_Nb2CoO6
_symmetry_space_group_name_H-M   'P 1'
_cell_length_a   4.82937628
_cell_length_b   4.82937628
_cell_length_c   9.21142912
_cell_angle_alpha   90.00000000
_cell_angle_beta   90.00000000
_cell_angle_gamma   90.00000000
_symmetry_Int_Tables_number   1
_chemical_formula_structural   Nb2CoO6
_chemical_formula_sum   'Nb4 Co2 O12'
_cell_volume   214.83701259
_cell_formula_units_Z   2
loop_
 _symmetry_equiv_pos_site_id
 _symmetry_equiv_pos_as_xyz
  1  'x, y, z'
loop_
 _atom_site_type_symbol
 _atom_site_label
 _atom_site_symmetry_multiplicity
 _atom_site_fract_x
 _atom_site_fract_y
 _atom_site_fract_z
 _atom_site_occupancy
  Nb  Nb0  1  0.50000000  0.50000000  0.66935550  1
  Nb  Nb1  1  0.50000000  0.50000000  0.33064450  1
  Nb  Nb2  1  0.00000000  0.00000000  0.83064450  1
  Nb  Nb3  1  0.00000000  0.00000000  0.16935550  1
  Co  Co4  1  0.50000000  0.50000000  0.00000000  1
  Co  Co5  1  0.00000000  0.00000000  0.50000000  1
  O  O6  1  0.69014000  0.30986000  0.50000000  1
  O  O7  1  0.80986000  0.80986000  0.00000000  1
  O  O8  1  0.19014000  0.19014000  0.00000000  1
  O  O9  1  0.30986000  0.69014000  0.50000000  1
  O  O10  1  0.70373375  0.29626625  0.82495750  1
  O  O11  1  0.70373375  0.29626625  0.17504250  1
  O  O12  1  0.79626625  0.79626625  0.67504250  1
  O  O13  1  0.79626625  0.79626625  0.32495750  1
  O  O14  1  0.20373375  0.20373375  0.67504250  1
  O  O15  1  0.20373375  0.20373375  0.32495750  1
  O  O16  1  0.29626625  0.70373375  0.82495750  1
  O  O17  1  0.29626625  0.70373375  0.17504250  1
