# generated using pymatgen
data_Fe7(SiO6)2
_symmetry_space_group_name_H-M   'P 1'
_cell_length_a   8.40271000
_cell_length_b   8.39916400
_cell_length_c   13.39883500
_cell_angle_alpha   90.00000000
_cell_angle_beta   108.04934089
_cell_angle_gamma   90.00000000
_symmetry_Int_Tables_number   1
_chemical_formula_structural   Fe7(SiO6)2
_chemical_formula_sum   'Fe28 Si8 O48'
_cell_volume   899.09814916
_cell_formula_units_Z   4
loop_
 _symmetry_equiv_pos_site_id
 _symmetry_equiv_pos_as_xyz
  1  'x, y, z'
loop_
 _atom_site_type_symbol
 _atom_site_label
 _atom_site_symmetry_multiplicity
 _atom_site_fract_x
 _atom_site_fract_y
 _atom_site_fract_z
 _atom_site_occupancy
  Fe  Fe0  1  0.75000000  0.75000000  0.00000000  1
  Fe  Fe1  1  0.50000000  0.00000000  0.00000000  1
  Fe  Fe2  1  0.16569850  0.99920150  0.83638000  1
  Fe  Fe3  1  0.41972800  0.25293800  0.83676000  1
  Fe  Fe4  1  0.50000000  0.87388600  0.75000000  1
  Fe  Fe5  1  0.83430150  0.99920150  0.66362000  1
  Fe  Fe6  1  0.58027200  0.25293800  0.66324000  1
  Fe  Fe7  1  0.50000000  0.00000000  0.50000000  1
  Fe  Fe8  1  0.75000000  0.25000000  0.50000000  1
  Fe  Fe9  1  0.41972800  0.74706200  0.33676000  1
  Fe  Fe10  1  0.16569850  0.00079850  0.33638000  1
  Fe  Fe11  1  0.50000000  0.12611400  0.25000000  1
  Fe  Fe12  1  0.83430150  0.00079850  0.16362000  1
  Fe  Fe13  1  0.58027200  0.74706200  0.16324000  1
  Fe  Fe14  1  0.25000000  0.25000000  0.00000000  1
  Fe  Fe15  1  0.00000000  0.50000000  0.00000000  1
  Fe  Fe16  1  0.66569850  0.49920150  0.83638000  1
  Fe  Fe17  1  0.91972800  0.75293800  0.83676000  1
  Fe  Fe18  1  0.00000000  0.37388600  0.75000000  1
  Fe  Fe19  1  0.33430150  0.49920150  0.66362000  1
  Fe  Fe20  1  0.08027200  0.75293800  0.66324000  1
  Fe  Fe21  1  0.00000000  0.50000000  0.50000000  1
  Fe  Fe22  1  0.25000000  0.75000000  0.50000000  1
  Fe  Fe23  1  0.91972800  0.24706200  0.33676000  1
  Fe  Fe24  1  0.66569850  0.50079850  0.33638000  1
  Fe  Fe25  1  0.00000000  0.62611400  0.25000000  1
  Fe  Fe26  1  0.33430150  0.50079850  0.16362000  1
  Fe  Fe27  1  0.08027200  0.24706200  0.16324000  1
  Si  Si28  1  0.17025750  0.87288450  0.08618400  1
  Si  Si29  1  0.82974250  0.12711550  0.91381600  1
  Si  Si30  1  0.17025750  0.12711550  0.58618400  1
  Si  Si31  1  0.82974250  0.87288450  0.41381600  1
  Si  Si32  1  0.67025750  0.37288450  0.08618400  1
  Si  Si33  1  0.32974250  0.62711550  0.91381600  1
  Si  Si34  1  0.67025750  0.62711550  0.58618400  1
  Si  Si35  1  0.32974250  0.37288450  0.41381600  1
  O  O36  1  0.24962100  0.98656400  0.00959900  1
  O  O37  1  0.51846300  0.25526300  0.00988300  1
  O  O38  1  0.75037900  0.01343600  0.99040100  1
  O  O39  1  0.48153700  0.74473700  0.99011700  1
  O  O40  1  0.67694850  0.24158850  0.83728100  1
  O  O41  1  0.90884500  0.01078200  0.83938600  1
  O  O42  1  0.41977000  0.00242600  0.84444900  1
  O  O43  1  0.67331200  0.74666800  0.83977300  1
  O  O44  1  0.32668800  0.74666800  0.66022700  1
  O  O45  1  0.58023000  0.00242600  0.65555100  1
  O  O46  1  0.09115500  0.01078200  0.66061400  1
  O  O47  1  0.32305150  0.24158850  0.66271900  1
  O  O48  1  0.24962100  0.01343600  0.50959900  1
  O  O49  1  0.51846300  0.74473700  0.50988300  1
  O  O50  1  0.48153700  0.25526300  0.49011700  1
  O  O51  1  0.75037900  0.98656400  0.49040100  1
  O  O52  1  0.90884500  0.98921800  0.33938600  1
  O  O53  1  0.67694850  0.75841150  0.33728100  1
  O  O54  1  0.67331200  0.25333200  0.33977300  1
  O  O55  1  0.41977000  0.99757400  0.34444900  1
  O  O56  1  0.58023000  0.99757400  0.15555100  1
  O  O57  1  0.32668800  0.25333200  0.16022700  1
  O  O58  1  0.32305150  0.75841150  0.16271900  1
  O  O59  1  0.09115500  0.98921800  0.16061400  1
  O  O60  1  0.74962100  0.48656400  0.00959900  1
  O  O61  1  0.01846300  0.75526300  0.00988300  1
  O  O62  1  0.25037900  0.51343600  0.99040100  1
  O  O63  1  0.98153700  0.24473700  0.99011700  1
  O  O64  1  0.17694850  0.74158850  0.83728100  1
  O  O65  1  0.40884500  0.51078200  0.83938600  1
  O  O66  1  0.91977000  0.50242600  0.84444900  1
  O  O67  1  0.17331200  0.24666800  0.83977300  1
  O  O68  1  0.82668800  0.24666800  0.66022700  1
  O  O69  1  0.08023000  0.50242600  0.65555100  1
  O  O70  1  0.59115500  0.51078200  0.66061400  1
  O  O71  1  0.82305150  0.74158850  0.66271900  1
  O  O72  1  0.74962100  0.51343600  0.50959900  1
  O  O73  1  0.01846300  0.24473700  0.50988300  1
  O  O74  1  0.98153700  0.75526300  0.49011700  1
  O  O75  1  0.25037900  0.48656400  0.49040100  1
  O  O76  1  0.40884500  0.48921800  0.33938600  1
  O  O77  1  0.17694850  0.25841150  0.33728100  1
  O  O78  1  0.17331200  0.75333200  0.33977300  1
  O  O79  1  0.91977000  0.49757400  0.34444900  1
  O  O80  1  0.08023000  0.49757400  0.15555100  1
  O  O81  1  0.82668800  0.75333200  0.16022700  1
  O  O82  1  0.82305150  0.25841150  0.16271900  1
  O  O83  1  0.59115500  0.48921800  0.16061400  1
