# generated using pymatgen
data_LiCuO
_symmetry_space_group_name_H-M   'P 1'
_cell_length_a   3.49430200
_cell_length_b   9.13411400
_cell_length_c   4.81092400
_cell_angle_alpha   90.00000000
_cell_angle_beta   90.00000000
_cell_angle_gamma   90.00000000
_symmetry_Int_Tables_number   1
_chemical_formula_structural   LiCuO
_chemical_formula_sum   'Li4 Cu4 O4'
_cell_volume   153.55195869
_cell_formula_units_Z   4
loop_
 _symmetry_equiv_pos_site_id
 _symmetry_equiv_pos_as_xyz
  1  'x, y, z'
loop_
 _atom_site_type_symbol
 _atom_site_label
 _atom_site_symmetry_multiplicity
 _atom_site_fract_x
 _atom_site_fract_y
 _atom_site_fract_z
 _atom_site_occupancy
  Li  Li0  1  0.50000000  0.77292400  0.75000000  1
  Li  Li1  1  0.00000000  0.72707600  0.25000000  1
  Li  Li2  1  0.00000000  0.27292400  0.75000000  1
  Li  Li3  1  0.50000000  0.22707600  0.25000000  1
  Cu  Cu4  1  0.00000000  0.00000000  0.50000000  1
  Cu  Cu5  1  0.00000000  0.00000000  0.00000000  1
  Cu  Cu6  1  0.50000000  0.50000000  0.50000000  1
  Cu  Cu7  1  0.50000000  0.50000000  0.00000000  1
  O  O8  1  0.50000000  0.65380500  0.25000000  1
  O  O9  1  0.00000000  0.84619500  0.75000000  1
  O  O10  1  0.00000000  0.15380500  0.25000000  1
  O  O11  1  0.50000000  0.34619500  0.75000000  1
