# generated using pymatgen
data_Li9Fe5O12
_symmetry_space_group_name_H-M   'P 1'
_cell_length_a   5.19413719
_cell_length_b   9.24724017
_cell_length_c   10.13804771
_cell_angle_alpha   90.00000000
_cell_angle_beta   92.65754808
_cell_angle_gamma   90.00000000
_symmetry_Int_Tables_number   1
_chemical_formula_structural   Li9Fe5O12
_chemical_formula_sum   'Li18 Fe10 O24'
_cell_volume   486.42126264
_cell_formula_units_Z   2
loop_
 _symmetry_equiv_pos_site_id
 _symmetry_equiv_pos_as_xyz
  1  'x, y, z'
loop_
 _atom_site_type_symbol
 _atom_site_label
 _atom_site_symmetry_multiplicity
 _atom_site_fract_x
 _atom_site_fract_y
 _atom_site_fract_z
 _atom_site_occupancy
  Li  Li0  1  0.29399700  0.50000000  0.23109500  1
  Li  Li1  1  0.72828400  0.00000000  0.69579400  1
  Li  Li2  1  0.57333200  0.76053200  0.74352100  1
  Li  Li3  1  0.07333200  0.73946800  0.74352100  1
  Li  Li4  1  0.50000000  0.50000000  0.50000000  1
  Li  Li5  1  0.42666800  0.76053200  0.25647900  1
  Li  Li6  1  0.92666800  0.73946800  0.25647900  1
  Li  Li7  1  0.27171600  0.00000000  0.30420600  1
  Li  Li8  1  0.70600300  0.50000000  0.76890500  1
  Li  Li9  1  0.79399700  0.00000000  0.23109500  1
  Li  Li10  1  0.22828400  0.50000000  0.69579400  1
  Li  Li11  1  0.07333200  0.26053200  0.74352100  1
  Li  Li12  1  0.57333200  0.23946800  0.74352100  1
  Li  Li13  1  0.00000000  0.00000000  0.50000000  1
  Li  Li14  1  0.92666800  0.26053200  0.25647900  1
  Li  Li15  1  0.42666800  0.23946800  0.25647900  1
  Li  Li16  1  0.77171600  0.50000000  0.30420600  1
  Li  Li17  1  0.20600300  0.00000000  0.76890500  1
  Fe  Fe18  1  0.00000000  0.83470400  0.00000000  1
  Fe  Fe19  1  0.50000000  0.00000000  0.00000000  1
  Fe  Fe20  1  0.50000000  0.66529600  0.00000000  1
  Fe  Fe21  1  0.50000000  0.83380900  0.50000000  1
  Fe  Fe22  1  0.00000000  0.66619100  0.50000000  1
  Fe  Fe23  1  0.50000000  0.33470400  0.00000000  1
  Fe  Fe24  1  0.00000000  0.50000000  0.00000000  1
  Fe  Fe25  1  0.00000000  0.16529600  0.00000000  1
  Fe  Fe26  1  0.00000000  0.33380900  0.50000000  1
  Fe  Fe27  1  0.50000000  0.16619100  0.50000000  1
  O  O28  1  0.83066850  0.00000000  0.89203200  1
  O  O29  1  0.16818150  0.82358650  0.38122500  1
  O  O30  1  0.66818150  0.67641350  0.38122500  1
  O  O31  1  0.17734000  0.66552200  0.10854700  1
  O  O32  1  0.67734000  0.83447800  0.10854700  1
  O  O33  1  0.61948700  0.00000000  0.38403900  1
  O  O34  1  0.38051300  0.00000000  0.61596100  1
  O  O35  1  0.82266000  0.66552200  0.89145300  1
  O  O36  1  0.32266000  0.83447800  0.89145300  1
  O  O37  1  0.83181850  0.82358650  0.61877500  1
  O  O38  1  0.33181850  0.67641350  0.61877500  1
  O  O39  1  0.16933150  0.00000000  0.10796800  1
  O  O40  1  0.33066850  0.50000000  0.89203200  1
  O  O41  1  0.66818150  0.32358650  0.38122500  1
  O  O42  1  0.16818150  0.17641350  0.38122500  1
  O  O43  1  0.67734000  0.16552200  0.10854700  1
  O  O44  1  0.17734000  0.33447800  0.10854700  1
  O  O45  1  0.11948700  0.50000000  0.38403900  1
  O  O46  1  0.88051300  0.50000000  0.61596100  1
  O  O47  1  0.32266000  0.16552200  0.89145300  1
  O  O48  1  0.82266000  0.33447800  0.89145300  1
  O  O49  1  0.33181850  0.32358650  0.61877500  1
  O  O50  1  0.83181850  0.17641350  0.61877500  1
  O  O51  1  0.66933150  0.50000000  0.10796800  1
