# generated using pymatgen
data_Li2Nb4O11
_symmetry_space_group_name_H-M   'P 1'
_cell_length_a   15.96693400
_cell_length_b   3.79267400
_cell_length_c   9.93105310
_cell_angle_alpha   90.00000000
_cell_angle_beta   126.79948726
_cell_angle_gamma   90.00000000
_symmetry_Int_Tables_number   1
_chemical_formula_structural   Li2Nb4O11
_chemical_formula_sum   'Li4 Nb8 O22'
_cell_volume   481.56187813
_cell_formula_units_Z   2
loop_
 _symmetry_equiv_pos_site_id
 _symmetry_equiv_pos_as_xyz
  1  'x, y, z'
loop_
 _atom_site_type_symbol
 _atom_site_label
 _atom_site_symmetry_multiplicity
 _atom_site_fract_x
 _atom_site_fract_y
 _atom_site_fract_z
 _atom_site_occupancy
  Li  Li0  1  0.11499500  0.00000000  0.75930200  1
  Li  Li1  1  0.88500500  0.00000000  0.24069800  1
  Li  Li2  1  0.61499500  0.50000000  0.75930200  1
  Li  Li3  1  0.38500500  0.50000000  0.24069800  1
  Nb  Nb4  1  0.65216200  0.50000000  0.14634400  1
  Nb  Nb5  1  0.12866700  0.50000000  0.42176800  1
  Nb  Nb6  1  0.87133300  0.50000000  0.57823200  1
  Nb  Nb7  1  0.34783800  0.50000000  0.85365600  1
  Nb  Nb8  1  0.15216200  0.00000000  0.14634400  1
  Nb  Nb9  1  0.62866700  0.00000000  0.42176800  1
  Nb  Nb10  1  0.37133300  0.00000000  0.57823200  1
  Nb  Nb11  1  0.84783800  0.00000000  0.85365600  1
  O  O12  1  0.16413700  0.00000000  0.40876800  1
  O  O13  1  0.34704100  0.00000000  0.78176400  1
  O  O14  1  0.17596400  0.00000000  0.99406500  1
  O  O15  1  0.81641000  0.50000000  0.34874500  1
  O  O16  1  0.98974500  0.50000000  0.31328900  1
  O  O17  1  0.01025500  0.50000000  0.68671100  1
  O  O18  1  0.18359000  0.50000000  0.65125500  1
  O  O19  1  0.00000000  0.00000000  0.00000000  1
  O  O20  1  0.82403600  0.00000000  0.00593500  1
  O  O21  1  0.65295900  0.00000000  0.21823600  1
  O  O22  1  0.83586300  0.00000000  0.59123200  1
  O  O23  1  0.66413700  0.50000000  0.40876800  1
  O  O24  1  0.84704100  0.50000000  0.78176400  1
  O  O25  1  0.67596400  0.50000000  0.99406500  1
  O  O26  1  0.31641000  0.00000000  0.34874500  1
  O  O27  1  0.48974500  0.00000000  0.31328900  1
  O  O28  1  0.51025500  0.00000000  0.68671100  1
  O  O29  1  0.68359000  0.00000000  0.65125500  1
  O  O30  1  0.50000000  0.50000000  0.00000000  1
  O  O31  1  0.32403600  0.50000000  0.00593500  1
  O  O32  1  0.15295900  0.50000000  0.21823600  1
  O  O33  1  0.33586300  0.50000000  0.59123200  1
