# generated using pymatgen
data_CuH4(IO4)2
_symmetry_space_group_name_H-M   'P 1'
_cell_length_a   6.71982100
_cell_length_b   4.88546700
_cell_length_c   11.33671171
_cell_angle_alpha   90.00000000
_cell_angle_beta   104.36272328
_cell_angle_gamma   90.00000000
_symmetry_Int_Tables_number   1
_chemical_formula_structural   CuH4(IO4)2
_chemical_formula_sum   'Cu2 H8 I4 O16'
_cell_volume   360.54564600
_cell_formula_units_Z   2
loop_
 _symmetry_equiv_pos_site_id
 _symmetry_equiv_pos_as_xyz
  1  'x, y, z'
loop_
 _atom_site_type_symbol
 _atom_site_label
 _atom_site_symmetry_multiplicity
 _atom_site_fract_x
 _atom_site_fract_y
 _atom_site_fract_z
 _atom_site_occupancy
  Cu  Cu0  1  0.00000000  0.00000000  0.00000000  1
  Cu  Cu1  1  0.00000000  0.50000000  0.50000000  1
  H  H2  1  0.82157800  0.09128600  0.57362000  1
  H  H3  1  0.82157800  0.40871400  0.07362000  1
  H  H4  1  0.65949800  0.26600200  0.95963000  1
  H  H5  1  0.34050200  0.76600200  0.54037000  1
  H  H6  1  0.65949800  0.23399800  0.45963000  1
  H  H7  1  0.34050200  0.73399800  0.04037000  1
  H  H8  1  0.17842200  0.59128600  0.92638000  1
  H  H9  1  0.17842200  0.90871400  0.42638000  1
  I  I10  1  0.73963300  0.63889100  0.73193400  1
  I  I11  1  0.73963300  0.86110900  0.23193400  1
  I  I12  1  0.26036700  0.13889100  0.76806600  1
  I  I13  1  0.26036700  0.36110900  0.26806600  1
  O  O14  1  0.92908000  0.81225400  0.66368700  1
  O  O15  1  0.77552800  0.27219000  0.53324700  1
  O  O16  1  0.92908000  0.68774600  0.16368700  1
  O  O17  1  0.79081600  0.79005500  0.88506200  1
  O  O18  1  0.77552800  0.22781000  0.03324700  1
  O  O19  1  0.51665500  0.84889400  0.65886100  1
  O  O20  1  0.79081600  0.70994500  0.38506200  1
  O  O21  1  0.48334500  0.34889400  0.84113900  1
  O  O22  1  0.51665500  0.65110600  0.15886100  1
  O  O23  1  0.20918400  0.29005500  0.61493800  1
  O  O24  1  0.48334500  0.15110600  0.34113900  1
  O  O25  1  0.22447200  0.77219000  0.96675300  1
  O  O26  1  0.20918400  0.20994500  0.11493800  1
  O  O27  1  0.07092000  0.31225400  0.83631300  1
  O  O28  1  0.22447200  0.72781000  0.46675300  1
  O  O29  1  0.07092000  0.18774600  0.33631300  1
