# generated using pymatgen
data_H16Ru3C6(Cl3O7)2
_symmetry_space_group_name_H-M   'P 1'
_cell_length_a   6.64707800
_cell_length_b   7.40065143
_cell_length_c   15.19592987
_cell_angle_alpha   91.91368652
_cell_angle_beta   98.75986802
_cell_angle_gamma   116.14643866
_symmetry_Int_Tables_number   1
_chemical_formula_structural   H16Ru3C6(Cl3O7)2
_chemical_formula_sum   'H16 Ru3 C6 Cl6 O14'
_cell_volume   658.93817378
_cell_formula_units_Z   1
loop_
 _symmetry_equiv_pos_site_id
 _symmetry_equiv_pos_as_xyz
  1  'x, y, z'
loop_
 _atom_site_type_symbol
 _atom_site_label
 _atom_site_symmetry_multiplicity
 _atom_site_fract_x
 _atom_site_fract_y
 _atom_site_fract_z
 _atom_site_occupancy
  H  H0  1  0.63726600  0.34956200  0.35839500  1
  H  H1  1  0.36273400  0.65043800  0.64160500  1
  H  H2  1  0.90098500  0.48595600  0.37878300  1
  H  H3  1  0.09901500  0.51404400  0.62121700  1
  H  H4  1  0.72216400  0.13282200  0.56753900  1
  H  H5  1  0.27783600  0.86717800  0.43246100  1
  H  H6  1  0.77721900  0.23300600  0.47735700  1
  H  H7  1  0.22278100  0.76699400  0.52264300  1
  H  H8  1  0.05086000  0.08457000  0.67917000  1
  H  H9  1  0.94914000  0.91543000  0.32083000  1
  H  H10  1  0.29536600  0.15641500  0.65683000  1
  H  H11  1  0.70463400  0.84358500  0.34317000  1
  H  H12  1  0.77408500  0.66909400  0.57981800  1
  H  H13  1  0.22591500  0.33090600  0.42018200  1
  H  H14  1  0.74147600  0.60281600  0.47695200  1
  H  H15  1  0.25852400  0.39718400  0.52304800  1
  Ru  Ru16  1  0.00000000  0.00000000  0.50000000  1
  Ru  Ru17  1  0.74116800  0.61128000  0.82222300  1
  Ru  Ru18  1  0.25883200  0.38872000  0.17777700  1
  C  C19  1  0.77630200  0.41131100  0.88776600  1
  C  C20  1  0.22369800  0.58868900  0.11223400  1
  C  C21  1  0.73156900  0.75190900  0.92578400  1
  C  C22  1  0.26843100  0.24809100  0.07421600  1
  C  C23  1  0.06201200  0.77077800  0.83444100  1
  C  C24  1  0.93798800  0.22922200  0.16555900  1
  Cl  Cl25  1  0.72670600  0.42341300  0.68039200  1
  Cl  Cl26  1  0.27329400  0.57658700  0.31960800  1
  Cl  Cl27  1  0.68294500  0.86210400  0.73343700  1
  Cl  Cl28  1  0.31705500  0.13789600  0.26656300  1
  Cl  Cl29  1  0.32896600  0.41799300  0.80676700  1
  Cl  Cl30  1  0.67103400  0.58200700  0.19323300  1
  O  O31  1  0.76953900  0.42032700  0.40834600  1
  O  O32  1  0.23046100  0.57967300  0.59165400  1
  O  O33  1  0.76094900  0.11380300  0.50970400  1
  O  O34  1  0.23905100  0.88619700  0.49029600  1
  O  O35  1  0.13637300  0.05194300  0.63946500  1
  O  O36  1  0.86362700  0.94805700  0.36053500  1
  O  O37  1  0.74858700  0.71095300  0.52000100  1
  O  O38  1  0.25141300  0.28904700  0.47999900  1
  O  O39  1  0.79942900  0.29157700  0.92950700  1
  O  O40  1  0.20057100  0.70842300  0.07049300  1
  O  O41  1  0.72256500  0.83660800  0.98903300  1
  O  O42  1  0.27743500  0.16339200  0.01096700  1
  O  O43  1  0.25633000  0.87091800  0.84460200  1
  O  O44  1  0.74367000  0.12908200  0.15539800  1
