# generated using pymatgen
data_MgBP(H3O4)2
_symmetry_space_group_name_H-M   'P 1'
_cell_length_a   15.00235761
_cell_length_b   15.00235761
_cell_length_c   14.09536883
_cell_angle_alpha   90.00000000
_cell_angle_beta   90.00000000
_cell_angle_gamma   120.00000000
_symmetry_Int_Tables_number   1
_chemical_formula_structural   MgBP(H3O4)2
_chemical_formula_sum   'Mg18 B18 P18 H108 O144'
_cell_volume   2747.42662794
_cell_formula_units_Z   18
loop_
 _symmetry_equiv_pos_site_id
 _symmetry_equiv_pos_as_xyz
  1  'x, y, z'
loop_
 _atom_site_type_symbol
 _atom_site_label
 _atom_site_symmetry_multiplicity
 _atom_site_fract_x
 _atom_site_fract_y
 _atom_site_fract_z
 _atom_site_occupancy
  Mg  Mg0  1  0.83307533  0.66666667  0.41666667  1
  Mg  Mg1  1  0.66666667  0.83359133  0.58333333  1
  Mg  Mg2  1  0.16640867  0.83307533  0.58333333  1
  Mg  Mg3  1  0.83359133  0.16692467  0.41666667  1
  Mg  Mg4  1  0.33333333  0.16640867  0.41666667  1
  Mg  Mg5  1  0.16692467  0.33333333  0.58333333  1
  Mg  Mg6  1  0.49974200  0.00000000  0.75000000  1
  Mg  Mg7  1  0.33333333  0.16692467  0.91666667  1
  Mg  Mg8  1  0.83307533  0.16640867  0.91666667  1
  Mg  Mg9  1  0.50025800  0.50025800  0.75000000  1
  Mg  Mg10  1  0.00000000  0.49974200  0.75000000  1
  Mg  Mg11  1  0.83359133  0.66666667  0.91666667  1
  Mg  Mg12  1  0.16640867  0.33333333  0.08333333  1
  Mg  Mg13  1  0.00000000  0.50025800  0.25000000  1
  Mg  Mg14  1  0.49974200  0.49974200  0.25000000  1
  Mg  Mg15  1  0.16692467  0.83359133  0.08333333  1
  Mg  Mg16  1  0.66666667  0.83307533  0.08333333  1
  Mg  Mg17  1  0.50025800  0.00000000  0.25000000  1
  B  B18  1  0.80929300  0.80929300  0.75000000  1
  B  B19  1  0.80929300  0.00000000  0.25000000  1
  B  B20  1  0.00000000  0.80929300  0.25000000  1
  B  B21  1  0.19070700  0.00000000  0.75000000  1
  B  B22  1  0.00000000  0.19070700  0.75000000  1
  B  B23  1  0.19070700  0.19070700  0.25000000  1
  B  B24  1  0.47595967  0.14262633  0.08333333  1
  B  B25  1  0.47595967  0.33333333  0.58333333  1
  B  B26  1  0.66666667  0.14262633  0.58333333  1
  B  B27  1  0.85737367  0.33333333  0.08333333  1
  B  B28  1  0.66666667  0.52404033  0.08333333  1
  B  B29  1  0.85737367  0.52404033  0.58333333  1
  B  B30  1  0.14262633  0.47595967  0.41666667  1
  B  B31  1  0.14262633  0.66666667  0.91666667  1
  B  B32  1  0.33333333  0.47595967  0.91666667  1
  B  B33  1  0.52404033  0.66666667  0.41666667  1
  B  B34  1  0.33333333  0.85737367  0.41666667  1
  B  B35  1  0.52404033  0.85737367  0.91666667  1
  P  P36  1  0.81013500  0.81013500  0.25000000  1
  P  P37  1  0.81013500  0.00000000  0.75000000  1
  P  P38  1  0.00000000  0.81013500  0.75000000  1
  P  P39  1  0.18986500  0.00000000  0.25000000  1
  P  P40  1  0.00000000  0.18986500  0.25000000  1
  P  P41  1  0.18986500  0.18986500  0.75000000  1
  P  P42  1  0.47680167  0.14346833  0.58333333  1
  P  P43  1  0.47680167  0.33333333  0.08333333  1
  P  P44  1  0.66666667  0.14346833  0.08333333  1
  P  P45  1  0.85653167  0.33333333  0.58333333  1
  P  P46  1  0.66666667  0.52319833  0.58333333  1
  P  P47  1  0.85653167  0.52319833  0.08333333  1
  P  P48  1  0.14346833  0.47680167  0.91666667  1
  P  P49  1  0.14346833  0.66666667  0.41666667  1
  P  P50  1  0.33333333  0.47680167  0.41666667  1
  P  P51  1  0.52319833  0.66666667  0.91666667  1
  P  P52  1  0.33333333  0.85653167  0.91666667  1
  P  P53  1  0.52319833  0.85653167  0.41666667  1
  H  H54  1  0.69362700  0.49573000  0.32802000  1
  H  H55  1  0.49573000  0.80210300  0.67198000  1
  H  H56  1  0.63355900  0.66316800  0.49736800  1
  H  H57  1  0.54962933  0.76570067  0.74536967  1
  H  H58  1  0.78392867  0.54962933  0.25463033  1
  H  H59  1  0.69977433  0.69627567  0.66929867  1
  H  H60  1  0.97039100  0.63355900  0.50263200  1
  H  H61  1  0.78370400  0.88273800  0.42129700  1
  H  H62  1  0.90096600  0.78370400  0.57870300  1
  H  H63  1  0.00349867  0.69977433  0.33070133  1
  H  H64  1  0.86456367  0.83760333  0.50531333  1
  H  H65  1  0.66316800  0.02960900  0.50263200  1
  H  H66  1  0.69627567  0.99650133  0.33070133  1
  H  H67  1  0.83760333  0.97303967  0.49468667  1
  H  H68  1  0.02696033  0.86456367  0.49468667  1
  H  H69  1  0.19789700  0.69362700  0.67198000  1
  H  H70  1  0.88273800  0.09903400  0.57870300  1
  H  H71  1  0.76570067  0.21607133  0.25463033  1
  H  H72  1  0.11726200  0.90096600  0.42129700  1
  H  H73  1  0.23429933  0.78392867  0.74536967  1
  H  H74  1  0.80210300  0.30637300  0.32802000  1
  H  H75  1  0.97303967  0.13543633  0.50531333  1
  H  H76  1  0.16239667  0.02696033  0.50531333  1
  H  H77  1  0.30372433  0.00349867  0.66929867  1
  H  H78  1  0.33683200  0.97039100  0.49736800  1
  H  H79  1  0.13543633  0.16239667  0.49468667  1
  H  H80  1  0.99650133  0.30022567  0.66929867  1
  H  H81  1  0.09903400  0.21629600  0.42129700  1
  H  H82  1  0.21629600  0.11726200  0.57870300  1
  H  H83  1  0.02960900  0.36644100  0.49736800  1
  H  H84  1  0.30022567  0.30372433  0.33070133  1
  H  H85  1  0.21607133  0.45037067  0.74536967  1
  H  H86  1  0.45037067  0.23429933  0.25463033  1
  H  H87  1  0.36644100  0.33683200  0.50263200  1
  H  H88  1  0.50427000  0.19789700  0.32802000  1
  H  H89  1  0.30637300  0.50427000  0.67198000  1
  H  H90  1  0.36029367  0.82906333  0.66135333  1
  H  H91  1  0.16239667  0.13543633  0.00531333  1
  H  H92  1  0.30022567  0.99650133  0.83070133  1
  H  H93  1  0.21629600  0.09903400  0.07870300  1
  H  H94  1  0.45059533  0.88296267  0.58796367  1
  H  H95  1  0.36644100  0.02960900  0.00263200  1
  H  H96  1  0.63705767  0.96689233  0.83596533  1
  H  H97  1  0.45037067  0.21607133  0.75463033  1
  H  H98  1  0.56763267  0.11703733  0.91203633  1
  H  H99  1  0.67016533  0.03310767  0.66403467  1
  H  H100  1  0.53123033  0.17093667  0.83864667  1
  H  H101  1  0.32983467  0.36294233  0.83596533  1
  H  H102  1  0.36294233  0.32983467  0.66403467  1
  H  H103  1  0.50427000  0.30637300  0.82802000  1
  H  H104  1  0.69362700  0.19789700  0.82802000  1
  H  H105  1  0.86456367  0.02696033  0.00531333  1
  H  H106  1  0.54940467  0.43236733  0.91203633  1
  H  H107  1  0.43236733  0.54940467  0.58796367  1
  H  H108  1  0.78392867  0.23429933  0.75463033  1
  H  H109  1  0.90096600  0.11726200  0.07870300  1
  H  H110  1  0.46876967  0.63970633  0.66135333  1
  H  H111  1  0.63970633  0.46876967  0.83864667  1
  H  H112  1  0.82906333  0.36029367  0.83864667  1
  H  H113  1  0.97039100  0.33683200  0.00263200  1
  H  H114  1  0.00349867  0.30372433  0.83070133  1
  H  H115  1  0.80210300  0.49573000  0.82802000  1
  H  H116  1  0.66316800  0.63355900  0.00263200  1
  H  H117  1  0.76570067  0.54962933  0.75463033  1
  H  H118  1  0.88296267  0.45059533  0.91203633  1
  H  H119  1  0.69627567  0.69977433  0.83070133  1
  H  H120  1  0.96689233  0.63705767  0.66403467  1
  H  H121  1  0.88273800  0.78370400  0.07870300  1
  H  H122  1  0.11703733  0.56763267  0.58796367  1
  H  H123  1  0.03310767  0.67016533  0.83596533  1
  H  H124  1  0.17093667  0.53123033  0.66135333  1
  H  H125  1  0.97303967  0.83760333  0.00531333  1
  H  H126  1  0.02696033  0.16239667  0.99468667  1
  H  H127  1  0.82906333  0.46876967  0.33864667  1
  H  H128  1  0.96689233  0.32983467  0.16403467  1
  H  H129  1  0.88296267  0.43236733  0.41203633  1
  H  H130  1  0.11726200  0.21629600  0.92129700  1
  H  H131  1  0.03310767  0.36294233  0.33596533  1
  H  H132  1  0.30372433  0.30022567  0.16929867  1
  H  H133  1  0.11703733  0.54940467  0.08796367  1
  H  H134  1  0.23429933  0.45037067  0.24536967  1
  H  H135  1  0.33683200  0.36644100  0.99736800  1
  H  H136  1  0.19789700  0.50427000  0.17198000  1
  H  H137  1  0.99650133  0.69627567  0.16929867  1
  H  H138  1  0.02960900  0.66316800  0.99736800  1
  H  H139  1  0.17093667  0.63970633  0.16135333  1
  H  H140  1  0.36029367  0.53123033  0.16135333  1
  H  H141  1  0.53123033  0.36029367  0.33864667  1
  H  H142  1  0.21607133  0.76570067  0.24536967  1
  H  H143  1  0.09903400  0.88273800  0.92129700  1
  H  H144  1  0.45059533  0.56763267  0.08796367  1
  H  H145  1  0.56763267  0.45059533  0.41203633  1
  H  H146  1  0.13543633  0.97303967  0.99468667  1
  H  H147  1  0.30637300  0.80210300  0.17198000  1
  H  H148  1  0.49573000  0.69362700  0.17198000  1
  H  H149  1  0.63705767  0.67016533  0.33596533  1
  H  H150  1  0.67016533  0.63705767  0.16403467  1
  H  H151  1  0.46876967  0.82906333  0.16135333  1
  H  H152  1  0.32983467  0.96689233  0.33596533  1
  H  H153  1  0.43236733  0.88296267  0.08796367  1
  H  H154  1  0.54962933  0.78392867  0.24536967  1
  H  H155  1  0.36294233  0.03310767  0.16403467  1
  H  H156  1  0.63355900  0.97039100  0.99736800  1
  H  H157  1  0.54940467  0.11703733  0.41203633  1
  H  H158  1  0.78370400  0.90096600  0.92129700  1
  H  H159  1  0.69977433  0.00349867  0.16929867  1
  H  H160  1  0.83760333  0.86456367  0.99468667  1
  H  H161  1  0.63970633  0.17093667  0.33864667  1
  O  O162  1  0.70235867  0.59743033  0.49899433  1
  O  O163  1  0.59893200  0.70501000  0.49456400  1
  O  O164  1  0.77100333  0.53633667  0.32322667  1
  O  O165  1  0.53633667  0.76533333  0.67677333  1
  O  O166  1  0.59743033  0.89507167  0.50100567  1
  O  O167  1  0.89392200  0.59893200  0.50543600  1
  O  O168  1  0.73440133  0.77274467  0.67210267  1
  O  O169  1  0.77159500  0.73590300  0.33433900  1
  O  O170  1  0.90133333  0.79699667  0.51010667  1
  O  O171  1  0.79699667  0.89566333  0.48989333  1
  O  O172  1  0.96165667  0.73440133  0.32789733  1
  O  O173  1  0.73590300  0.96430800  0.66566100  1
  O  O174  1  0.91027933  0.82592967  0.71206767  1
  O  O175  1  0.82592967  0.91027933  0.78793233  1
  O  O176  1  0.82592967  0.91565033  0.28793233  1
  O  O177  1  0.91565033  0.82592967  0.21206767  1
  O  O178  1  0.03569200  0.77159500  0.66566100  1
  O  O179  1  0.10492833  0.70235867  0.50100567  1
  O  O180  1  0.70501000  0.10607800  0.50543600  1
  O  O181  1  0.77274467  0.03834333  0.32789733  1
  O  O182  1  0.08434967  0.91027933  0.28793233  1
  O  O183  1  0.91027933  0.08434967  0.21206767  1
  O  O184  1  0.10433667  0.90133333  0.48989333  1
  O  O185  1  0.23466667  0.77100333  0.67677333  1
  O  O186  1  0.89566333  0.09866667  0.51010667  1
  O  O187  1  0.76533333  0.22899667  0.32322667  1
  O  O188  1  0.08972067  0.91565033  0.78793233  1
  O  O189  1  0.91565033  0.08972067  0.71206767  1
  O  O190  1  0.29499000  0.89392200  0.49456400  1
  O  O191  1  0.22725533  0.96165667  0.67210267  1
  O  O192  1  0.89507167  0.29764133  0.49899433  1
  O  O193  1  0.96430800  0.22840500  0.33433900  1
  O  O194  1  0.17407033  0.08434967  0.71206767  1
  O  O195  1  0.08434967  0.17407033  0.78793233  1
  O  O196  1  0.17407033  0.08972067  0.21206767  1
  O  O197  1  0.08972067  0.17407033  0.28793233  1
  O  O198  1  0.26409700  0.03569200  0.33433900  1
  O  O199  1  0.03834333  0.26559867  0.67210267  1
  O  O200  1  0.20300333  0.10433667  0.51010667  1
  O  O201  1  0.09866667  0.20300333  0.48989333  1
  O  O202  1  0.22840500  0.26409700  0.66566100  1
  O  O203  1  0.26559867  0.22725533  0.32789733  1
  O  O204  1  0.10607800  0.40106800  0.49456400  1
  O  O205  1  0.40256967  0.10492833  0.49899433  1
  O  O206  1  0.46366333  0.23466667  0.32322667  1
  O  O207  1  0.22899667  0.46366333  0.67677333  1
  O  O208  1  0.40106800  0.29499000  0.50543600  1
  O  O209  1  0.29764133  0.40256967  0.50100567  1
  O  O210  1  0.36902533  0.93076367  0.83232767  1
  O  O211  1  0.26559867  0.03834333  0.82789733  1
  O  O212  1  0.43767000  0.86967000  0.65656000  1
  O  O213  1  0.20300333  0.09866667  0.01010667  1
  O  O214  1  0.26409700  0.22840500  0.83433900  1
  O  O215  1  0.56058867  0.93226533  0.83876933  1
  O  O216  1  0.40106800  0.10607800  0.00543600  1
  O  O217  1  0.43826167  0.06923633  0.66767233  1
  O  O218  1  0.56800000  0.13033000  0.84344000  1
  O  O219  1  0.46366333  0.22899667  0.82322667  1
  O  O220  1  0.62832333  0.06773467  0.66123067  1
  O  O221  1  0.40256967  0.29764133  0.99899433  1
  O  O222  1  0.57694600  0.15926300  0.04540100  1
  O  O223  1  0.49259633  0.24361267  0.12126567  1
  O  O224  1  0.49259633  0.24898367  0.62126567  1
  O  O225  1  0.58231700  0.15926300  0.54540100  1
  O  O226  1  0.70235867  0.10492833  0.99899433  1
  O  O227  1  0.77159500  0.03569200  0.83433900  1
  O  O228  1  0.37167667  0.43941133  0.83876933  1
  O  O229  1  0.43941133  0.37167667  0.66123067  1
  O  O230  1  0.75101633  0.24361267  0.62126567  1
  O  O231  1  0.57694600  0.41768300  0.54540100  1
  O  O232  1  0.77100333  0.23466667  0.82322667  1
  O  O233  1  0.90133333  0.10433667  0.01010667  1
  O  O234  1  0.56233000  0.43200000  0.84344000  1
  O  O235  1  0.43200000  0.56233000  0.65656000  1
  O  O236  1  0.75638733  0.24898367  0.12126567  1
  O  O237  1  0.58231700  0.42305400  0.04540100  1
  O  O238  1  0.96165667  0.22725533  0.82789733  1
  O  O239  1  0.89392200  0.29499000  0.00543600  1
  O  O240  1  0.56173833  0.63097467  0.83232767  1
  O  O241  1  0.63097467  0.56173833  0.66767233  1
  O  O242  1  0.84073700  0.41768300  0.04540100  1
  O  O243  1  0.75101633  0.50740367  0.12126567  1
  O  O244  1  0.84073700  0.42305400  0.54540100  1
  O  O245  1  0.75638733  0.50740367  0.62126567  1
  O  O246  1  0.93076367  0.36902533  0.66767233  1
  O  O247  1  0.70501000  0.59893200  0.00543600  1
  O  O248  1  0.86967000  0.43767000  0.84344000  1
  O  O249  1  0.76533333  0.53633667  0.82322667  1
  O  O250  1  0.89507167  0.59743033  0.99899433  1
  O  O251  1  0.93226533  0.56058867  0.66123067  1
  O  O252  1  0.77274467  0.73440133  0.82789733  1
  O  O253  1  0.06923633  0.43826167  0.83232767  1
  O  O254  1  0.13033000  0.56800000  0.65656000  1
  O  O255  1  0.89566333  0.79699667  0.01010667  1
  O  O256  1  0.06773467  0.62832333  0.83876933  1
  O  O257  1  0.96430800  0.73590300  0.83433900  1
  O  O258  1  0.03569200  0.26409700  0.16566100  1
  O  O259  1  0.93226533  0.37167667  0.16123067  1
  O  O260  1  0.10433667  0.20300333  0.98989333  1
  O  O261  1  0.86967000  0.43200000  0.34344000  1
  O  O262  1  0.93076367  0.56173833  0.16767233  1
  O  O263  1  0.22725533  0.26559867  0.17210267  1
  O  O264  1  0.06773467  0.43941133  0.33876933  1
  O  O265  1  0.10492833  0.40256967  0.00100567  1
  O  O266  1  0.23466667  0.46366333  0.17677333  1
  O  O267  1  0.13033000  0.56233000  0.15656000  1
  O  O268  1  0.29499000  0.40106800  0.99456400  1
  O  O269  1  0.06923633  0.63097467  0.33232767  1
  O  O270  1  0.24361267  0.49259633  0.37873433  1
  O  O271  1  0.15926300  0.57694600  0.45459900  1
  O  O272  1  0.15926300  0.58231700  0.95459900  1
  O  O273  1  0.24898367  0.49259633  0.87873433  1
  O  O274  1  0.36902533  0.43826167  0.33232767  1
  O  O275  1  0.43826167  0.36902533  0.16767233  1
  O  O276  1  0.03834333  0.77274467  0.17210267  1
  O  O277  1  0.10607800  0.70501000  0.99456400  1
  O  O278  1  0.41768300  0.57694600  0.95459900  1
  O  O279  1  0.24361267  0.75101633  0.87873433  1
  O  O280  1  0.43767000  0.56800000  0.15656000  1
  O  O281  1  0.56800000  0.43767000  0.34344000  1
  O  O282  1  0.22899667  0.76533333  0.17677333  1
  O  O283  1  0.09866667  0.89566333  0.98989333  1
  O  O284  1  0.42305400  0.58231700  0.45459900  1
  O  O285  1  0.24898367  0.75638733  0.37873433  1
  O  O286  1  0.62832333  0.56058867  0.16123067  1
  O  O287  1  0.56058867  0.62832333  0.33876933  1
  O  O288  1  0.22840500  0.96430800  0.16566100  1
  O  O289  1  0.29764133  0.89507167  0.00100567  1
  O  O290  1  0.50740367  0.75101633  0.37873433  1
  O  O291  1  0.41768300  0.84073700  0.45459900  1
  O  O292  1  0.50740367  0.75638733  0.87873433  1
  O  O293  1  0.42305400  0.84073700  0.95459900  1
  O  O294  1  0.59743033  0.70235867  0.00100567  1
  O  O295  1  0.37167667  0.93226533  0.33876933  1
  O  O296  1  0.53633667  0.77100333  0.17677333  1
  O  O297  1  0.43200000  0.86967000  0.15656000  1
  O  O298  1  0.56173833  0.93076367  0.33232767  1
  O  O299  1  0.59893200  0.89392200  0.99456400  1
  O  O300  1  0.43941133  0.06773467  0.16123067  1
  O  O301  1  0.73590300  0.77159500  0.16566100  1
  O  O302  1  0.79699667  0.90133333  0.98989333  1
  O  O303  1  0.56233000  0.13033000  0.34344000  1
  O  O304  1  0.73440133  0.96165667  0.17210267  1
  O  O305  1  0.63097467  0.06923633  0.16767233  1
