# generated using pymatgen
data_Ti2N2O
_symmetry_space_group_name_H-M   'P 1'
_cell_length_a   9.90132400
_cell_length_b   2.99051800
_cell_length_c   15.72121023
_cell_angle_alpha   90.00000000
_cell_angle_beta   103.98762795
_cell_angle_gamma   90.00000000
_symmetry_Int_Tables_number   1
_chemical_formula_structural   Ti2N2O
_chemical_formula_sum   'Ti16 N16 O8'
_cell_volume   451.70318988
_cell_formula_units_Z   8
loop_
 _symmetry_equiv_pos_site_id
 _symmetry_equiv_pos_as_xyz
  1  'x, y, z'
loop_
 _atom_site_type_symbol
 _atom_site_label
 _atom_site_symmetry_multiplicity
 _atom_site_fract_x
 _atom_site_fract_y
 _atom_site_fract_z
 _atom_site_occupancy
  Ti  Ti0  1  0.76258100  0.00000000  0.08619300  1
  Ti  Ti1  1  0.00064900  0.00000000  0.33168500  1
  Ti  Ti2  1  0.23014300  0.00000000  0.57585700  1
  Ti  Ti3  1  0.99935100  0.00000000  0.66831500  1
  Ti  Ti4  1  0.23741900  0.00000000  0.91380700  1
  Ti  Ti5  1  0.73279500  0.50000000  0.24235900  1
  Ti  Ti6  1  0.76985700  0.00000000  0.42414300  1
  Ti  Ti7  1  0.26720500  0.50000000  0.75764100  1
  Ti  Ti8  1  0.26258100  0.50000000  0.08619300  1
  Ti  Ti9  1  0.50064900  0.50000000  0.33168500  1
  Ti  Ti10  1  0.73014300  0.50000000  0.57585700  1
  Ti  Ti11  1  0.49935100  0.50000000  0.66831500  1
  Ti  Ti12  1  0.73741900  0.50000000  0.91380700  1
  Ti  Ti13  1  0.23279500  0.00000000  0.24235900  1
  Ti  Ti14  1  0.26985700  0.50000000  0.42414300  1
  Ti  Ti15  1  0.76720500  0.00000000  0.75764100  1
  N  N16  1  0.85236300  0.00000000  0.21494500  1
  N  N17  1  0.14763700  0.00000000  0.78505500  1
  N  N18  1  0.14818500  0.00000000  0.44893700  1
  N  N19  1  0.87867700  0.50000000  0.70579000  1
  N  N20  1  0.11903300  0.50000000  0.62900700  1
  N  N21  1  0.88096700  0.50000000  0.37099300  1
  N  N22  1  0.85181500  0.00000000  0.55106300  1
  N  N23  1  0.12132300  0.50000000  0.29421000  1
  N  N24  1  0.35236300  0.50000000  0.21494500  1
  N  N25  1  0.64763700  0.50000000  0.78505500  1
  N  N26  1  0.64818500  0.50000000  0.44893700  1
  N  N27  1  0.37867700  0.00000000  0.70579000  1
  N  N28  1  0.61903300  0.00000000  0.62900700  1
  N  N29  1  0.38096700  0.00000000  0.37099300  1
  N  N30  1  0.35181500  0.50000000  0.55106300  1
  N  N31  1  0.62132300  0.00000000  0.29421000  1
  O  O32  1  0.14747500  0.50000000  0.95602000  1
  O  O33  1  0.85252500  0.50000000  0.04398000  1
  O  O34  1  0.64791300  0.50000000  0.12053700  1
  O  O35  1  0.35208700  0.50000000  0.87946300  1
  O  O36  1  0.64747500  0.00000000  0.95602000  1
  O  O37  1  0.35252500  0.00000000  0.04398000  1
  O  O38  1  0.14791300  0.00000000  0.12053700  1
  O  O39  1  0.85208700  0.00000000  0.87946300  1
