# generated using pymatgen
data_Ba4Sn3O10
_symmetry_space_group_name_H-M   'P 1'
_cell_length_a   5.95280600
_cell_length_b   30.26012600
_cell_length_c   5.93575700
_cell_angle_alpha   90.00000000
_cell_angle_beta   90.00000000
_cell_angle_gamma   90.00000000
_symmetry_Int_Tables_number   1
_chemical_formula_structural   Ba4Sn3O10
_chemical_formula_sum   'Ba16 Sn12 O40'
_cell_volume   1069.22369523
_cell_formula_units_Z   4
loop_
 _symmetry_equiv_pos_site_id
 _symmetry_equiv_pos_as_xyz
  1  'x, y, z'
loop_
 _atom_site_type_symbol
 _atom_site_label
 _atom_site_symmetry_multiplicity
 _atom_site_fract_x
 _atom_site_fract_y
 _atom_site_fract_z
 _atom_site_occupancy
  Ba  Ba0  1  0.00000000  0.06933200  0.00000000  1
  Ba  Ba1  1  0.50000000  0.29679200  0.00000000  1
  Ba  Ba2  1  0.00000000  0.20320800  0.00000000  1
  Ba  Ba3  1  0.50000000  0.43066800  0.00000000  1
  Ba  Ba4  1  0.50000000  0.06933200  0.50000000  1
  Ba  Ba5  1  0.50000000  0.20320800  0.50000000  1
  Ba  Ba6  1  0.00000000  0.29679200  0.50000000  1
  Ba  Ba7  1  0.00000000  0.43066800  0.50000000  1
  Ba  Ba8  1  0.50000000  0.56933200  0.00000000  1
  Ba  Ba9  1  0.00000000  0.79679200  0.00000000  1
  Ba  Ba10  1  0.50000000  0.70320800  0.00000000  1
  Ba  Ba11  1  0.00000000  0.93066800  0.00000000  1
  Ba  Ba12  1  0.00000000  0.56933200  0.50000000  1
  Ba  Ba13  1  0.00000000  0.70320800  0.50000000  1
  Ba  Ba14  1  0.50000000  0.79679200  0.50000000  1
  Ba  Ba15  1  0.50000000  0.93066800  0.50000000  1
  Sn  Sn16  1  0.50000000  0.00000000  0.00000000  1
  Sn  Sn17  1  0.50000000  0.13924500  0.00000000  1
  Sn  Sn18  1  0.00000000  0.36075500  0.00000000  1
  Sn  Sn19  1  0.00000000  0.00000000  0.50000000  1
  Sn  Sn20  1  0.50000000  0.36075500  0.50000000  1
  Sn  Sn21  1  0.00000000  0.13924500  0.50000000  1
  Sn  Sn22  1  0.00000000  0.50000000  0.00000000  1
  Sn  Sn23  1  0.00000000  0.63924500  0.00000000  1
  Sn  Sn24  1  0.50000000  0.86075500  0.00000000  1
  Sn  Sn25  1  0.50000000  0.50000000  0.50000000  1
  Sn  Sn26  1  0.00000000  0.86075500  0.50000000  1
  Sn  Sn27  1  0.50000000  0.63924500  0.50000000  1
  O  O28  1  0.50000000  0.06939300  0.00000000  1
  O  O29  1  0.50000000  0.20814900  0.00000000  1
  O  O30  1  0.00000000  0.29185100  0.00000000  1
  O  O31  1  0.00000000  0.43060700  0.00000000  1
  O  O32  1  0.77770000  0.00000000  0.22194500  1
  O  O33  1  0.73691700  0.36151400  0.23668400  1
  O  O34  1  0.23691700  0.13848600  0.23668400  1
  O  O35  1  0.73691700  0.13848600  0.26331600  1
  O  O36  1  0.23691700  0.36151400  0.26331600  1
  O  O37  1  0.27770000  0.00000000  0.27805500  1
  O  O38  1  0.00000000  0.06939300  0.50000000  1
  O  O39  1  0.50000000  0.29185100  0.50000000  1
  O  O40  1  0.00000000  0.20814900  0.50000000  1
  O  O41  1  0.50000000  0.43060700  0.50000000  1
  O  O42  1  0.72230000  0.00000000  0.72194500  1
  O  O43  1  0.76308300  0.36151400  0.73668400  1
  O  O44  1  0.26308300  0.13848600  0.73668400  1
  O  O45  1  0.76308300  0.13848600  0.76331600  1
  O  O46  1  0.26308300  0.36151400  0.76331600  1
  O  O47  1  0.22230000  0.00000000  0.77805500  1
  O  O48  1  0.00000000  0.56939300  0.00000000  1
  O  O49  1  0.00000000  0.70814900  0.00000000  1
  O  O50  1  0.50000000  0.79185100  0.00000000  1
  O  O51  1  0.50000000  0.93060700  0.00000000  1
  O  O52  1  0.27770000  0.50000000  0.22194500  1
  O  O53  1  0.23691700  0.86151400  0.23668400  1
  O  O54  1  0.73691700  0.63848600  0.23668400  1
  O  O55  1  0.23691700  0.63848600  0.26331600  1
  O  O56  1  0.73691700  0.86151400  0.26331600  1
  O  O57  1  0.77770000  0.50000000  0.27805500  1
  O  O58  1  0.50000000  0.56939300  0.50000000  1
  O  O59  1  0.00000000  0.79185100  0.50000000  1
  O  O60  1  0.50000000  0.70814900  0.50000000  1
  O  O61  1  0.00000000  0.93060700  0.50000000  1
  O  O62  1  0.22230000  0.50000000  0.72194500  1
  O  O63  1  0.26308300  0.86151400  0.73668400  1
  O  O64  1  0.76308300  0.63848600  0.73668400  1
  O  O65  1  0.26308300  0.63848600  0.76331600  1
  O  O66  1  0.76308300  0.86151400  0.76331600  1
  O  O67  1  0.72230000  0.50000000  0.77805500  1
