# generated using pymatgen
data_LiCu(PO3)2
_symmetry_space_group_name_H-M   'P 1'
_cell_length_a   5.07351200
_cell_length_b   9.40152600
_cell_length_c   5.64798600
_cell_angle_alpha   90.00000000
_cell_angle_beta   90.00000000
_cell_angle_gamma   90.00000000
_symmetry_Int_Tables_number   1
_chemical_formula_structural   LiCu(PO3)2
_chemical_formula_sum   'Li2 Cu2 P4 O12'
_cell_volume   269.40190034
_cell_formula_units_Z   2
loop_
 _symmetry_equiv_pos_site_id
 _symmetry_equiv_pos_as_xyz
  1  'x, y, z'
loop_
 _atom_site_type_symbol
 _atom_site_label
 _atom_site_symmetry_multiplicity
 _atom_site_fract_x
 _atom_site_fract_y
 _atom_site_fract_z
 _atom_site_occupancy
  Li  Li0  1  0.00000000  0.00000000  0.00000000  1
  Li  Li1  1  0.50000000  0.50000000  0.00000000  1
  Cu  Cu2  1  0.50000000  0.00000000  0.00000000  1
  Cu  Cu3  1  0.00000000  0.50000000  0.00000000  1
  P  P4  1  0.75000000  0.25000000  0.67024100  1
  P  P5  1  0.25000000  0.25000000  0.32975900  1
  P  P6  1  0.25000000  0.75000000  0.67024100  1
  P  P7  1  0.75000000  0.75000000  0.32975900  1
  O  O8  1  0.22741350  0.11235650  0.19541000  1
  O  O9  1  0.77258650  0.11235650  0.80459000  1
  O  O10  1  0.50000000  0.23590000  0.50000000  1
  O  O11  1  0.00000000  0.26410000  0.50000000  1
  O  O12  1  0.72741350  0.38764350  0.80459000  1
  O  O13  1  0.27258650  0.38764350  0.19541000  1
  O  O14  1  0.72741350  0.61235650  0.19541000  1
  O  O15  1  0.27258650  0.61235650  0.80459000  1
  O  O16  1  0.00000000  0.73590000  0.50000000  1
  O  O17  1  0.50000000  0.76410000  0.50000000  1
  O  O18  1  0.22741350  0.88764350  0.80459000  1
  O  O19  1  0.77258650  0.88764350  0.19541000  1
