# generated using pymatgen
data_Mg3(AsO4)2
_symmetry_space_group_name_H-M   'P 1'
_cell_length_a   6.89309800
_cell_length_b   6.89309800
_cell_length_c   19.09307000
_cell_angle_alpha   90.00000000
_cell_angle_beta   90.00000000
_cell_angle_gamma   90.00000000
_symmetry_Int_Tables_number   1
_chemical_formula_structural   Mg3(AsO4)2
_chemical_formula_sum   'Mg18 As12 O48'
_cell_volume   907.20340315
_cell_formula_units_Z   6
loop_
 _symmetry_equiv_pos_site_id
 _symmetry_equiv_pos_as_xyz
  1  'x, y, z'
loop_
 _atom_site_type_symbol
 _atom_site_label
 _atom_site_symmetry_multiplicity
 _atom_site_fract_x
 _atom_site_fract_y
 _atom_site_fract_z
 _atom_site_occupancy
  Mg  Mg0  1  0.25531700  0.75201000  0.37632000  1
  Mg  Mg1  1  0.00000000  0.50000000  0.25000000  1
  Mg  Mg2  1  0.00000000  0.00000000  0.22798200  1
  Mg  Mg3  1  0.74799000  0.75531700  0.12368000  1
  Mg  Mg4  1  0.74468300  0.24799000  0.37632000  1
  Mg  Mg5  1  0.50000000  0.00000000  0.47952200  1
  Mg  Mg6  1  0.50000000  0.50000000  0.27201800  1
  Mg  Mg7  1  0.50000000  0.00000000  0.02047800  1
  Mg  Mg8  1  0.25201000  0.24468300  0.12368000  1
  Mg  Mg9  1  0.75531700  0.25201000  0.87632000  1
  Mg  Mg10  1  0.50000000  0.00000000  0.75000000  1
  Mg  Mg11  1  0.50000000  0.50000000  0.72798200  1
  Mg  Mg12  1  0.24799000  0.25531700  0.62368000  1
  Mg  Mg13  1  0.24468300  0.74799000  0.87632000  1
  Mg  Mg14  1  0.00000000  0.50000000  0.97952200  1
  Mg  Mg15  1  0.00000000  0.00000000  0.77201800  1
  Mg  Mg16  1  0.00000000  0.50000000  0.52047800  1
  Mg  Mg17  1  0.75201000  0.74468300  0.62368000  1
  As  As18  1  0.00000000  0.00000000  0.00000000  1
  As  As19  1  0.15514950  0.25202550  0.37605950  1
  As  As20  1  0.84485050  0.74797450  0.37605950  1
  As  As21  1  0.75202550  0.34485050  0.12394050  1
  As  As22  1  0.50000000  0.00000000  0.25000000  1
  As  As23  1  0.24797450  0.65514950  0.12394050  1
  As  As24  1  0.50000000  0.50000000  0.50000000  1
  As  As25  1  0.65514950  0.75202550  0.87605950  1
  As  As26  1  0.34485050  0.24797450  0.87605950  1
  As  As27  1  0.25202550  0.84485050  0.62394050  1
  As  As28  1  0.00000000  0.50000000  0.75000000  1
  As  As29  1  0.74797450  0.15514950  0.62394050  1
  O  O30  1  0.44693400  0.70962200  0.45538900  1
  O  O31  1  0.28150050  0.04637750  0.39518850  1
  O  O32  1  0.27275350  0.45959750  0.34766450  1
  O  O33  1  0.04040250  0.77275350  0.15233550  1
  O  O34  1  0.01165250  0.70331350  0.44050950  1
  O  O35  1  0.00597900  0.77560000  0.30412600  1
  O  O36  1  0.99402100  0.22440000  0.30412600  1
  O  O37  1  0.98834750  0.29668650  0.44050950  1
  O  O38  1  0.95959750  0.22724650  0.15233550  1
  O  O39  1  0.79037800  0.94693400  0.04461100  1
  O  O40  1  0.79668650  0.51165250  0.05949050  1
  O  O41  1  0.72724650  0.54040250  0.34766450  1
  O  O42  1  0.71849950  0.95362250  0.39518850  1
  O  O43  1  0.72440000  0.50597900  0.19587400  1
  O  O44  1  0.71048250  0.93913550  0.20662750  1
  O  O45  1  0.55306600  0.29037800  0.45538900  1
  O  O46  1  0.56086450  0.21048250  0.29337250  1
  O  O47  1  0.54637750  0.21849950  0.10481150  1
  O  O48  1  0.45362250  0.78150050  0.10481150  1
  O  O49  1  0.43913550  0.78951750  0.29337250  1
  O  O50  1  0.28951750  0.06086450  0.20662750  1
  O  O51  1  0.27560000  0.49402100  0.19587400  1
  O  O52  1  0.20331350  0.48834750  0.05949050  1
  O  O53  1  0.20962200  0.05306600  0.04461100  1
  O  O54  1  0.94693400  0.20962200  0.95538900  1
  O  O55  1  0.78150050  0.54637750  0.89518850  1
  O  O56  1  0.77275350  0.95959750  0.84766450  1
  O  O57  1  0.54040250  0.27275350  0.65233550  1
  O  O58  1  0.51165250  0.20331350  0.94050950  1
  O  O59  1  0.50597900  0.27560000  0.80412600  1
  O  O60  1  0.49402100  0.72440000  0.80412600  1
  O  O61  1  0.48834750  0.79668650  0.94050950  1
  O  O62  1  0.45959750  0.72724650  0.65233550  1
  O  O63  1  0.29037800  0.44693400  0.54461100  1
  O  O64  1  0.29668650  0.01165250  0.55949050  1
  O  O65  1  0.22724650  0.04040250  0.84766450  1
  O  O66  1  0.21849950  0.45362250  0.89518850  1
  O  O67  1  0.22440000  0.00597900  0.69587400  1
  O  O68  1  0.21048250  0.43913550  0.70662750  1
  O  O69  1  0.05306600  0.79037800  0.95538900  1
  O  O70  1  0.06086450  0.71048250  0.79337250  1
  O  O71  1  0.04637750  0.71849950  0.60481150  1
  O  O72  1  0.95362250  0.28150050  0.60481150  1
  O  O73  1  0.93913550  0.28951750  0.79337250  1
  O  O74  1  0.78951750  0.56086450  0.70662750  1
  O  O75  1  0.77560000  0.99402100  0.69587400  1
  O  O76  1  0.70331350  0.98834750  0.55949050  1
  O  O77  1  0.70962200  0.55306600  0.54461100  1
