# generated using pymatgen
data_MoH12Pd(NO)4
_symmetry_space_group_name_H-M   'P 1'
_cell_length_a   7.55336000
_cell_length_b   7.55336000
_cell_length_c   15.79625400
_cell_angle_alpha   90.00000000
_cell_angle_beta   90.00000000
_cell_angle_gamma   90.00000000
_symmetry_Int_Tables_number   1
_chemical_formula_structural   MoH12Pd(NO)4
_chemical_formula_sum   'Mo4 H48 Pd4 N16 O16'
_cell_volume   901.22758571
_cell_formula_units_Z   4
loop_
 _symmetry_equiv_pos_site_id
 _symmetry_equiv_pos_as_xyz
  1  'x, y, z'
loop_
 _atom_site_type_symbol
 _atom_site_label
 _atom_site_symmetry_multiplicity
 _atom_site_fract_x
 _atom_site_fract_y
 _atom_site_fract_z
 _atom_site_occupancy
  Mo  Mo0  1  0.00000000  0.50000000  0.25000000  1
  Mo  Mo1  1  0.00000000  0.00000000  0.00000000  1
  Mo  Mo2  1  0.50000000  0.00000000  0.75000000  1
  Mo  Mo3  1  0.50000000  0.50000000  0.50000000  1
  H  H4  1  0.19585550  0.00000000  0.18246650  1
  H  H5  1  0.00000000  0.69585550  0.43246650  1
  H  H6  1  0.00000000  0.30414450  0.43246650  1
  H  H7  1  0.80414450  0.00000000  0.18246650  1
  H  H8  1  0.80414450  0.50000000  0.06753350  1
  H  H9  1  0.50000000  0.30414450  0.31753350  1
  H  H10  1  0.50000000  0.69585550  0.31753350  1
  H  H11  1  0.19585550  0.50000000  0.06753350  1
  H  H12  1  0.16854550  0.10971350  0.27411150  1
  H  H13  1  0.16854550  0.89028650  0.27411150  1
  H  H14  1  0.60971350  0.16854550  0.02411150  1
  H  H15  1  0.60971350  0.83145450  0.02411150  1
  H  H16  1  0.83145450  0.10971350  0.27411150  1
  H  H17  1  0.83145450  0.89028650  0.27411150  1
  H  H18  1  0.39028650  0.16854550  0.02411150  1
  H  H19  1  0.39028650  0.83145450  0.02411150  1
  H  H20  1  0.33145450  0.89028650  0.47588850  1
  H  H21  1  0.33145450  0.10971350  0.47588850  1
  H  H22  1  0.39028650  0.33145450  0.22588850  1
  H  H23  1  0.39028650  0.66854550  0.22588850  1
  H  H24  1  0.66854550  0.89028650  0.47588850  1
  H  H25  1  0.66854550  0.10971350  0.47588850  1
  H  H26  1  0.60971350  0.33145450  0.22588850  1
  H  H27  1  0.60971350  0.66854550  0.22588850  1
  H  H28  1  0.69585550  0.50000000  0.68246650  1
  H  H29  1  0.50000000  0.19585550  0.93246650  1
  H  H30  1  0.50000000  0.80414450  0.93246650  1
  H  H31  1  0.30414450  0.50000000  0.68246650  1
  H  H32  1  0.30414450  0.00000000  0.56753350  1
  H  H33  1  0.00000000  0.80414450  0.81753350  1
  H  H34  1  0.00000000  0.19585550  0.81753350  1
  H  H35  1  0.69585550  0.00000000  0.56753350  1
  H  H36  1  0.66854550  0.60971350  0.77411150  1
  H  H37  1  0.66854550  0.39028650  0.77411150  1
  H  H38  1  0.10971350  0.66854550  0.52411150  1
  H  H39  1  0.10971350  0.33145450  0.52411150  1
  H  H40  1  0.33145450  0.60971350  0.77411150  1
  H  H41  1  0.33145450  0.39028650  0.77411150  1
  H  H42  1  0.89028650  0.66854550  0.52411150  1
  H  H43  1  0.89028650  0.33145450  0.52411150  1
  H  H44  1  0.83145450  0.39028650  0.97588850  1
  H  H45  1  0.83145450  0.60971350  0.97588850  1
  H  H46  1  0.89028650  0.83145450  0.72588850  1
  H  H47  1  0.89028650  0.16854550  0.72588850  1
  H  H48  1  0.16854550  0.39028650  0.97588850  1
  H  H49  1  0.16854550  0.60971350  0.97588850  1
  H  H50  1  0.10971350  0.83145450  0.72588850  1
  H  H51  1  0.10971350  0.16854550  0.72588850  1
  Pd  Pd52  1  0.50000000  0.00000000  0.25000000  1
  Pd  Pd53  1  0.50000000  0.50000000  0.00000000  1
  Pd  Pd54  1  0.00000000  0.50000000  0.75000000  1
  Pd  Pd55  1  0.00000000  0.00000000  0.50000000  1
  N  N56  1  0.22643500  0.00000000  0.24654200  1
  N  N57  1  0.00000000  0.72643500  0.49654200  1
  N  N58  1  0.00000000  0.27356500  0.49654200  1
  N  N59  1  0.77356500  0.00000000  0.24654200  1
  N  N60  1  0.77356500  0.50000000  0.00345800  1
  N  N61  1  0.50000000  0.27356500  0.25345800  1
  N  N62  1  0.50000000  0.72643500  0.25345800  1
  N  N63  1  0.22643500  0.50000000  0.00345800  1
  N  N64  1  0.72643500  0.50000000  0.74654200  1
  N  N65  1  0.50000000  0.22643500  0.99654200  1
  N  N66  1  0.50000000  0.77356500  0.99654200  1
  N  N67  1  0.27356500  0.50000000  0.74654200  1
  N  N68  1  0.27356500  0.00000000  0.50345800  1
  N  N69  1  0.00000000  0.77356500  0.75345800  1
  N  N70  1  0.00000000  0.22643500  0.75345800  1
  N  N71  1  0.72643500  0.00000000  0.50345800  1
  O  O72  1  0.00000000  0.30308300  0.31434400  1
  O  O73  1  0.00000000  0.69691700  0.31434400  1
  O  O74  1  0.80308300  0.00000000  0.06434400  1
  O  O75  1  0.19691700  0.00000000  0.06434400  1
  O  O76  1  0.50000000  0.69691700  0.43565600  1
  O  O77  1  0.50000000  0.30308300  0.43565600  1
  O  O78  1  0.19691700  0.50000000  0.18565600  1
  O  O79  1  0.80308300  0.50000000  0.18565600  1
  O  O80  1  0.50000000  0.80308300  0.81434400  1
  O  O81  1  0.50000000  0.19691700  0.81434400  1
  O  O82  1  0.30308300  0.50000000  0.56434400  1
  O  O83  1  0.69691700  0.50000000  0.56434400  1
  O  O84  1  0.00000000  0.19691700  0.93565600  1
  O  O85  1  0.00000000  0.80308300  0.93565600  1
  O  O86  1  0.69691700  0.00000000  0.68565600  1
  O  O87  1  0.30308300  0.00000000  0.68565600  1
