# generated using pymatgen
data_Cd4B6O13
_symmetry_space_group_name_H-M   'P 1'
_cell_length_a   7.89166400
_cell_length_b   7.89166400
_cell_length_c   7.89166400
_cell_angle_alpha   90.00000000
_cell_angle_beta   90.00000000
_cell_angle_gamma   90.00000000
_symmetry_Int_Tables_number   1
_chemical_formula_structural   Cd4B6O13
_chemical_formula_sum   'Cd8 B12 O26'
_cell_volume   491.47989703
_cell_formula_units_Z   2
loop_
 _symmetry_equiv_pos_site_id
 _symmetry_equiv_pos_as_xyz
  1  'x, y, z'
loop_
 _atom_site_type_symbol
 _atom_site_label
 _atom_site_symmetry_multiplicity
 _atom_site_fract_x
 _atom_site_fract_y
 _atom_site_fract_z
 _atom_site_occupancy
  Cd  Cd0  1  0.65881350  0.34118650  0.34118650  1
  Cd  Cd1  1  0.15881350  0.15881350  0.15881350  1
  Cd  Cd2  1  0.34118650  0.65881350  0.34118650  1
  Cd  Cd3  1  0.34118650  0.34118650  0.65881350  1
  Cd  Cd4  1  0.15881350  0.84118650  0.84118650  1
  Cd  Cd5  1  0.65881350  0.65881350  0.65881350  1
  Cd  Cd6  1  0.84118650  0.15881350  0.84118650  1
  Cd  Cd7  1  0.84118650  0.84118650  0.15881350  1
  B  B8  1  0.00000000  0.25000000  0.50000000  1
  B  B9  1  0.00000000  0.50000000  0.25000000  1
  B  B10  1  0.25000000  0.50000000  0.00000000  1
  B  B11  1  0.25000000  0.00000000  0.50000000  1
  B  B12  1  0.50000000  0.00000000  0.25000000  1
  B  B13  1  0.50000000  0.25000000  0.00000000  1
  B  B14  1  0.50000000  0.75000000  0.00000000  1
  B  B15  1  0.50000000  0.00000000  0.75000000  1
  B  B16  1  0.75000000  0.00000000  0.50000000  1
  B  B17  1  0.75000000  0.50000000  0.00000000  1
  B  B18  1  0.00000000  0.50000000  0.75000000  1
  B  B19  1  0.00000000  0.75000000  0.50000000  1
  O  O20  1  0.85360200  0.56039400  0.14639800  1
  O  O21  1  0.85360200  0.14639800  0.56039400  1
  O  O22  1  0.93960600  0.35360200  0.35360200  1
  O  O23  1  0.00000000  0.00000000  0.00000000  1
  O  O24  1  0.14639800  0.85360200  0.56039400  1
  O  O25  1  0.14639800  0.56039400  0.85360200  1
  O  O26  1  0.14639800  0.43960600  0.14639800  1
  O  O27  1  0.14639800  0.14639800  0.43960600  1
  O  O28  1  0.35360200  0.35360200  0.93960600  1
  O  O29  1  0.35360200  0.93960600  0.35360200  1
  O  O30  1  0.43960600  0.14639800  0.14639800  1
  O  O31  1  0.56039400  0.85360200  0.14639800  1
  O  O32  1  0.56039400  0.14639800  0.85360200  1
  O  O33  1  0.35360200  0.06039400  0.64639800  1
  O  O34  1  0.35360200  0.64639800  0.06039400  1
  O  O35  1  0.43960600  0.85360200  0.85360200  1
  O  O36  1  0.50000000  0.50000000  0.50000000  1
  O  O37  1  0.64639800  0.35360200  0.06039400  1
  O  O38  1  0.64639800  0.06039400  0.35360200  1
  O  O39  1  0.64639800  0.93960600  0.64639800  1
  O  O40  1  0.64639800  0.64639800  0.93960600  1
  O  O41  1  0.85360200  0.85360200  0.43960600  1
  O  O42  1  0.85360200  0.43960600  0.85360200  1
  O  O43  1  0.93960600  0.64639800  0.64639800  1
  O  O44  1  0.06039400  0.35360200  0.64639800  1
  O  O45  1  0.06039400  0.64639800  0.35360200  1
