# generated using pymatgen
data_Sm3TaO7
_symmetry_space_group_name_H-M   'P 1'
_cell_length_a   7.51618400
_cell_length_b   10.85316200
_cell_length_c   7.67092900
_cell_angle_alpha   90.00000000
_cell_angle_beta   90.00000000
_cell_angle_gamma   90.00000000
_symmetry_Int_Tables_number   1
_chemical_formula_structural   Sm3TaO7
_chemical_formula_sum   'Sm12 Ta4 O28'
_cell_volume   625.75114352
_cell_formula_units_Z   4
loop_
 _symmetry_equiv_pos_site_id
 _symmetry_equiv_pos_as_xyz
  1  'x, y, z'
loop_
 _atom_site_type_symbol
 _atom_site_label
 _atom_site_symmetry_multiplicity
 _atom_site_fract_x
 _atom_site_fract_y
 _atom_site_fract_z
 _atom_site_occupancy
  Sm  Sm0  1  0.28796200  0.22935400  0.25000000  1
  Sm  Sm1  1  0.71203800  0.22935400  0.75000000  1
  Sm  Sm2  1  0.00000000  0.00000000  0.00000000  1
  Sm  Sm3  1  0.00000000  0.00000000  0.50000000  1
  Sm  Sm4  1  0.71203800  0.77064600  0.75000000  1
  Sm  Sm5  1  0.28796200  0.77064600  0.25000000  1
  Sm  Sm6  1  0.78796200  0.72935400  0.25000000  1
  Sm  Sm7  1  0.21203800  0.72935400  0.75000000  1
  Sm  Sm8  1  0.50000000  0.50000000  0.00000000  1
  Sm  Sm9  1  0.50000000  0.50000000  0.50000000  1
  Sm  Sm10  1  0.21203800  0.27064600  0.75000000  1
  Sm  Sm11  1  0.78796200  0.27064600  0.25000000  1
  Ta  Ta12  1  0.50000000  0.00000000  0.00000000  1
  Ta  Ta13  1  0.50000000  0.00000000  0.50000000  1
  Ta  Ta14  1  0.00000000  0.50000000  0.00000000  1
  Ta  Ta15  1  0.00000000  0.50000000  0.50000000  1
  O  O16  1  0.51985650  0.36822150  0.25000000  1
  O  O17  1  0.48014350  0.36822150  0.75000000  1
  O  O18  1  0.69024650  0.12734450  0.03171400  1
  O  O19  1  0.69024650  0.12734450  0.46828600  1
  O  O20  1  0.30975350  0.12734450  0.96828600  1
  O  O21  1  0.30975350  0.12734450  0.53171400  1
  O  O22  1  0.56652700  0.00000000  0.75000000  1
  O  O23  1  0.43347300  0.00000000  0.25000000  1
  O  O24  1  0.69024650  0.87265550  0.03171400  1
  O  O25  1  0.30975350  0.87265550  0.53171400  1
  O  O26  1  0.30975350  0.87265550  0.96828600  1
  O  O27  1  0.69024650  0.87265550  0.46828600  1
  O  O28  1  0.48014350  0.63177850  0.75000000  1
  O  O29  1  0.51985650  0.63177850  0.25000000  1
  O  O30  1  0.01985650  0.86822150  0.25000000  1
  O  O31  1  0.98014350  0.86822150  0.75000000  1
  O  O32  1  0.19024650  0.62734450  0.03171400  1
  O  O33  1  0.19024650  0.62734450  0.46828600  1
  O  O34  1  0.80975350  0.62734450  0.96828600  1
  O  O35  1  0.80975350  0.62734450  0.53171400  1
  O  O36  1  0.06652700  0.50000000  0.75000000  1
  O  O37  1  0.93347300  0.50000000  0.25000000  1
  O  O38  1  0.19024650  0.37265550  0.03171400  1
  O  O39  1  0.80975350  0.37265550  0.53171400  1
  O  O40  1  0.80975350  0.37265550  0.96828600  1
  O  O41  1  0.19024650  0.37265550  0.46828600  1
  O  O42  1  0.98014350  0.13177850  0.75000000  1
  O  O43  1  0.01985650  0.13177850  0.25000000  1
