# generated using pymatgen
data_Li3VCr3O8
_symmetry_space_group_name_H-M   'P 1'
_cell_length_a   5.95977545
_cell_length_b   5.95977545
_cell_length_c   14.54311840
_cell_angle_alpha   90.00000000
_cell_angle_beta   90.00000000
_cell_angle_gamma   120.00000000
_symmetry_Int_Tables_number   1
_chemical_formula_structural   Li3VCr3O8
_chemical_formula_sum   'Li9 V3 Cr9 O24'
_cell_volume   447.35053928
_cell_formula_units_Z   3
loop_
 _symmetry_equiv_pos_site_id
 _symmetry_equiv_pos_as_xyz
  1  'x, y, z'
loop_
 _atom_site_type_symbol
 _atom_site_label
 _atom_site_symmetry_multiplicity
 _atom_site_fract_x
 _atom_site_fract_y
 _atom_site_fract_z
 _atom_site_occupancy
  Li  Li0  1  0.83333333  0.16666667  0.16666667  1
  Li  Li1  1  0.00000000  0.50000000  0.50000000  1
  Li  Li2  1  0.83333333  0.66666667  0.16666667  1
  Li  Li3  1  0.50000000  0.50000000  0.50000000  1
  Li  Li4  1  0.66666667  0.83333333  0.83333333  1
  Li  Li5  1  0.50000000  0.00000000  0.50000000  1
  Li  Li6  1  0.16666667  0.83333333  0.83333333  1
  Li  Li7  1  0.33333333  0.16666667  0.16666667  1
  Li  Li8  1  0.16666667  0.33333333  0.83333333  1
  V  V9  1  0.33333333  0.66666667  0.16666667  1
  V  V10  1  1.00000000  1.00000000  0.50000000  1
  V  V11  1  0.66666667  0.33333333  0.83333333  1
  Cr  Cr12  1  0.16666667  0.33333333  0.33333333  1
  Cr  Cr13  1  0.66666667  0.83333333  0.33333333  1
  Cr  Cr14  1  0.16666667  0.83333333  0.33333333  1
  Cr  Cr15  1  0.83333333  0.66666667  0.66666667  1
  Cr  Cr16  1  0.33333333  0.16666667  0.66666667  1
  Cr  Cr17  1  0.83333333  0.16666667  0.66666667  1
  Cr  Cr18  1  0.50000000  0.00000000  0.00000000  1
  Cr  Cr19  1  0.00000000  0.50000000  0.00000000  1
  Cr  Cr20  1  0.50000000  0.50000000  0.00000000  1
  O  O21  1  0.00000000  0.00000000  0.25897933  1
  O  O22  1  0.33333333  0.66666667  0.40768733  1
  O  O23  1  0.30050350  0.15025175  0.41848750  1
  O  O24  1  0.84974825  0.15025175  0.41848750  1
  O  O25  1  0.84974825  0.69949650  0.41848750  1
  O  O26  1  0.48358508  0.96717017  0.24817917  1
  O  O27  1  0.48358508  0.51641492  0.24817917  1
  O  O28  1  0.03282983  0.51641492  0.24817917  1
  O  O29  1  0.66666667  0.33333333  0.59231267  1
  O  O30  1  0.00000000  0.00000000  0.74102067  1
  O  O31  1  0.96717017  0.48358508  0.75182083  1
  O  O32  1  0.51641492  0.48358508  0.75182083  1
  O  O33  1  0.51641492  0.03282983  0.75182083  1
  O  O34  1  0.15025175  0.30050350  0.58151250  1
  O  O35  1  0.15025175  0.84974825  0.58151250  1
  O  O36  1  0.69949650  0.84974825  0.58151250  1
  O  O37  1  0.33333333  0.66666667  0.92564600  1
  O  O38  1  0.66666667  0.33333333  0.07435400  1
  O  O39  1  0.63383683  0.81691842  0.08515417  1
  O  O40  1  0.18308158  0.81691842  0.08515417  1
  O  O41  1  0.18308158  0.36616317  0.08515417  1
  O  O42  1  0.81691842  0.63383683  0.91484583  1
  O  O43  1  0.81691842  0.18308158  0.91484583  1
  O  O44  1  0.36616317  0.18308158  0.91484583  1
