# generated using pymatgen
data_DyY7O12
_symmetry_space_group_name_H-M   'P 1'
_cell_length_a   10.70302000
_cell_length_b   10.70392800
_cell_length_c   10.70557600
_cell_angle_alpha   90.00000000
_cell_angle_beta   90.00000000
_cell_angle_gamma   90.00000000
_symmetry_Int_Tables_number   1
_chemical_formula_structural   DyY7O12
_chemical_formula_sum   'Dy4 Y28 O48'
_cell_volume   1226.47741430
_cell_formula_units_Z   4
loop_
 _symmetry_equiv_pos_site_id
 _symmetry_equiv_pos_as_xyz
  1  'x, y, z'
loop_
 _atom_site_type_symbol
 _atom_site_label
 _atom_site_symmetry_multiplicity
 _atom_site_fract_x
 _atom_site_fract_y
 _atom_site_fract_z
 _atom_site_occupancy
  Dy  Dy0  1  0.00000000  0.25000000  0.03275800  1
  Dy  Dy1  1  0.50000000  0.25000000  0.96724200  1
  Dy  Dy2  1  0.50000000  0.75000000  0.53275800  1
  Dy  Dy3  1  0.00000000  0.75000000  0.46724200  1
  Y  Y4  1  0.00000000  0.25000000  0.53266800  1
  Y  Y5  1  0.75001250  0.24996650  0.75006250  1
  Y  Y6  1  0.53268500  0.00000000  0.25000000  1
  Y  Y7  1  0.46731500  0.50000000  0.25000000  1
  Y  Y8  1  0.75000000  0.46740800  0.50000000  1
  Y  Y9  1  0.25000000  0.46725700  0.00000000  1
  Y  Y10  1  0.25001250  0.25003350  0.24993750  1
  Y  Y11  1  0.74998750  0.24996650  0.24993750  1
  Y  Y12  1  0.24998750  0.25003350  0.75006250  1
  Y  Y13  1  0.50000000  0.25000000  0.46733200  1
  Y  Y14  1  0.25000000  0.03259200  0.50000000  1
  Y  Y15  1  0.75000000  0.03274300  0.00000000  1
  Y  Y16  1  0.96738500  0.50000000  0.25000000  1
  Y  Y17  1  0.03261500  0.00000000  0.25000000  1
  Y  Y18  1  0.50000000  0.75000000  0.03266800  1
  Y  Y19  1  0.25001250  0.74996650  0.25006250  1
  Y  Y20  1  0.03268500  0.50000000  0.75000000  1
  Y  Y21  1  0.96731500  0.00000000  0.75000000  1
  Y  Y22  1  0.25000000  0.96740800  0.00000000  1
  Y  Y23  1  0.75000000  0.96725700  0.50000000  1
  Y  Y24  1  0.75001250  0.75003350  0.74993750  1
  Y  Y25  1  0.24998750  0.74996650  0.74993750  1
  Y  Y26  1  0.74998750  0.75003350  0.25006250  1
  Y  Y27  1  0.00000000  0.75000000  0.96733200  1
  Y  Y28  1  0.75000000  0.53259200  0.00000000  1
  Y  Y29  1  0.25000000  0.53274300  0.50000000  1
  Y  Y30  1  0.46738500  0.00000000  0.75000000  1
  Y  Y31  1  0.53261500  0.50000000  0.75000000  1
  O  O32  1  0.15179950  0.62017850  0.89094150  1
  O  O33  1  0.34820050  0.62017850  0.10905850  1
  O  O34  1  0.12006300  0.60918800  0.34836700  1
  O  O35  1  0.12019700  0.10902300  0.65178000  1
  O  O36  1  0.12006300  0.39081200  0.15163300  1
  O  O37  1  0.12019700  0.89097700  0.84822000  1
  O  O38  1  0.34820050  0.37982150  0.39094150  1
  O  O39  1  0.15179950  0.37982150  0.60905850  1
  O  O40  1  0.60886650  0.84806450  0.38000750  1
  O  O41  1  0.10905700  0.84823500  0.12017900  1
  O  O42  1  0.89094300  0.34823500  0.37982100  1
  O  O43  1  0.39113350  0.34806450  0.11999250  1
  O  O44  1  0.10905700  0.15176500  0.37982100  1
  O  O45  1  0.89094300  0.65176500  0.12017900  1
  O  O46  1  0.60886650  0.15193550  0.11999250  1
  O  O47  1  0.39113350  0.65193550  0.38000750  1
  O  O48  1  0.34856100  0.12043300  0.89111300  1
  O  O49  1  0.15143900  0.12043300  0.10888700  1
  O  O50  1  0.37980300  0.10902300  0.34822000  1
  O  O51  1  0.37993700  0.60918800  0.65163300  1
  O  O52  1  0.37980300  0.89097700  0.15178000  1
  O  O53  1  0.37993700  0.39081200  0.84836700  1
  O  O54  1  0.34856100  0.87956700  0.60888700  1
  O  O55  1  0.15143900  0.87956700  0.39111300  1
  O  O56  1  0.65179950  0.12017850  0.39094150  1
  O  O57  1  0.84820050  0.12017850  0.60905850  1
  O  O58  1  0.62006300  0.10918800  0.84836700  1
  O  O59  1  0.62019700  0.60902300  0.15178000  1
  O  O60  1  0.62006300  0.89081200  0.65163300  1
  O  O61  1  0.62019700  0.39097700  0.34822000  1
  O  O62  1  0.84820050  0.87982150  0.89094150  1
  O  O63  1  0.65179950  0.87982150  0.10905850  1
  O  O64  1  0.10886650  0.34806450  0.88000750  1
  O  O65  1  0.60905700  0.34823500  0.62017900  1
  O  O66  1  0.39094300  0.84823500  0.87982100  1
  O  O67  1  0.89113350  0.84806450  0.61999250  1
  O  O68  1  0.60905700  0.65176500  0.87982100  1
  O  O69  1  0.39094300  0.15176500  0.62017900  1
  O  O70  1  0.10886650  0.65193550  0.61999250  1
  O  O71  1  0.89113350  0.15193550  0.88000750  1
  O  O72  1  0.84856100  0.62043300  0.39111300  1
  O  O73  1  0.65143900  0.62043300  0.60888700  1
  O  O74  1  0.87980300  0.60902300  0.84822000  1
  O  O75  1  0.87993700  0.10918800  0.15163300  1
  O  O76  1  0.87980300  0.39097700  0.65178000  1
  O  O77  1  0.87993700  0.89081200  0.34836700  1
  O  O78  1  0.84856100  0.37956700  0.10888700  1
  O  O79  1  0.65143900  0.37956700  0.89111300  1
