# generated using pymatgen
data_LiCo2OF5
_symmetry_space_group_name_H-M   'P 1'
_cell_length_a   6.47830800
_cell_length_b   6.47213200
_cell_length_c   18.36822503
_cell_angle_alpha   90.00000000
_cell_angle_beta   91.07185291
_cell_angle_gamma   90.00000000
_symmetry_Int_Tables_number   1
_chemical_formula_structural   LiCo2OF5
_chemical_formula_sum   'Li8 Co16 O8 F40'
_cell_volume   770.01671199
_cell_formula_units_Z   8
loop_
 _symmetry_equiv_pos_site_id
 _symmetry_equiv_pos_as_xyz
  1  'x, y, z'
loop_
 _atom_site_type_symbol
 _atom_site_label
 _atom_site_symmetry_multiplicity
 _atom_site_fract_x
 _atom_site_fract_y
 _atom_site_fract_z
 _atom_site_occupancy
  Li  Li0  1  0.00981100  0.00413500  0.99989700  1
  Li  Li1  1  0.00981100  0.99586500  0.49989700  1
  Li  Li2  1  0.49520250  0.99116050  0.75009100  1
  Li  Li3  1  0.49520250  0.00883950  0.25009100  1
  Li  Li4  1  0.50981100  0.50413500  0.99989700  1
  Li  Li5  1  0.50981100  0.49586500  0.49989700  1
  Li  Li6  1  0.99520250  0.49116050  0.75009100  1
  Li  Li7  1  0.99520250  0.50883950  0.25009100  1
  Co  Co8  1  0.99131700  0.99898000  0.66439800  1
  Co  Co9  1  0.49695900  0.47399800  0.83283400  1
  Co  Co10  1  0.49695900  0.52600200  0.33283400  1
  Co  Co11  1  0.99131700  0.00102000  0.16439800  1
  Co  Co12  1  0.50093250  0.99167750  0.41414100  1
  Co  Co13  1  0.50093250  0.00832250  0.91414100  1
  Co  Co14  1  0.52428250  0.99789550  0.58266200  1
  Co  Co15  1  0.52428250  0.00210450  0.08266200  1
  Co  Co16  1  0.49131700  0.49898000  0.66439800  1
  Co  Co17  1  0.99695900  0.97399800  0.83283400  1
  Co  Co18  1  0.99695900  0.02600200  0.33283400  1
  Co  Co19  1  0.49131700  0.50102000  0.16439800  1
  Co  Co20  1  0.00093250  0.49167750  0.41414100  1
  Co  Co21  1  0.00093250  0.50832250  0.91414100  1
  Co  Co22  1  0.02428250  0.49789550  0.58266200  1
  Co  Co23  1  0.02428250  0.50210450  0.08266200  1
  O  O24  1  0.79519050  0.99857350  0.59114200  1
  O  O25  1  0.79519050  0.00142650  0.09114200  1
  O  O26  1  0.49726150  0.79678750  0.34136300  1
  O  O27  1  0.49726150  0.20321250  0.84136300  1
  O  O28  1  0.29519050  0.49857350  0.59114200  1
  O  O29  1  0.29519050  0.50142650  0.09114200  1
  O  O30  1  0.99726150  0.29678750  0.34136300  1
  O  O31  1  0.99726150  0.70321250  0.84136300  1
  F  F32  1  0.79547350  0.00491450  0.91603500  1
  F  F33  1  0.80047300  0.99858800  0.74907000  1
  F  F34  1  0.79547350  0.99508550  0.41603500  1
  F  F35  1  0.80047300  0.00141200  0.24907000  1
  F  F36  1  0.50145750  0.81492050  0.99510000  1
  F  F37  1  0.49714600  0.78881400  0.83545400  1
  F  F38  1  0.49553200  0.79522100  0.16555100  1
  F  F39  1  0.50100800  0.80079100  0.49954200  1
  F  F40  1  0.49576700  0.79288500  0.66572000  1
  F  F41  1  0.50100800  0.19920900  0.99954200  1
  F  F42  1  0.49553200  0.20477900  0.66555100  1
  F  F43  1  0.50145750  0.18507950  0.49510000  1
  F  F44  1  0.49576700  0.20711500  0.16572000  1
  F  F45  1  0.49714600  0.21118600  0.33545400  1
  F  F46  1  0.18475600  0.99847600  0.74625900  1
  F  F47  1  0.20639350  0.00523850  0.91512800  1
  F  F48  1  0.21103750  0.99802750  0.58561100  1
  F  F49  1  0.20639350  0.99476150  0.41512800  1
  F  F50  1  0.18475600  0.00152400  0.24625900  1
  F  F51  1  0.21103750  0.00197250  0.08561100  1
  F  F52  1  0.29547350  0.50491450  0.91603500  1
  F  F53  1  0.30047300  0.49858800  0.74907000  1
  F  F54  1  0.29547350  0.49508550  0.41603500  1
  F  F55  1  0.30047300  0.50141200  0.24907000  1
  F  F56  1  0.00145750  0.31492050  0.99510000  1
  F  F57  1  0.99714600  0.28881400  0.83545400  1
  F  F58  1  0.99553200  0.29522100  0.16555100  1
  F  F59  1  0.00100800  0.30079100  0.49954200  1
  F  F60  1  0.99576700  0.29288500  0.66572000  1
  F  F61  1  0.00100800  0.69920900  0.99954200  1
  F  F62  1  0.99553200  0.70477900  0.66555100  1
  F  F63  1  0.00145750  0.68507950  0.49510000  1
  F  F64  1  0.99576700  0.70711500  0.16572000  1
  F  F65  1  0.99714600  0.71118600  0.33545400  1
  F  F66  1  0.68475600  0.49847600  0.74625900  1
  F  F67  1  0.70639350  0.50523850  0.91512800  1
  F  F68  1  0.71103750  0.49802750  0.58561100  1
  F  F69  1  0.70639350  0.49476150  0.41512800  1
  F  F70  1  0.68475600  0.50152400  0.24625900  1
  F  F71  1  0.71103750  0.50197250  0.08561100  1
