# generated using pymatgen
data_V5(P3O11)2
_symmetry_space_group_name_H-M   'P 1'
_cell_length_a   10.46520100
_cell_length_b   6.66751000
_cell_length_c   12.89738842
_cell_angle_alpha   90.00000000
_cell_angle_beta   104.09686502
_cell_angle_gamma   90.00000000
_symmetry_Int_Tables_number   1
_chemical_formula_structural   V5(P3O11)2
_chemical_formula_sum   'V10 P12 O44'
_cell_volume   872.83755816
_cell_formula_units_Z   2
loop_
 _symmetry_equiv_pos_site_id
 _symmetry_equiv_pos_as_xyz
  1  'x, y, z'
loop_
 _atom_site_type_symbol
 _atom_site_label
 _atom_site_symmetry_multiplicity
 _atom_site_fract_x
 _atom_site_fract_y
 _atom_site_fract_z
 _atom_site_occupancy
  V  V0  1  0.50000000  0.50000000  0.00000000  1
  V  V1  1  0.78800200  0.25023800  0.13642000  1
  V  V2  1  0.00000000  0.00000000  0.00000000  1
  V  V3  1  0.28800200  0.24976200  0.13642000  1
  V  V4  1  0.80291400  0.01170500  0.33633300  1
  V  V5  1  0.30291400  0.48829500  0.33633300  1
  V  V6  1  0.69708600  0.51170500  0.66366700  1
  V  V7  1  0.19708600  0.98829500  0.66366700  1
  V  V8  1  0.71199800  0.75023800  0.86358000  1
  V  V9  1  0.21199800  0.74976200  0.86358000  1
  P  P10  1  0.77564600  0.74146500  0.08760800  1
  P  P11  1  0.27564600  0.75853500  0.08760800  1
  P  P12  1  0.57376300  0.39075500  0.25893500  1
  P  P13  1  0.07376300  0.10924500  0.25893500  1
  P  P14  1  0.59108300  0.70286300  0.41765400  1
  P  P15  1  0.90891700  0.20286300  0.58234600  1
  P  P16  1  0.09108300  0.79713700  0.41765400  1
  P  P17  1  0.40891700  0.29713700  0.58234600  1
  P  P18  1  0.92623700  0.89075500  0.74106500  1
  P  P19  1  0.42623700  0.60924500  0.74106500  1
  P  P20  1  0.72435400  0.24146500  0.91239200  1
  P  P21  1  0.22435400  0.25853500  0.91239200  1
  O  O22  1  0.86130100  0.79057900  0.00457800  1
  O  O23  1  0.63953000  0.71022300  0.99938800  1
  O  O24  1  0.36130100  0.70942100  0.00457800  1
  O  O25  1  0.13953000  0.78977700  0.99938800  1
  O  O26  1  0.82206100  0.55063800  0.14842200  1
  O  O27  1  0.76829000  0.92370100  0.16005500  1
  O  O28  1  0.55135600  0.52893400  0.16314800  1
  O  O29  1  0.94018100  0.19010300  0.27400200  1
  O  O30  1  0.32206100  0.94936200  0.14842200  1
  O  O31  1  0.26829000  0.57629900  0.16005500  1
  O  O32  1  0.67298700  0.22492500  0.24856600  1
  O  O33  1  0.05135600  0.97106600  0.16314800  1
  O  O34  1  0.44018100  0.30989700  0.27400200  1
  O  O35  1  0.94110200  0.80019400  0.38520900  1
  O  O36  1  0.17298700  0.27507500  0.24856600  1
  O  O37  1  0.65000500  0.88081200  0.37215000  1
  O  O38  1  0.64310100  0.50266200  0.36641900  1
  O  O39  1  0.85161100  0.18042400  0.46197500  1
  O  O40  1  0.44110200  0.69980600  0.38520900  1
  O  O41  1  0.15000500  0.61918800  0.37215000  1
  O  O42  1  0.14310100  0.99733800  0.36641900  1
  O  O43  1  0.35161100  0.31957600  0.46197500  1
  O  O44  1  0.64838900  0.68042400  0.53802500  1
  O  O45  1  0.85689900  0.00266200  0.63358100  1
  O  O46  1  0.84999500  0.38081200  0.62785000  1
  O  O47  1  0.55889800  0.30019400  0.61479100  1
  O  O48  1  0.14838900  0.81957600  0.53802500  1
  O  O49  1  0.35689900  0.49733800  0.63358100  1
  O  O50  1  0.34999500  0.11918800  0.62785000  1
  O  O51  1  0.82701300  0.72492500  0.75143400  1
  O  O52  1  0.05889800  0.19980600  0.61479100  1
  O  O53  1  0.55981900  0.69010300  0.72599800  1
  O  O54  1  0.94864400  0.02893400  0.83685200  1
  O  O55  1  0.32701300  0.77507500  0.75143400  1
  O  O56  1  0.73171000  0.42370100  0.83994500  1
  O  O57  1  0.67793900  0.05063800  0.85157800  1
  O  O58  1  0.05981900  0.80989700  0.72599800  1
  O  O59  1  0.44864400  0.47106600  0.83685200  1
  O  O60  1  0.23171000  0.07629900  0.83994500  1
  O  O61  1  0.17793900  0.44936200  0.85157800  1
  O  O62  1  0.86047000  0.21022300  0.00061200  1
  O  O63  1  0.63869900  0.29057900  0.99542200  1
  O  O64  1  0.36047000  0.28977700  0.00061200  1
  O  O65  1  0.13869900  0.20942100  0.99542200  1
