# generated using pymatgen
data_Sr2MnMoO6
_symmetry_space_group_name_H-M   'P 1'
_cell_length_a   8.09607600
_cell_length_b   8.09607600
_cell_length_c   8.16243600
_cell_angle_alpha   90.00000000
_cell_angle_beta   90.00000000
_cell_angle_gamma   90.00000000
_symmetry_Int_Tables_number   1
_chemical_formula_structural   Sr2MnMoO6
_chemical_formula_sum   'Sr8 Mn4 Mo4 O24'
_cell_volume   535.01867538
_cell_formula_units_Z   4
loop_
 _symmetry_equiv_pos_site_id
 _symmetry_equiv_pos_as_xyz
  1  'x, y, z'
loop_
 _atom_site_type_symbol
 _atom_site_label
 _atom_site_symmetry_multiplicity
 _atom_site_fract_x
 _atom_site_fract_y
 _atom_site_fract_z
 _atom_site_occupancy
  Sr  Sr0  1  0.00000000  0.00000000  0.00000000  1
  Sr  Sr1  1  0.50000000  0.00000000  0.01274200  1
  Sr  Sr2  1  0.00000000  0.50000000  0.48725800  1
  Sr  Sr3  1  0.50000000  0.50000000  0.00000000  1
  Sr  Sr4  1  0.00000000  0.00000000  0.50000000  1
  Sr  Sr5  1  0.00000000  0.50000000  0.98725800  1
  Sr  Sr6  1  0.50000000  0.50000000  0.50000000  1
  Sr  Sr7  1  0.50000000  0.00000000  0.51274200  1
  Mn  Mn8  1  0.25000000  0.75000000  0.25000000  1
  Mn  Mn9  1  0.75000000  0.75000000  0.75000000  1
  Mn  Mn10  1  0.75000000  0.25000000  0.25000000  1
  Mn  Mn11  1  0.25000000  0.25000000  0.75000000  1
  Mo  Mo12  1  0.25000000  0.25000000  0.25000000  1
  Mo  Mo13  1  0.75000000  0.75000000  0.25000000  1
  Mo  Mo14  1  0.25000000  0.75000000  0.75000000  1
  Mo  Mo15  1  0.75000000  0.25000000  0.75000000  1
  O  O16  1  0.48613900  0.29291000  0.22846700  1
  O  O17  1  0.72754200  0.26950500  0.51280400  1
  O  O18  1  0.01386100  0.20709000  0.27153300  1
  O  O19  1  0.29291000  0.51386100  0.77153300  1
  O  O20  1  0.20386000  0.48599600  0.23180900  1
  O  O21  1  0.51386100  0.70709000  0.22846700  1
  O  O22  1  0.76950500  0.77245800  0.01280400  1
  O  O23  1  0.79291000  0.01386100  0.72846700  1
  O  O24  1  0.29614000  0.01400400  0.26819100  1
  O  O25  1  0.77245800  0.23049500  0.98719600  1
  O  O26  1  0.79614000  0.51400400  0.23180900  1
  O  O27  1  0.98613900  0.79291000  0.27153300  1
  O  O28  1  0.01400400  0.70386000  0.73180900  1
  O  O29  1  0.51400400  0.20386000  0.76819100  1
  O  O30  1  0.23049500  0.22754200  0.01280400  1
  O  O31  1  0.73049500  0.72754200  0.48719600  1
  O  O32  1  0.70386000  0.98599600  0.26819100  1
  O  O33  1  0.48599600  0.79614000  0.76819100  1
  O  O34  1  0.70709000  0.48613900  0.77153300  1
  O  O35  1  0.98599600  0.29614000  0.73180900  1
  O  O36  1  0.27245800  0.73049500  0.51280400  1
  O  O37  1  0.20709000  0.98613900  0.72846700  1
  O  O38  1  0.22754200  0.76950500  0.98719600  1
  O  O39  1  0.26950500  0.27245800  0.48719600  1
