# generated using pymatgen
data_Li9V3(WO4)7
_symmetry_space_group_name_H-M   'P 1'
_cell_length_a   12.08071367
_cell_length_b   12.08071367
_cell_length_c   14.84280872
_cell_angle_alpha   90.00000000
_cell_angle_beta   90.00000000
_cell_angle_gamma   120.00000000
_symmetry_Int_Tables_number   1
_chemical_formula_structural   Li9V3(WO4)7
_chemical_formula_sum   'Li27 V9 W21 O84'
_cell_volume   1875.99598336
_cell_formula_units_Z   3
loop_
 _symmetry_equiv_pos_site_id
 _symmetry_equiv_pos_as_xyz
  1  'x, y, z'
loop_
 _atom_site_type_symbol
 _atom_site_label
 _atom_site_symmetry_multiplicity
 _atom_site_fract_x
 _atom_site_fract_y
 _atom_site_fract_z
 _atom_site_occupancy
  Li  Li0  1  0.05440833  0.39661267  0.30315967  1
  Li  Li1  1  0.34220433  0.39661267  0.30315967  1
  Li  Li2  1  0.05440833  0.65779567  0.30315967  1
  Li  Li3  1  0.60338733  0.65779567  0.30315967  1
  Li  Li4  1  0.15913533  0.57956767  0.93120367  1
  Li  Li5  1  0.42043233  0.57956767  0.93120367  1
  Li  Li6  1  0.34220433  0.94559167  0.30315967  1
  Li  Li7  1  0.60338733  0.94559167  0.30315967  1
  Li  Li8  1  0.42043233  0.84086467  0.93120367  1
  Li  Li9  1  0.72107500  0.72994600  0.63649300  1
  Li  Li10  1  0.00887100  0.72994600  0.63649300  1
  Li  Li11  1  0.72107500  0.99112900  0.63649300  1
  Li  Li12  1  0.27005400  0.99112900  0.63649300  1
  Li  Li13  1  0.82580200  0.91290100  0.26453700  1
  Li  Li14  1  0.08709900  0.91290100  0.26453700  1
  Li  Li15  1  0.00887100  0.27892500  0.63649300  1
  Li  Li16  1  0.27005400  0.27892500  0.63649300  1
  Li  Li17  1  0.08709900  0.17419800  0.26453700  1
  Li  Li18  1  0.38774167  0.06327933  0.96982633  1
  Li  Li19  1  0.67553767  0.06327933  0.96982633  1
  Li  Li20  1  0.38774167  0.32446233  0.96982633  1
  Li  Li21  1  0.93672067  0.32446233  0.96982633  1
  Li  Li22  1  0.49246867  0.24623433  0.59787033  1
  Li  Li23  1  0.75376567  0.24623433  0.59787033  1
  Li  Li24  1  0.67553767  0.61225833  0.96982633  1
  Li  Li25  1  0.93672067  0.61225833  0.96982633  1
  Li  Li26  1  0.75376567  0.50753133  0.59787033  1
  V  V27  1  0.98819733  0.49409867  0.12698667  1
  V  V28  1  0.50590133  0.49409867  0.12698667  1
  V  V29  1  0.50590133  0.01180267  0.12698667  1
  V  V30  1  0.65486400  0.82743200  0.46032000  1
  V  V31  1  0.17256800  0.82743200  0.46032000  1
  V  V32  1  0.17256800  0.34513600  0.46032000  1
  V  V33  1  0.32153067  0.16076533  0.79365333  1
  V  V34  1  0.83923467  0.16076533  0.79365333  1
  V  V35  1  0.83923467  0.67846933  0.79365333  1
  W  W36  1  0.23848933  0.47697867  0.11992667  1
  W  W37  1  0.33333333  0.66666667  0.31900867  1
  W  W38  1  0.23848933  0.76151067  0.11992667  1
  W  W39  1  0.52302133  0.76151067  0.11992667  1
  W  W40  1  0.50059000  0.49941000  0.49917400  1
  W  W41  1  0.99882000  0.49941000  0.49917400  1
  W  W42  1  0.50059000  0.00118000  0.49917400  1
  W  W43  1  0.90515600  0.81031200  0.45326000  1
  W  W44  1  0.00000000  0.00000000  0.65234200  1
  W  W45  1  0.90515600  0.09484400  0.45326000  1
  W  W46  1  0.18968800  0.09484400  0.45326000  1
  W  W47  1  0.16725667  0.83274333  0.83250733  1
  W  W48  1  0.66548667  0.83274333  0.83250733  1
  W  W49  1  0.16725667  0.33451333  0.83250733  1
  W  W50  1  0.57182267  0.14364533  0.78659333  1
  W  W51  1  0.66666667  0.33333333  0.98567533  1
  W  W52  1  0.57182267  0.42817733  0.78659333  1
  W  W53  1  0.85635467  0.42817733  0.78659333  1
  W  W54  1  0.83392333  0.16607667  0.16584067  1
  W  W55  1  0.33215333  0.16607667  0.16584067  1
  W  W56  1  0.83392333  0.66784667  0.16584067  1
  O  O57  1  0.17687133  0.35374267  0.20592967  1
  O  O58  1  0.24971000  0.49942000  0.36597000  1
  O  O59  1  0.91687300  0.33065900  0.20780800  1
  O  O60  1  0.41378600  0.33065900  0.20780800  1
  O  O61  1  0.99859867  0.49929933  0.37774033  1
  O  O62  1  0.50070067  0.49929933  0.37774033  1
  O  O63  1  0.91687300  0.58621400  0.20780800  1
  O  O64  1  0.66934100  0.58621400  0.20780800  1
  O  O65  1  0.18047400  0.59023700  0.20011700  1
  O  O66  1  0.40976300  0.59023700  0.20011700  1
  O  O67  1  0.09768633  0.43115967  0.04702067  1
  O  O68  1  0.33347333  0.43115967  0.04702067  1
  O  O69  1  0.24971000  0.75029000  0.36597000  1
  O  O70  1  0.50058000  0.75029000  0.36597000  1
  O  O71  1  0.09768633  0.66652667  0.04702067  1
  O  O72  1  0.56884033  0.66652667  0.04702067  1
  O  O73  1  0.17687133  0.82312867  0.20592967  1
  O  O74  1  0.64625733  0.82312867  0.20592967  1
  O  O75  1  0.33333333  0.66666667  0.06102067  1
  O  O76  1  0.40976300  0.81952600  0.20011700  1
  O  O77  1  0.24818233  0.49636467  0.87474467  1
  O  O78  1  0.50070067  0.00140133  0.37774033  1
  O  O79  1  0.24818233  0.75181767  0.87474467  1
  O  O80  1  0.50363533  0.75181767  0.87474467  1
  O  O81  1  0.41378600  0.08312700  0.20780800  1
  O  O82  1  0.66934100  0.08312700  0.20780800  1
  O  O83  1  0.33347333  0.90231367  0.04702067  1
  O  O84  1  0.56884033  0.90231367  0.04702067  1
  O  O85  1  0.84353800  0.68707600  0.53926300  1
  O  O86  1  0.91637667  0.83275333  0.69930333  1
  O  O87  1  0.58353967  0.66399233  0.54114133  1
  O  O88  1  0.08045267  0.66399233  0.54114133  1
  O  O89  1  0.66526533  0.83263267  0.71107367  1
  O  O90  1  0.16736733  0.83263267  0.71107367  1
  O  O91  1  0.58353967  0.91954733  0.54114133  1
  O  O92  1  0.33600767  0.91954733  0.54114133  1
  O  O93  1  0.84714067  0.92357033  0.53345033  1
  O  O94  1  0.07642967  0.92357033  0.53345033  1
  O  O95  1  0.76435300  0.76449300  0.38035400  1
  O  O96  1  0.00014000  0.76449300  0.38035400  1
  O  O97  1  0.91637667  0.08362333  0.69930333  1
  O  O98  1  0.16724667  0.08362333  0.69930333  1
  O  O99  1  0.76435300  0.99986000  0.38035400  1
  O  O100  1  0.23550700  0.99986000  0.38035400  1
  O  O101  1  0.84353800  0.15646200  0.53926300  1
  O  O102  1  0.31292400  0.15646200  0.53926300  1
  O  O103  1  0.00000000  0.00000000  0.39435400  1
  O  O104  1  0.07642967  0.15285933  0.53345033  1
  O  O105  1  0.91484900  0.82969800  0.20807800  1
  O  O106  1  0.16736733  0.33473467  0.71107367  1
  O  O107  1  0.91484900  0.08515100  0.20807800  1
  O  O108  1  0.17030200  0.08515100  0.20807800  1
  O  O109  1  0.08045267  0.41646033  0.54114133  1
  O  O110  1  0.33600767  0.41646033  0.54114133  1
  O  O111  1  0.00014000  0.23564700  0.38035400  1
  O  O112  1  0.23550700  0.23564700  0.38035400  1
  O  O113  1  0.51020467  0.02040933  0.87259633  1
  O  O114  1  0.58304333  0.16608667  0.03263667  1
  O  O115  1  0.25020633  0.99732567  0.87447467  1
  O  O116  1  0.74711933  0.99732567  0.87447467  1
  O  O117  1  0.33193200  0.16596600  0.04440700  1
  O  O118  1  0.83403400  0.16596600  0.04440700  1
  O  O119  1  0.25020633  0.25288067  0.87447467  1
  O  O120  1  0.00267433  0.25288067  0.87447467  1
  O  O121  1  0.51380733  0.25690367  0.86678367  1
  O  O122  1  0.74309633  0.25690367  0.86678367  1
  O  O123  1  0.43101967  0.09782633  0.71368733  1
  O  O124  1  0.66680667  0.09782633  0.71368733  1
  O  O125  1  0.58304333  0.41695667  0.03263667  1
  O  O126  1  0.83391333  0.41695667  0.03263667  1
  O  O127  1  0.43101967  0.33319333  0.71368733  1
  O  O128  1  0.90217367  0.33319333  0.71368733  1
  O  O129  1  0.51020467  0.48979533  0.87259633  1
  O  O130  1  0.97959067  0.48979533  0.87259633  1
  O  O131  1  0.66666667  0.33333333  0.72768733  1
  O  O132  1  0.74309633  0.48619267  0.86678367  1
  O  O133  1  0.58151567  0.16303133  0.54141133  1
  O  O134  1  0.83403400  0.66806800  0.04440700  1
  O  O135  1  0.58151567  0.41848433  0.54141133  1
  O  O136  1  0.83696867  0.41848433  0.54141133  1
  O  O137  1  0.74711933  0.74979367  0.87447467  1
  O  O138  1  0.00267433  0.74979367  0.87447467  1
  O  O139  1  0.66680667  0.56898033  0.71368733  1
  O  O140  1  0.90217367  0.56898033  0.71368733  1
