# generated using pymatgen
data_K3HPtS2(ClO3)2
_symmetry_space_group_name_H-M   'P 1'
_cell_length_a   10.65520800
_cell_length_b   15.30423000
_cell_length_c   7.14976800
_cell_angle_alpha   90.00000000
_cell_angle_beta   90.00000000
_cell_angle_gamma   90.00000000
_symmetry_Int_Tables_number   1
_chemical_formula_structural   K3HPtS2(ClO3)2
_chemical_formula_sum   'K12 H4 Pt4 S8 Cl8 O24'
_cell_volume   1165.91090842
_cell_formula_units_Z   4
loop_
 _symmetry_equiv_pos_site_id
 _symmetry_equiv_pos_as_xyz
  1  'x, y, z'
loop_
 _atom_site_type_symbol
 _atom_site_label
 _atom_site_symmetry_multiplicity
 _atom_site_fract_x
 _atom_site_fract_y
 _atom_site_fract_z
 _atom_site_occupancy
  K  K0  1  0.64001450  0.78007550  0.10100200  1
  K  K1  1  0.64001450  0.21992450  0.10100200  1
  K  K2  1  0.35998550  0.21992450  0.60100200  1
  K  K3  1  0.35998550  0.78007550  0.60100200  1
  K  K4  1  0.87652800  0.00000000  0.28258200  1
  K  K5  1  0.12347200  0.00000000  0.78258200  1
  K  K6  1  0.14001450  0.28007550  0.10100200  1
  K  K7  1  0.14001450  0.71992450  0.10100200  1
  K  K8  1  0.85998550  0.71992450  0.60100200  1
  K  K9  1  0.85998550  0.28007550  0.60100200  1
  K  K10  1  0.37652800  0.50000000  0.28258200  1
  K  K11  1  0.62347200  0.50000000  0.78258200  1
  H  H12  1  0.51516400  0.00000000  0.53346500  1
  H  H13  1  0.48483600  0.00000000  0.03346500  1
  H  H14  1  0.01516400  0.50000000  0.53346500  1
  H  H15  1  0.98483600  0.50000000  0.03346500  1
  Pt  Pt16  1  0.75491500  0.00000000  0.74946700  1
  Pt  Pt17  1  0.24508500  0.00000000  0.24946700  1
  Pt  Pt18  1  0.25491500  0.50000000  0.74946700  1
  Pt  Pt19  1  0.74508500  0.50000000  0.24946700  1
  S  S20  1  0.65225200  0.89080300  0.59806900  1
  S  S21  1  0.65225200  0.10919700  0.59806900  1
  S  S22  1  0.34774800  0.10919700  0.09806900  1
  S  S23  1  0.34774800  0.89080300  0.09806900  1
  S  S24  1  0.15225200  0.39080300  0.59806900  1
  S  S25  1  0.15225200  0.60919700  0.59806900  1
  S  S26  1  0.84774800  0.60919700  0.09806900  1
  S  S27  1  0.84774800  0.39080300  0.09806900  1
  Cl  Cl28  1  0.88035800  0.89060000  0.90410100  1
  Cl  Cl29  1  0.88035800  0.10940000  0.90410100  1
  Cl  Cl30  1  0.11964200  0.10940000  0.40410100  1
  Cl  Cl31  1  0.11964200  0.89060000  0.40410100  1
  Cl  Cl32  1  0.38035800  0.39060000  0.90410100  1
  Cl  Cl33  1  0.38035800  0.60940000  0.90410100  1
  Cl  Cl34  1  0.61964200  0.60940000  0.40410100  1
  Cl  Cl35  1  0.61964200  0.39060000  0.40410100  1
  O  O36  1  0.63144750  0.81131650  0.71152200  1
  O  O37  1  0.63144750  0.18868350  0.71152200  1
  O  O38  1  0.36855250  0.18868350  0.21152200  1
  O  O39  1  0.36855250  0.81131650  0.21152200  1
  O  O40  1  0.72725350  0.86903750  0.42757800  1
  O  O41  1  0.72725350  0.13096250  0.42757800  1
  O  O42  1  0.27274650  0.13096250  0.92757800  1
  O  O43  1  0.27274650  0.86903750  0.92757800  1
  O  O44  1  0.52073850  0.92154650  0.53612200  1
  O  O45  1  0.52073850  0.07845350  0.53612200  1
  O  O46  1  0.47926150  0.07845350  0.03612200  1
  O  O47  1  0.47926150  0.92154650  0.03612200  1
  O  O48  1  0.13144750  0.31131650  0.71152200  1
  O  O49  1  0.13144750  0.68868350  0.71152200  1
  O  O50  1  0.86855250  0.68868350  0.21152200  1
  O  O51  1  0.86855250  0.31131650  0.21152200  1
  O  O52  1  0.22725350  0.36903750  0.42757800  1
  O  O53  1  0.22725350  0.63096250  0.42757800  1
  O  O54  1  0.77274650  0.63096250  0.92757800  1
  O  O55  1  0.77274650  0.36903750  0.92757800  1
  O  O56  1  0.02073850  0.42154650  0.53612200  1
  O  O57  1  0.02073850  0.57845350  0.53612200  1
  O  O58  1  0.97926150  0.57845350  0.03612200  1
  O  O59  1  0.97926150  0.42154650  0.03612200  1
