# generated using pymatgen
data_VZn2HO5
_symmetry_space_group_name_H-M   'P 1'
_cell_length_a   6.14185400
_cell_length_b   9.03358300
_cell_length_c   14.79209400
_cell_angle_alpha   90.00000000
_cell_angle_beta   90.00000000
_cell_angle_gamma   90.00000000
_symmetry_Int_Tables_number   1
_chemical_formula_structural   VZn2HO5
_chemical_formula_sum   'V8 Zn16 H8 O40'
_cell_volume   820.70898048
_cell_formula_units_Z   8
loop_
 _symmetry_equiv_pos_site_id
 _symmetry_equiv_pos_as_xyz
  1  'x, y, z'
loop_
 _atom_site_type_symbol
 _atom_site_label
 _atom_site_symmetry_multiplicity
 _atom_site_fract_x
 _atom_site_fract_y
 _atom_site_fract_z
 _atom_site_occupancy
  V  V0  1  0.25000000  0.68949400  0.92543200  1
  V  V1  1  0.25000000  0.81050600  0.42543200  1
  V  V2  1  0.75000000  0.31050600  0.07456800  1
  V  V3  1  0.75000000  0.18949400  0.57456800  1
  V  V4  1  0.75000000  0.01973700  0.83921200  1
  V  V5  1  0.75000000  0.48026300  0.33921200  1
  V  V6  1  0.25000000  0.98026300  0.16078800  1
  V  V7  1  0.25000000  0.51973700  0.66078800  1
  Zn  Zn8  1  0.25000000  0.08754300  0.92491500  1
  Zn  Zn9  1  0.25000000  0.41245700  0.42491500  1
  Zn  Zn10  1  0.75000000  0.91245700  0.07508500  1
  Zn  Zn11  1  0.75000000  0.58754300  0.57508500  1
  Zn  Zn12  1  0.75000000  0.66024300  0.79400000  1
  Zn  Zn13  1  0.75000000  0.83975700  0.29400000  1
  Zn  Zn14  1  0.25000000  0.33975700  0.20600000  1
  Zn  Zn15  1  0.25000000  0.16024300  0.70600000  1
  Zn  Zn16  1  0.99476900  0.37506100  0.86047600  1
  Zn  Zn17  1  0.50523100  0.12493900  0.36047600  1
  Zn  Zn18  1  0.49476900  0.62493900  0.13952400  1
  Zn  Zn19  1  0.00523100  0.87506100  0.63952400  1
  Zn  Zn20  1  0.00523100  0.62493900  0.13952400  1
  Zn  Zn21  1  0.49476900  0.87506100  0.63952400  1
  Zn  Zn22  1  0.50523100  0.37506100  0.86047600  1
  Zn  Zn23  1  0.99476900  0.12493900  0.36047600  1
  H  H24  1  0.25000000  0.34420900  0.00191800  1
  H  H25  1  0.25000000  0.15579100  0.50191800  1
  H  H26  1  0.75000000  0.65579100  0.99808200  1
  H  H27  1  0.75000000  0.84420900  0.49808200  1
  H  H28  1  0.75000000  0.40037600  0.71424000  1
  H  H29  1  0.75000000  0.09962400  0.21424000  1
  H  H30  1  0.25000000  0.59962400  0.28576000  1
  H  H31  1  0.25000000  0.90037600  0.78576000  1
  O  O32  1  0.75000000  0.87378900  0.75329800  1
  O  O33  1  0.75000000  0.62621100  0.25329800  1
  O  O34  1  0.25000000  0.12621100  0.24670200  1
  O  O35  1  0.25000000  0.37378900  0.74670200  1
  O  O36  1  0.25000000  0.87493900  0.89916700  1
  O  O37  1  0.25000000  0.62506100  0.39916700  1
  O  O38  1  0.75000000  0.12506100  0.10083300  1
  O  O39  1  0.75000000  0.37493900  0.60083300  1
  O  O40  1  0.75000000  0.34304200  0.95849900  1
  O  O41  1  0.75000000  0.15695800  0.45849900  1
  O  O42  1  0.25000000  0.65695800  0.04150100  1
  O  O43  1  0.25000000  0.84304200  0.54150100  1
  O  O44  1  0.01256900  0.61097400  0.87883300  1
  O  O45  1  0.48743100  0.88902600  0.37883300  1
  O  O46  1  0.51256900  0.38902600  0.12116700  1
  O  O47  1  0.98743100  0.11097400  0.62116700  1
  O  O48  1  0.98743100  0.38902600  0.12116700  1
  O  O49  1  0.51256900  0.11097400  0.62116700  1
  O  O50  1  0.48743100  0.61097400  0.87883300  1
  O  O51  1  0.01256900  0.88902600  0.37883300  1
  O  O52  1  0.75000000  0.93399300  0.94041000  1
  O  O53  1  0.75000000  0.56600700  0.44041000  1
  O  O54  1  0.25000000  0.06600700  0.05959000  1
  O  O55  1  0.25000000  0.43399300  0.55959000  1
  O  O56  1  0.98577100  0.13182900  0.83292900  1
  O  O57  1  0.51422900  0.36817100  0.33292900  1
  O  O58  1  0.48577100  0.86817100  0.16707100  1
  O  O59  1  0.01422900  0.63182900  0.66707100  1
  O  O60  1  0.01422900  0.86817100  0.16707100  1
  O  O61  1  0.48577100  0.63182900  0.66707100  1
  O  O62  1  0.51422900  0.13182900  0.83292900  1
  O  O63  1  0.98577100  0.36817100  0.33292900  1
  O  O64  1  0.25000000  0.31358300  0.93846000  1
  O  O65  1  0.25000000  0.18641700  0.43846000  1
  O  O66  1  0.75000000  0.68641700  0.06154000  1
  O  O67  1  0.75000000  0.81358300  0.56154000  1
  O  O68  1  0.75000000  0.43351300  0.77840200  1
  O  O69  1  0.75000000  0.06648700  0.27840200  1
  O  O70  1  0.25000000  0.56648700  0.22159800  1
  O  O71  1  0.25000000  0.93351300  0.72159800  1
