# generated using pymatgen
data_Hf3N2O3
_symmetry_space_group_name_H-M   'P 1'
_cell_length_a   3.95873400
_cell_length_b   10.64756400
_cell_length_c   10.73597700
_cell_angle_alpha   90.00000000
_cell_angle_beta   90.00000000
_cell_angle_gamma   90.00000000
_symmetry_Int_Tables_number   1
_chemical_formula_structural   Hf3N2O3
_chemical_formula_sum   'Hf12 N8 O12'
_cell_volume   452.53080976
_cell_formula_units_Z   4
loop_
 _symmetry_equiv_pos_site_id
 _symmetry_equiv_pos_as_xyz
  1  'x, y, z'
loop_
 _atom_site_type_symbol
 _atom_site_label
 _atom_site_symmetry_multiplicity
 _atom_site_fract_x
 _atom_site_fract_y
 _atom_site_fract_z
 _atom_site_occupancy
  Hf  Hf0  1  0.50000000  0.36260700  0.06015300  1
  Hf  Hf1  1  0.50000000  0.36511100  0.44673000  1
  Hf  Hf2  1  0.50000000  0.31414200  0.75089100  1
  Hf  Hf3  1  0.00000000  0.18585800  0.25089100  1
  Hf  Hf4  1  0.00000000  0.13488900  0.94673000  1
  Hf  Hf5  1  0.00000000  0.13739300  0.56015300  1
  Hf  Hf6  1  0.00000000  0.86260700  0.06015300  1
  Hf  Hf7  1  0.00000000  0.86511100  0.44673000  1
  Hf  Hf8  1  0.00000000  0.81414200  0.75089100  1
  Hf  Hf9  1  0.50000000  0.68585800  0.25089100  1
  Hf  Hf10  1  0.50000000  0.63488900  0.94673000  1
  Hf  Hf11  1  0.50000000  0.63739300  0.56015300  1
  N  N12  1  0.50000000  0.45325800  0.61505100  1
  N  N13  1  0.00000000  0.29539300  0.42440900  1
  N  N14  1  0.50000000  0.20460700  0.92440900  1
  N  N15  1  0.00000000  0.04674200  0.11505100  1
  N  N16  1  0.00000000  0.95325800  0.61505100  1
  N  N17  1  0.50000000  0.79539300  0.42440900  1
  N  N18  1  0.00000000  0.70460700  0.92440900  1
  N  N19  1  0.50000000  0.54674200  0.11505100  1
  O  O20  1  0.50000000  0.45502100  0.88304700  1
  O  O21  1  0.00000000  0.30841600  0.08075500  1
  O  O22  1  0.00000000  0.24492400  0.73896500  1
  O  O23  1  0.50000000  0.25507600  0.23896500  1
  O  O24  1  0.50000000  0.19158400  0.58075500  1
  O  O25  1  0.00000000  0.04497900  0.38304700  1
  O  O26  1  0.00000000  0.95502100  0.88304700  1
  O  O27  1  0.50000000  0.80841600  0.08075500  1
  O  O28  1  0.50000000  0.74492400  0.73896500  1
  O  O29  1  0.00000000  0.75507600  0.23896500  1
  O  O30  1  0.00000000  0.69158400  0.58075500  1
  O  O31  1  0.50000000  0.54497900  0.38304700  1
