# generated using pymatgen
data_Ti(PO3)4
_symmetry_space_group_name_H-M   'P 1'
_cell_length_a   11.81252600
_cell_length_b   8.26675200
_cell_length_c   10.20865755
_cell_angle_alpha   90.00000000
_cell_angle_beta   119.71749301
_cell_angle_gamma   90.00000000
_symmetry_Int_Tables_number   1
_chemical_formula_structural   Ti(PO3)4
_chemical_formula_sum   'Ti4 P16 O48'
_cell_volume   865.77740262
_cell_formula_units_Z   4
loop_
 _symmetry_equiv_pos_site_id
 _symmetry_equiv_pos_as_xyz
  1  'x, y, z'
loop_
 _atom_site_type_symbol
 _atom_site_label
 _atom_site_symmetry_multiplicity
 _atom_site_fract_x
 _atom_site_fract_y
 _atom_site_fract_z
 _atom_site_occupancy
  Ti  Ti0  1  0.00000000  0.93974000  0.75000000  1
  Ti  Ti1  1  0.50000000  0.56026000  0.25000000  1
  Ti  Ti2  1  0.50000000  0.43974000  0.75000000  1
  Ti  Ti3  1  0.00000000  0.06026000  0.25000000  1
  P  P4  1  0.29686800  0.01437900  0.80197100  1
  P  P5  1  0.98963100  0.74209300  0.02128500  1
  P  P6  1  0.01036900  0.74209300  0.47871500  1
  P  P7  1  0.29686800  0.98562100  0.30197100  1
  P  P8  1  0.20313200  0.51437900  0.69802900  1
  P  P9  1  0.48963100  0.75790700  0.52128500  1
  P  P10  1  0.51036900  0.75790700  0.97871500  1
  P  P11  1  0.20313200  0.48562100  0.19802900  1
  P  P12  1  0.79686800  0.51437900  0.80197100  1
  P  P13  1  0.48963100  0.24209300  0.02128500  1
  P  P14  1  0.51036900  0.24209300  0.47871500  1
  P  P15  1  0.79686800  0.48562100  0.30197100  1
  P  P16  1  0.70313200  0.01437900  0.69802900  1
  P  P17  1  0.98963100  0.25790700  0.52128500  1
  P  P18  1  0.01036900  0.25790700  0.97871500  1
  P  P19  1  0.70313200  0.98562100  0.19802900  1
  O  O20  1  0.22685050  0.41667350  0.34172900  1
  O  O21  1  0.52890450  0.72035950  0.40357100  1
  O  O22  1  0.09062850  0.62263650  0.14464500  1
  O  O23  1  0.52890450  0.27964050  0.90357100  1
  O  O24  1  0.35722900  0.14110200  0.94325500  1
  O  O25  1  0.18251950  0.94089650  0.81144200  1
  O  O26  1  0.77314950  0.41667350  0.15827100  1
  O  O27  1  0.35722900  0.85889800  0.44325500  1
  O  O28  1  0.96872900  0.88211800  0.10069300  1
  O  O29  1  0.31748050  0.44089650  0.68855800  1
  O  O30  1  0.90937150  0.62263650  0.35535500  1
  O  O31  1  0.03127100  0.88211800  0.39930700  1
  O  O32  1  0.46872900  0.61788200  0.60069300  1
  O  O33  1  0.59062850  0.87736350  0.64464500  1
  O  O34  1  0.18251950  0.05910350  0.31144200  1
  O  O35  1  0.53127100  0.61788200  0.89930700  1
  O  O36  1  0.14277100  0.64110200  0.55674500  1
  O  O37  1  0.72685050  0.08332650  0.84172900  1
  O  O38  1  0.31748050  0.55910350  0.18855800  1
  O  O39  1  0.14277100  0.35889800  0.05674500  1
  O  O40  1  0.97109550  0.22035950  0.09642900  1
  O  O41  1  0.40937150  0.87736350  0.85535500  1
  O  O42  1  0.97109550  0.77964050  0.59642900  1
  O  O43  1  0.27314950  0.08332650  0.65827100  1
  O  O44  1  0.72685050  0.91667350  0.34172900  1
  O  O45  1  0.02890450  0.22035950  0.40357100  1
  O  O46  1  0.59062850  0.12263650  0.14464500  1
  O  O47  1  0.02890450  0.77964050  0.90357100  1
  O  O48  1  0.85722900  0.64110200  0.94325500  1
  O  O49  1  0.68251950  0.44089650  0.81144200  1
  O  O50  1  0.27314950  0.91667350  0.15827100  1
  O  O51  1  0.85722900  0.35889800  0.44325500  1
  O  O52  1  0.46872900  0.38211800  0.10069300  1
  O  O53  1  0.81748050  0.94089650  0.68855800  1
  O  O54  1  0.40937150  0.12263650  0.35535500  1
  O  O55  1  0.53127100  0.38211800  0.39930700  1
  O  O56  1  0.96872900  0.11788200  0.60069300  1
  O  O57  1  0.09062850  0.37736350  0.64464500  1
  O  O58  1  0.68251950  0.55910350  0.31144200  1
  O  O59  1  0.03127100  0.11788200  0.89930700  1
  O  O60  1  0.64277100  0.14110200  0.55674500  1
  O  O61  1  0.22685050  0.58332650  0.84172900  1
  O  O62  1  0.81748050  0.05910350  0.18855800  1
  O  O63  1  0.64277100  0.85889800  0.05674500  1
  O  O64  1  0.47109550  0.72035950  0.09642900  1
  O  O65  1  0.90937150  0.37736350  0.85535500  1
  O  O66  1  0.47109550  0.27964050  0.59642900  1
  O  O67  1  0.77314950  0.58332650  0.65827100  1
