# generated using pymatgen
data_Na5Co2As(CO4)4
_symmetry_space_group_name_H-M   'P 1'
_cell_length_a   14.11075600
_cell_length_b   14.12912000
_cell_length_c   14.22009800
_cell_angle_alpha   90.00000000
_cell_angle_beta   90.00000000
_cell_angle_gamma   90.00000000
_symmetry_Int_Tables_number   1
_chemical_formula_structural   Na5Co2As(CO4)4
_chemical_formula_sum   'Na40 Co16 As8 C32 O128'
_cell_volume   2835.09741018
_cell_formula_units_Z   8
loop_
 _symmetry_equiv_pos_site_id
 _symmetry_equiv_pos_as_xyz
  1  'x, y, z'
loop_
 _atom_site_type_symbol
 _atom_site_label
 _atom_site_symmetry_multiplicity
 _atom_site_fract_x
 _atom_site_fract_y
 _atom_site_fract_z
 _atom_site_occupancy
  Na  Na0  1  0.75000000  0.25000000  0.46355800  1
  Na  Na1  1  0.53631500  0.25000000  0.25000000  1
  Na  Na2  1  0.75000000  0.03618700  0.25000000  1
  Na  Na3  1  0.28452400  0.00000000  0.00000000  1
  Na  Na4  1  0.75000000  0.46381300  0.25000000  1
  Na  Na5  1  0.50000000  0.78471000  0.00000000  1
  Na  Na6  1  0.75000000  0.25000000  0.03644200  1
  Na  Na7  1  0.96368500  0.25000000  0.25000000  1
  Na  Na8  1  0.50000000  0.21529000  0.00000000  1
  Na  Na9  1  0.71547600  0.00000000  0.00000000  1
  Na  Na10  1  0.75000000  0.75000000  0.96355800  1
  Na  Na11  1  0.53631500  0.75000000  0.75000000  1
  Na  Na12  1  0.75000000  0.53618700  0.75000000  1
  Na  Na13  1  0.28452400  0.50000000  0.50000000  1
  Na  Na14  1  0.75000000  0.96381300  0.75000000  1
  Na  Na15  1  0.50000000  0.28471000  0.50000000  1
  Na  Na16  1  0.75000000  0.75000000  0.53644200  1
  Na  Na17  1  0.96368500  0.75000000  0.75000000  1
  Na  Na18  1  0.50000000  0.71529000  0.50000000  1
  Na  Na19  1  0.71547600  0.50000000  0.50000000  1
  Na  Na20  1  0.25000000  0.25000000  0.96355800  1
  Na  Na21  1  0.03631500  0.25000000  0.75000000  1
  Na  Na22  1  0.25000000  0.03618700  0.75000000  1
  Na  Na23  1  0.78452400  0.00000000  0.50000000  1
  Na  Na24  1  0.25000000  0.46381300  0.75000000  1
  Na  Na25  1  0.00000000  0.78471000  0.50000000  1
  Na  Na26  1  0.25000000  0.25000000  0.53644200  1
  Na  Na27  1  0.46368500  0.25000000  0.75000000  1
  Na  Na28  1  0.00000000  0.21529000  0.50000000  1
  Na  Na29  1  0.21547600  0.00000000  0.50000000  1
  Na  Na30  1  0.25000000  0.75000000  0.46355800  1
  Na  Na31  1  0.03631500  0.75000000  0.25000000  1
  Na  Na32  1  0.25000000  0.53618700  0.25000000  1
  Na  Na33  1  0.78452400  0.50000000  0.00000000  1
  Na  Na34  1  0.25000000  0.96381300  0.25000000  1
  Na  Na35  1  0.00000000  0.28471000  0.00000000  1
  Na  Na36  1  0.25000000  0.75000000  0.03644200  1
  Na  Na37  1  0.46368500  0.75000000  0.25000000  1
  Na  Na38  1  0.00000000  0.71529000  0.00000000  1
  Na  Na39  1  0.21547600  0.50000000  0.00000000  1
  Co  Co40  1  0.62387700  0.62379150  0.12714750  1
  Co  Co41  1  0.87612300  0.62379150  0.37285250  1
  Co  Co42  1  0.62387700  0.87620850  0.37285250  1
  Co  Co43  1  0.87612300  0.87620850  0.12714750  1
  Co  Co44  1  0.62387700  0.12379150  0.62714750  1
  Co  Co45  1  0.87612300  0.12379150  0.87285250  1
  Co  Co46  1  0.62387700  0.37620850  0.87285250  1
  Co  Co47  1  0.87612300  0.37620850  0.62714750  1
  Co  Co48  1  0.12387700  0.62379150  0.62714750  1
  Co  Co49  1  0.37612300  0.62379150  0.87285250  1
  Co  Co50  1  0.12387700  0.87620850  0.87285250  1
  Co  Co51  1  0.37612300  0.87620850  0.62714750  1
  Co  Co52  1  0.12387700  0.12379150  0.12714750  1
  Co  Co53  1  0.37612300  0.12379150  0.37285250  1
  Co  Co54  1  0.12387700  0.37620850  0.37285250  1
  Co  Co55  1  0.37612300  0.37620850  0.12714750  1
  As  As56  1  0.50000000  0.00000000  0.00000000  1
  As  As57  1  0.75000000  0.25000000  0.25000000  1
  As  As58  1  0.50000000  0.50000000  0.50000000  1
  As  As59  1  0.75000000  0.75000000  0.75000000  1
  As  As60  1  0.00000000  0.00000000  0.50000000  1
  As  As61  1  0.25000000  0.25000000  0.75000000  1
  As  As62  1  0.00000000  0.50000000  0.00000000  1
  As  As63  1  0.25000000  0.75000000  0.25000000  1
  C  C64  1  0.33796200  0.16268300  0.16251600  1
  C  C65  1  0.58883500  0.08813950  0.41280450  1
  C  C66  1  0.91116500  0.41186050  0.41280450  1
  C  C67  1  0.58883500  0.41186050  0.08719550  1
  C  C68  1  0.66203800  0.83731700  0.16251600  1
  C  C69  1  0.83796200  0.83731700  0.33748400  1
  C  C70  1  0.16203800  0.16268300  0.33748400  1
  C  C71  1  0.91116500  0.08813950  0.08719550  1
  C  C72  1  0.33796200  0.66268300  0.66251600  1
  C  C73  1  0.58883500  0.58813950  0.91280450  1
  C  C74  1  0.91116500  0.91186050  0.91280450  1
  C  C75  1  0.58883500  0.91186050  0.58719550  1
  C  C76  1  0.66203800  0.33731700  0.66251600  1
  C  C77  1  0.83796200  0.33731700  0.83748400  1
  C  C78  1  0.16203800  0.66268300  0.83748400  1
  C  C79  1  0.91116500  0.58813950  0.58719550  1
  C  C80  1  0.83796200  0.16268300  0.66251600  1
  C  C81  1  0.08883500  0.08813950  0.91280450  1
  C  C82  1  0.41116500  0.41186050  0.91280450  1
  C  C83  1  0.08883500  0.41186050  0.58719550  1
  C  C84  1  0.16203800  0.83731700  0.66251600  1
  C  C85  1  0.33796200  0.83731700  0.83748400  1
  C  C86  1  0.66203800  0.16268300  0.83748400  1
  C  C87  1  0.41116500  0.08813950  0.58719550  1
  C  C88  1  0.83796200  0.66268300  0.16251600  1
  C  C89  1  0.08883500  0.58813950  0.41280450  1
  C  C90  1  0.41116500  0.91186050  0.41280450  1
  C  C91  1  0.08883500  0.91186050  0.08719550  1
  C  C92  1  0.16203800  0.33731700  0.16251600  1
  C  C93  1  0.33796200  0.33731700  0.33748400  1
  C  C94  1  0.66203800  0.66268300  0.33748400  1
  C  C95  1  0.41116500  0.58813950  0.08719550  1
  O  O96  1  0.35415250  0.23094700  0.10322350  1
  O  O97  1  0.01930150  0.64639550  0.39766000  1
  O  O98  1  0.39282100  0.15130800  0.23414900  1
  O  O99  1  0.64621000  0.10462650  0.48315650  1
  O  O100  1  0.26943650  0.10320750  0.14671700  1
  O  O101  1  0.92630750  0.07402300  0.43791150  1
  O  O102  1  0.57369250  0.07402300  0.06208850  1
  O  O103  1  0.60570100  0.01865450  0.35700750  1
  O  O104  1  0.10570100  0.98134550  0.14299250  1
  O  O105  1  0.39429900  0.98134550  0.35700750  1
  O  O106  1  0.07369250  0.92597700  0.43791150  1
  O  O107  1  0.42630750  0.92597700  0.06208850  1
  O  O108  1  0.73056350  0.89679250  0.14671700  1
  O  O109  1  0.76943650  0.89679250  0.35328300  1
  O  O110  1  0.35379000  0.89537350  0.48315650  1
  O  O111  1  0.14621000  0.89537350  0.01684350  1
  O  O112  1  0.89282100  0.84869200  0.26585100  1
  O  O113  1  0.60717900  0.84869200  0.23414900  1
  O  O114  1  0.98069850  0.35360450  0.39766000  1
  O  O115  1  0.51930150  0.35360450  0.10234000  1
  O  O116  1  0.81966150  0.31948700  0.17874850  1
  O  O117  1  0.68033850  0.31948700  0.32125150  1
  O  O118  1  0.64584750  0.76905300  0.10322350  1
  O  O119  1  0.85415250  0.76905300  0.39677650  1
  O  O120  1  0.14584750  0.23094700  0.39677650  1
  O  O121  1  0.81966150  0.18051300  0.32125150  1
  O  O122  1  0.68033850  0.18051300  0.17874850  1
  O  O123  1  0.48069850  0.64639550  0.10234000  1
  O  O124  1  0.10717900  0.15130800  0.26585100  1
  O  O125  1  0.85379000  0.10462650  0.01684350  1
  O  O126  1  0.23056350  0.10320750  0.35328300  1
  O  O127  1  0.89429900  0.01865450  0.14299250  1
  O  O128  1  0.35415250  0.73094700  0.60322350  1
  O  O129  1  0.01930150  0.14639550  0.89766000  1
  O  O130  1  0.39282100  0.65130800  0.73414900  1
  O  O131  1  0.64621000  0.60462650  0.98315650  1
  O  O132  1  0.26943650  0.60320750  0.64671700  1
  O  O133  1  0.92630750  0.57402300  0.93791150  1
  O  O134  1  0.57369250  0.57402300  0.56208850  1
  O  O135  1  0.60570100  0.51865450  0.85700750  1
  O  O136  1  0.10570100  0.48134550  0.64299250  1
  O  O137  1  0.39429900  0.48134550  0.85700750  1
  O  O138  1  0.07369250  0.42597700  0.93791150  1
  O  O139  1  0.42630750  0.42597700  0.56208850  1
  O  O140  1  0.73056350  0.39679250  0.64671700  1
  O  O141  1  0.76943650  0.39679250  0.85328300  1
  O  O142  1  0.35379000  0.39537350  0.98315650  1
  O  O143  1  0.14621000  0.39537350  0.51684350  1
  O  O144  1  0.89282100  0.34869200  0.76585100  1
  O  O145  1  0.60717900  0.34869200  0.73414900  1
  O  O146  1  0.98069850  0.85360450  0.89766000  1
  O  O147  1  0.51930150  0.85360450  0.60234000  1
  O  O148  1  0.81966150  0.81948700  0.67874850  1
  O  O149  1  0.68033850  0.81948700  0.82125150  1
  O  O150  1  0.64584750  0.26905300  0.60322350  1
  O  O151  1  0.85415250  0.26905300  0.89677650  1
  O  O152  1  0.14584750  0.73094700  0.89677650  1
  O  O153  1  0.81966150  0.68051300  0.82125150  1
  O  O154  1  0.68033850  0.68051300  0.67874850  1
  O  O155  1  0.48069850  0.14639550  0.60234000  1
  O  O156  1  0.10717900  0.65130800  0.76585100  1
  O  O157  1  0.85379000  0.60462650  0.51684350  1
  O  O158  1  0.23056350  0.60320750  0.85328300  1
  O  O159  1  0.89429900  0.51865450  0.64299250  1
  O  O160  1  0.85415250  0.23094700  0.60322350  1
  O  O161  1  0.51930150  0.64639550  0.89766000  1
  O  O162  1  0.89282100  0.15130800  0.73414900  1
  O  O163  1  0.14621000  0.10462650  0.98315650  1
  O  O164  1  0.76943650  0.10320750  0.64671700  1
  O  O165  1  0.42630750  0.07402300  0.93791150  1
  O  O166  1  0.07369250  0.07402300  0.56208850  1
  O  O167  1  0.10570100  0.01865450  0.85700750  1
  O  O168  1  0.60570100  0.98134550  0.64299250  1
  O  O169  1  0.89429900  0.98134550  0.85700750  1
  O  O170  1  0.57369250  0.92597700  0.93791150  1
  O  O171  1  0.92630750  0.92597700  0.56208850  1
  O  O172  1  0.23056350  0.89679250  0.64671700  1
  O  O173  1  0.26943650  0.89679250  0.85328300  1
  O  O174  1  0.85379000  0.89537350  0.98315650  1
  O  O175  1  0.64621000  0.89537350  0.51684350  1
  O  O176  1  0.39282100  0.84869200  0.76585100  1
  O  O177  1  0.10717900  0.84869200  0.73414900  1
  O  O178  1  0.48069850  0.35360450  0.89766000  1
  O  O179  1  0.01930150  0.35360450  0.60234000  1
  O  O180  1  0.31966150  0.31948700  0.67874850  1
  O  O181  1  0.18033850  0.31948700  0.82125150  1
  O  O182  1  0.14584750  0.76905300  0.60322350  1
  O  O183  1  0.35415250  0.76905300  0.89677650  1
  O  O184  1  0.64584750  0.23094700  0.89677650  1
  O  O185  1  0.31966150  0.18051300  0.82125150  1
  O  O186  1  0.18033850  0.18051300  0.67874850  1
  O  O187  1  0.98069850  0.64639550  0.60234000  1
  O  O188  1  0.60717900  0.15130800  0.76585100  1
  O  O189  1  0.35379000  0.10462650  0.51684350  1
  O  O190  1  0.73056350  0.10320750  0.85328300  1
  O  O191  1  0.39429900  0.01865450  0.64299250  1
  O  O192  1  0.85415250  0.73094700  0.10322350  1
  O  O193  1  0.51930150  0.14639550  0.39766000  1
  O  O194  1  0.89282100  0.65130800  0.23414900  1
  O  O195  1  0.14621000  0.60462650  0.48315650  1
  O  O196  1  0.76943650  0.60320750  0.14671700  1
  O  O197  1  0.42630750  0.57402300  0.43791150  1
  O  O198  1  0.07369250  0.57402300  0.06208850  1
  O  O199  1  0.10570100  0.51865450  0.35700750  1
  O  O200  1  0.60570100  0.48134550  0.14299250  1
  O  O201  1  0.89429900  0.48134550  0.35700750  1
  O  O202  1  0.57369250  0.42597700  0.43791150  1
  O  O203  1  0.92630750  0.42597700  0.06208850  1
  O  O204  1  0.23056350  0.39679250  0.14671700  1
  O  O205  1  0.26943650  0.39679250  0.35328300  1
  O  O206  1  0.85379000  0.39537350  0.48315650  1
  O  O207  1  0.64621000  0.39537350  0.01684350  1
  O  O208  1  0.39282100  0.34869200  0.26585100  1
  O  O209  1  0.10717900  0.34869200  0.23414900  1
  O  O210  1  0.48069850  0.85360450  0.39766000  1
  O  O211  1  0.01930150  0.85360450  0.10234000  1
  O  O212  1  0.31966150  0.81948700  0.17874850  1
  O  O213  1  0.18033850  0.81948700  0.32125150  1
  O  O214  1  0.14584750  0.26905300  0.10322350  1
  O  O215  1  0.35415250  0.26905300  0.39677650  1
  O  O216  1  0.64584750  0.73094700  0.39677650  1
  O  O217  1  0.31966150  0.68051300  0.32125150  1
  O  O218  1  0.18033850  0.68051300  0.17874850  1
  O  O219  1  0.98069850  0.14639550  0.10234000  1
  O  O220  1  0.60717900  0.65130800  0.26585100  1
  O  O221  1  0.35379000  0.60462650  0.01684350  1
  O  O222  1  0.73056350  0.60320750  0.35328300  1
  O  O223  1  0.39429900  0.51865450  0.14299250  1
