# generated using pymatgen
data_Li3BiO4
_symmetry_space_group_name_H-M   'P 1'
_cell_length_a   8.83537800
_cell_length_b   8.83537800
_cell_length_c   8.83537800
_cell_angle_alpha   90.00000000
_cell_angle_beta   90.00000000
_cell_angle_gamma   90.00000000
_symmetry_Int_Tables_number   1
_chemical_formula_structural   Li3BiO4
_chemical_formula_sum   'Li24 Bi8 O32'
_cell_volume   689.72410356
_cell_formula_units_Z   8
loop_
 _symmetry_equiv_pos_site_id
 _symmetry_equiv_pos_as_xyz
  1  'x, y, z'
loop_
 _atom_site_type_symbol
 _atom_site_label
 _atom_site_symmetry_multiplicity
 _atom_site_fract_x
 _atom_site_fract_y
 _atom_site_fract_z
 _atom_site_occupancy
  Li  Li0  1  0.88133100  0.11866900  0.40094900  1
  Li  Li1  1  0.88133100  0.40094900  0.11866900  1
  Li  Li2  1  0.09905100  0.38133100  0.38133100  1
  Li  Li3  1  0.11866900  0.59905100  0.11866900  1
  Li  Li4  1  0.11866900  0.11866900  0.59905100  1
  Li  Li5  1  0.11866900  0.88133100  0.40094900  1
  Li  Li6  1  0.11866900  0.40094900  0.88133100  1
  Li  Li7  1  0.38133100  0.38133100  0.09905100  1
  Li  Li8  1  0.38133100  0.09905100  0.38133100  1
  Li  Li9  1  0.40094900  0.88133100  0.11866900  1
  Li  Li10  1  0.40094900  0.11866900  0.88133100  1
  Li  Li11  1  0.59905100  0.11866900  0.11866900  1
  Li  Li12  1  0.38133100  0.61866900  0.90094900  1
  Li  Li13  1  0.38133100  0.90094900  0.61866900  1
  Li  Li14  1  0.59905100  0.88133100  0.88133100  1
  Li  Li15  1  0.61866900  0.09905100  0.61866900  1
  Li  Li16  1  0.61866900  0.61866900  0.09905100  1
  Li  Li17  1  0.61866900  0.38133100  0.90094900  1
  Li  Li18  1  0.61866900  0.90094900  0.38133100  1
  Li  Li19  1  0.88133100  0.88133100  0.59905100  1
  Li  Li20  1  0.88133100  0.59905100  0.88133100  1
  Li  Li21  1  0.90094900  0.38133100  0.61866900  1
  Li  Li22  1  0.90094900  0.61866900  0.38133100  1
  Li  Li23  1  0.09905100  0.61866900  0.61866900  1
  Bi  Bi24  1  0.64041550  0.35958450  0.35958450  1
  Bi  Bi25  1  0.14041550  0.14041550  0.14041550  1
  Bi  Bi26  1  0.35958450  0.64041550  0.35958450  1
  Bi  Bi27  1  0.35958450  0.35958450  0.64041550  1
  Bi  Bi28  1  0.14041550  0.85958450  0.85958450  1
  Bi  Bi29  1  0.64041550  0.64041550  0.64041550  1
  Bi  Bi30  1  0.85958450  0.14041550  0.85958450  1
  Bi  Bi31  1  0.85958450  0.85958450  0.14041550  1
  O  O32  1  0.87156700  0.37757100  0.37757100  1
  O  O33  1  0.87757100  0.12242900  0.62843300  1
  O  O34  1  0.87757100  0.62843300  0.12242900  1
  O  O35  1  0.88496350  0.11503650  0.11503650  1
  O  O36  1  0.11503650  0.88496350  0.11503650  1
  O  O37  1  0.11503650  0.11503650  0.88496350  1
  O  O38  1  0.12242900  0.87757100  0.62843300  1
  O  O39  1  0.12242900  0.37156700  0.12242900  1
  O  O40  1  0.12242900  0.62843300  0.87757100  1
  O  O41  1  0.12242900  0.12242900  0.37156700  1
  O  O42  1  0.37156700  0.12242900  0.12242900  1
  O  O43  1  0.37757100  0.87156700  0.37757100  1
  O  O44  1  0.37757100  0.37757100  0.87156700  1
  O  O45  1  0.38496350  0.38496350  0.38496350  1
  O  O46  1  0.62843300  0.87757100  0.12242900  1
  O  O47  1  0.62843300  0.12242900  0.87757100  1
  O  O48  1  0.37156700  0.87757100  0.87757100  1
  O  O49  1  0.37757100  0.62242900  0.12843300  1
  O  O50  1  0.37757100  0.12843300  0.62242900  1
  O  O51  1  0.38496350  0.61503650  0.61503650  1
  O  O52  1  0.61503650  0.38496350  0.61503650  1
  O  O53  1  0.61503650  0.61503650  0.38496350  1
  O  O54  1  0.62242900  0.37757100  0.12843300  1
  O  O55  1  0.62242900  0.87156700  0.62242900  1
  O  O56  1  0.62242900  0.12843300  0.37757100  1
  O  O57  1  0.62242900  0.62242900  0.87156700  1
  O  O58  1  0.87156700  0.62242900  0.62242900  1
  O  O59  1  0.87757100  0.37156700  0.87757100  1
  O  O60  1  0.87757100  0.87757100  0.37156700  1
  O  O61  1  0.88496350  0.88496350  0.88496350  1
  O  O62  1  0.12843300  0.37757100  0.62242900  1
  O  O63  1  0.12843300  0.62242900  0.37757100  1
