# generated using pymatgen
data_Sm4U2O11
_symmetry_space_group_name_H-M   'P 1'
_cell_length_a   12.42181600
_cell_length_b   5.49376400
_cell_length_c   7.59996339
_cell_angle_alpha   90.00000000
_cell_angle_beta   107.60613684
_cell_angle_gamma   90.00000000
_symmetry_Int_Tables_number   1
_chemical_formula_structural   Sm4U2O11
_chemical_formula_sum   'Sm8 U4 O22'
_cell_volume   494.34667136
_cell_formula_units_Z   2
loop_
 _symmetry_equiv_pos_site_id
 _symmetry_equiv_pos_as_xyz
  1  'x, y, z'
loop_
 _atom_site_type_symbol
 _atom_site_label
 _atom_site_symmetry_multiplicity
 _atom_site_fract_x
 _atom_site_fract_y
 _atom_site_fract_z
 _atom_site_occupancy
  Sm  Sm0  1  0.82059550  0.86001350  0.41270400  1
  Sm  Sm1  1  0.50084500  0.81123800  0.23859400  1
  Sm  Sm2  1  0.99915500  0.31123800  0.76140600  1
  Sm  Sm3  1  0.67940450  0.36001350  0.58729600  1
  Sm  Sm4  1  0.32059550  0.36001350  0.41270400  1
  Sm  Sm5  1  0.00084500  0.31123800  0.23859400  1
  Sm  Sm6  1  0.49915500  0.81123800  0.76140600  1
  Sm  Sm7  1  0.17940450  0.86001350  0.58729600  1
  U  U8  1  0.83985350  0.81999850  0.92562900  1
  U  U9  1  0.66014650  0.31999850  0.07437100  1
  U  U10  1  0.33985350  0.31999850  0.92562900  1
  U  U11  1  0.16014650  0.81999850  0.07437100  1
  O  O12  1  0.00000000  0.08409100  0.50000000  1
  O  O13  1  0.82852500  0.06287800  0.69733300  1
  O  O14  1  0.81781800  0.09906800  0.14136200  1
  O  O15  1  0.00000000  0.05455300  0.00000000  1
  O  O16  1  0.85238700  0.61014800  0.17512900  1
  O  O17  1  0.00000000  0.58946200  0.00000000  1
  O  O18  1  0.65577000  0.08093900  0.33935000  1
  O  O19  1  0.64761300  0.11014800  0.82487100  1
  O  O20  1  0.84423000  0.58093900  0.66065000  1
  O  O21  1  0.67147500  0.56287800  0.30266700  1
  O  O22  1  0.68218200  0.59906800  0.85863800  1
  O  O23  1  0.50000000  0.58409100  0.50000000  1
  O  O24  1  0.32852500  0.56287800  0.69733300  1
  O  O25  1  0.31781800  0.59906800  0.14136200  1
  O  O26  1  0.50000000  0.55455300  0.00000000  1
  O  O27  1  0.35238700  0.11014800  0.17512900  1
  O  O28  1  0.50000000  0.08946200  0.00000000  1
  O  O29  1  0.15577000  0.58093900  0.33935000  1
  O  O30  1  0.14761300  0.61014800  0.82487100  1
  O  O31  1  0.34423000  0.08093900  0.66065000  1
  O  O32  1  0.17147500  0.06287800  0.30266700  1
  O  O33  1  0.18218200  0.09906800  0.85863800  1
