# generated using pymatgen
data_NaSb3O8
_symmetry_space_group_name_H-M   'P 1'
_cell_length_a   7.18378800
_cell_length_b   7.48619800
_cell_length_c   10.39611000
_cell_angle_alpha   90.00000000
_cell_angle_beta   90.00000000
_cell_angle_gamma   90.00000000
_symmetry_Int_Tables_number   1
_chemical_formula_structural   NaSb3O8
_chemical_formula_sum   'Na4 Sb12 O32'
_cell_volume   559.09509600
_cell_formula_units_Z   4
loop_
 _symmetry_equiv_pos_site_id
 _symmetry_equiv_pos_as_xyz
  1  'x, y, z'
loop_
 _atom_site_type_symbol
 _atom_site_label
 _atom_site_symmetry_multiplicity
 _atom_site_fract_x
 _atom_site_fract_y
 _atom_site_fract_z
 _atom_site_occupancy
  Na  Na0  1  0.00000000  0.25000000  0.00000000  1
  Na  Na1  1  0.00000000  0.75000000  0.00000000  1
  Na  Na2  1  0.50000000  0.75000000  0.50000000  1
  Na  Na3  1  0.50000000  0.25000000  0.50000000  1
  Sb  Sb4  1  0.73885400  0.50000000  0.24711100  1
  Sb  Sb5  1  0.23885400  0.50000000  0.25288900  1
  Sb  Sb6  1  0.50000000  0.75000000  0.00000000  1
  Sb  Sb7  1  0.50000000  0.25000000  0.00000000  1
  Sb  Sb8  1  0.76114600  0.50000000  0.74711100  1
  Sb  Sb9  1  0.26114600  0.50000000  0.75288900  1
  Sb  Sb10  1  0.23885400  0.00000000  0.74711100  1
  Sb  Sb11  1  0.73885400  0.00000000  0.75288900  1
  Sb  Sb12  1  0.00000000  0.25000000  0.50000000  1
  Sb  Sb13  1  0.00000000  0.75000000  0.50000000  1
  Sb  Sb14  1  0.26114600  0.00000000  0.24711100  1
  Sb  Sb15  1  0.76114600  0.00000000  0.25288900  1
  O  O16  1  0.70215550  0.79513150  0.13701050  1
  O  O17  1  0.70215550  0.20486850  0.13701050  1
  O  O18  1  0.70215550  0.70486850  0.86298950  1
  O  O19  1  0.70215550  0.29513150  0.86298950  1
  O  O20  1  0.61581500  0.50000000  0.07662000  1
  O  O21  1  0.11581500  0.50000000  0.42338000  1
  O  O22  1  0.01182300  0.50000000  0.83647800  1
  O  O23  1  0.51182300  0.50000000  0.66352200  1
  O  O24  1  0.48817700  0.50000000  0.33647800  1
  O  O25  1  0.98817700  0.50000000  0.16352200  1
  O  O26  1  0.88418500  0.50000000  0.57662000  1
  O  O27  1  0.38418500  0.50000000  0.92338000  1
  O  O28  1  0.29784450  0.70486850  0.13701050  1
  O  O29  1  0.29784450  0.79513150  0.86298950  1
  O  O30  1  0.29784450  0.29513150  0.13701050  1
  O  O31  1  0.29784450  0.20486850  0.86298950  1
  O  O32  1  0.20215550  0.29513150  0.63701050  1
  O  O33  1  0.20215550  0.70486850  0.63701050  1
  O  O34  1  0.20215550  0.20486850  0.36298950  1
  O  O35  1  0.20215550  0.79513150  0.36298950  1
  O  O36  1  0.11581500  0.00000000  0.57662000  1
  O  O37  1  0.61581500  0.00000000  0.92338000  1
  O  O38  1  0.51182300  0.00000000  0.33647800  1
  O  O39  1  0.01182300  0.00000000  0.16352200  1
  O  O40  1  0.98817700  0.00000000  0.83647800  1
  O  O41  1  0.48817700  0.00000000  0.66352200  1
  O  O42  1  0.38418500  0.00000000  0.07662000  1
  O  O43  1  0.88418500  0.00000000  0.42338000  1
  O  O44  1  0.79784450  0.20486850  0.63701050  1
  O  O45  1  0.79784450  0.29513150  0.36298950  1
  O  O46  1  0.79784450  0.79513150  0.63701050  1
  O  O47  1  0.79784450  0.70486850  0.36298950  1
