# generated using pymatgen
data_Dy2P4O13
_symmetry_space_group_name_H-M   'P 1'
_cell_length_a   7.07194600
_cell_length_b   17.62417800
_cell_length_c   8.62785100
_cell_angle_alpha   90.00000000
_cell_angle_beta   90.00000000
_cell_angle_gamma   90.00000000
_symmetry_Int_Tables_number   1
_chemical_formula_structural   Dy2P4O13
_chemical_formula_sum   'Dy8 P16 O52'
_cell_volume   1075.35149358
_cell_formula_units_Z   4
loop_
 _symmetry_equiv_pos_site_id
 _symmetry_equiv_pos_as_xyz
  1  'x, y, z'
loop_
 _atom_site_type_symbol
 _atom_site_label
 _atom_site_symmetry_multiplicity
 _atom_site_fract_x
 _atom_site_fract_y
 _atom_site_fract_z
 _atom_site_occupancy
  Dy  Dy0  1  0.75371900  0.64688300  0.85288300  1
  Dy  Dy1  1  0.24628100  0.64688300  0.64711700  1
  Dy  Dy2  1  0.25371900  0.85311700  0.14711700  1
  Dy  Dy3  1  0.74628100  0.85311700  0.35288300  1
  Dy  Dy4  1  0.25371900  0.14688300  0.85288300  1
  Dy  Dy5  1  0.74628100  0.14688300  0.64711700  1
  Dy  Dy6  1  0.75371900  0.35311700  0.14711700  1
  Dy  Dy7  1  0.24628100  0.35311700  0.35288300  1
  P  P8  1  0.24449500  0.65977300  0.00276800  1
  P  P9  1  0.75550500  0.65977300  0.49723200  1
  P  P10  1  0.27883350  0.55833550  0.27390300  1
  P  P11  1  0.72116650  0.55833550  0.22609700  1
  P  P12  1  0.22116650  0.94166450  0.77390300  1
  P  P13  1  0.77883350  0.94166450  0.72609700  1
  P  P14  1  0.74449500  0.84022700  0.99723200  1
  P  P15  1  0.25550500  0.84022700  0.50276800  1
  P  P16  1  0.74449500  0.15977300  0.00276800  1
  P  P17  1  0.25550500  0.15977300  0.49723200  1
  P  P18  1  0.77883350  0.05833550  0.27390300  1
  P  P19  1  0.22116650  0.05833550  0.22609700  1
  P  P20  1  0.72116650  0.44166450  0.77390300  1
  P  P21  1  0.27883350  0.44166450  0.72609700  1
  P  P22  1  0.24449500  0.34022700  0.99723200  1
  P  P23  1  0.75550500  0.34022700  0.50276800  1
  O  O24  1  0.00000000  0.93789100  0.75000000  1
  O  O25  1  0.92221250  0.85447850  0.09831700  1
  O  O26  1  0.07778750  0.85447850  0.40168300  1
  O  O27  1  0.25527050  0.72774250  0.10852800  1
  O  O28  1  0.74472950  0.72774250  0.39147200  1
  O  O29  1  0.07905950  0.66044950  0.88690400  1
  O  O30  1  0.92094050  0.66044950  0.61309600  1
  O  O31  1  0.77270450  0.61421150  0.10212900  1
  O  O32  1  0.22729550  0.61421150  0.39787100  1
  O  O33  1  0.20295850  0.58508750  0.10812700  1
  O  O34  1  0.79704150  0.58508750  0.39187300  1
  O  O35  1  0.22084700  0.52273000  0.70432600  1
  O  O36  1  0.77915300  0.52273000  0.79567400  1
  O  O37  1  0.72084700  0.97727000  0.29567400  1
  O  O38  1  0.27915300  0.97727000  0.20432600  1
  O  O39  1  0.70295850  0.91491250  0.89187300  1
  O  O40  1  0.29704150  0.91491250  0.60812700  1
  O  O41  1  0.72729550  0.88578850  0.60212900  1
  O  O42  1  0.27270450  0.88578850  0.89787100  1
  O  O43  1  0.57905950  0.83955050  0.11309600  1
  O  O44  1  0.42094050  0.83955050  0.38690400  1
  O  O45  1  0.24472950  0.77225750  0.60852800  1
  O  O46  1  0.75527050  0.77225750  0.89147200  1
  O  O47  1  0.57778750  0.64552150  0.59831700  1
  O  O48  1  0.42221250  0.64552150  0.90168300  1
  O  O49  1  0.50000000  0.56210900  0.25000000  1
  O  O50  1  0.50000000  0.43789100  0.75000000  1
  O  O51  1  0.42221250  0.35447850  0.09831700  1
  O  O52  1  0.57778750  0.35447850  0.40168300  1
  O  O53  1  0.75527050  0.22774250  0.10852800  1
  O  O54  1  0.24472950  0.22774250  0.39147200  1
  O  O55  1  0.57905950  0.16044950  0.88690400  1
  O  O56  1  0.42094050  0.16044950  0.61309600  1
  O  O57  1  0.27270450  0.11421150  0.10212900  1
  O  O58  1  0.72729550  0.11421150  0.39787100  1
  O  O59  1  0.70295850  0.08508750  0.10812700  1
  O  O60  1  0.29704150  0.08508750  0.39187300  1
  O  O61  1  0.72084700  0.02273000  0.70432600  1
  O  O62  1  0.27915300  0.02273000  0.79567400  1
  O  O63  1  0.22084700  0.47727000  0.29567400  1
  O  O64  1  0.77915300  0.47727000  0.20432600  1
  O  O65  1  0.20295850  0.41491250  0.89187300  1
  O  O66  1  0.79704150  0.41491250  0.60812700  1
  O  O67  1  0.22729550  0.38578850  0.60212900  1
  O  O68  1  0.77270450  0.38578850  0.89787100  1
  O  O69  1  0.07905950  0.33955050  0.11309600  1
  O  O70  1  0.92094050  0.33955050  0.38690400  1
  O  O71  1  0.74472950  0.27225750  0.60852800  1
  O  O72  1  0.25527050  0.27225750  0.89147200  1
  O  O73  1  0.07778750  0.14552150  0.59831700  1
  O  O74  1  0.92221250  0.14552150  0.90168300  1
  O  O75  1  0.00000000  0.06210900  0.25000000  1
