# generated using pymatgen
data_BaCaI4
_symmetry_space_group_name_H-M   'P 1'
_cell_length_a   6.08317000
_cell_length_b   22.09145400
_cell_length_c   8.30078700
_cell_angle_alpha   90.00000000
_cell_angle_beta   90.00000000
_cell_angle_gamma   90.00000000
_symmetry_Int_Tables_number   1
_chemical_formula_structural   BaCaI4
_chemical_formula_sum   'Ba4 Ca4 I16'
_cell_volume   1115.51014474
_cell_formula_units_Z   4
loop_
 _symmetry_equiv_pos_site_id
 _symmetry_equiv_pos_as_xyz
  1  'x, y, z'
loop_
 _atom_site_type_symbol
 _atom_site_label
 _atom_site_symmetry_multiplicity
 _atom_site_fract_x
 _atom_site_fract_y
 _atom_site_fract_z
 _atom_site_occupancy
  Ba  Ba0  1  0.50000000  0.66252300  0.42050000  1
  Ba  Ba1  1  0.00000000  0.83747700  0.92050000  1
  Ba  Ba2  1  0.00000000  0.16252300  0.42050000  1
  Ba  Ba3  1  0.50000000  0.33747700  0.92050000  1
  Ca  Ca4  1  0.50000000  0.90900500  0.50121800  1
  Ca  Ca5  1  0.00000000  0.59099500  0.00121800  1
  Ca  Ca6  1  0.00000000  0.40900500  0.50121800  1
  Ca  Ca7  1  0.50000000  0.09099500  0.00121800  1
  I  I8  1  0.50000000  0.59051000  0.03354900  1
  I  I9  1  0.50000000  0.96053100  0.85756100  1
  I  I10  1  0.50000000  0.83096000  0.19033200  1
  I  I11  1  0.50000000  0.78740100  0.70654700  1
  I  I12  1  0.00000000  0.90949000  0.53354900  1
  I  I13  1  0.00000000  0.71259900  0.20654700  1
  I  I14  1  0.00000000  0.53946900  0.35756100  1
  I  I15  1  0.00000000  0.66904000  0.69033200  1
  I  I16  1  0.00000000  0.09051000  0.03354900  1
  I  I17  1  0.00000000  0.46053100  0.85756100  1
  I  I18  1  0.00000000  0.33096000  0.19033200  1
  I  I19  1  0.00000000  0.28740100  0.70654700  1
  I  I20  1  0.50000000  0.40949000  0.53354900  1
  I  I21  1  0.50000000  0.21259900  0.20654700  1
  I  I22  1  0.50000000  0.03946900  0.35756100  1
  I  I23  1  0.50000000  0.16904000  0.69033200  1
