# generated using pymatgen
data_Li6V3W3O16
_symmetry_space_group_name_H-M   'P 1'
_cell_length_a   6.06774033
_cell_length_b   6.07480669
_cell_length_c   10.11696499
_cell_angle_alpha   89.01559650
_cell_angle_beta   89.14104803
_cell_angle_gamma   60.29342819
_symmetry_Int_Tables_number   1
_chemical_formula_structural   Li6V3W3O16
_chemical_formula_sum   'Li6 V3 W3 O16'
_cell_volume   323.84759743
_cell_formula_units_Z   1
loop_
 _symmetry_equiv_pos_site_id
 _symmetry_equiv_pos_as_xyz
  1  'x, y, z'
loop_
 _atom_site_type_symbol
 _atom_site_label
 _atom_site_symmetry_multiplicity
 _atom_site_fract_x
 _atom_site_fract_y
 _atom_site_fract_z
 _atom_site_occupancy
  Li  Li0  1  0.66228200  0.66771600  0.48493800  1
  Li  Li1  1  0.66818900  0.66325900  0.11225500  1
  Li  Li2  1  0.99478100  0.99606200  0.00348800  1
  Li  Li3  1  0.99054600  0.99527100  0.49955200  1
  Li  Li4  1  0.33045700  0.32811300  0.99153500  1
  Li  Li5  1  0.33405700  0.33245800  0.60455500  1
  V  V6  1  0.83373300  0.83315100  0.78643500  1
  V  V7  1  0.66455200  0.17257500  0.28569300  1
  V  V8  1  0.16750800  0.66526900  0.28553400  1
  W  W9  1  0.83100500  0.34114800  0.78438300  1
  W  W10  1  0.34079700  0.83061800  0.78444100  1
  W  W11  1  0.17202300  0.17015700  0.28501300  1
  O  O12  1  0.85769500  0.30619100  0.39196700  1
  O  O13  1  0.51162500  0.51284200  0.67063200  1
  O  O14  1  0.66258900  0.66144000  0.90143100  1
  O  O15  1  0.00619600  0.00689900  0.67887700  1
  O  O16  1  0.00312500  0.01814100  0.18232500  1
  O  O17  1  0.30205900  0.85570600  0.39094400  1
  O  O18  1  0.97544000  0.50790700  0.68075500  1
  O  O19  1  0.50763700  0.97514200  0.68120600  1
  O  O20  1  0.15366600  0.15237400  0.89712400  1
  O  O21  1  0.83385000  0.86620800  0.38344400  1
  O  O22  1  0.47745000  0.02619600  0.17965500  1
  O  O23  1  0.02938200  0.47851900  0.17964600  1
  O  O24  1  0.33051300  0.31562600  0.39714400  1
  O  O25  1  0.69484200  0.16043200  0.89062100  1
  O  O26  1  0.50287300  0.46605800  0.18690600  1
  O  O27  1  0.16143000  0.69422400  0.89165900  1
