# generated using pymatgen
data_Y11Ta5O28
_symmetry_space_group_name_H-M   'P 1'
_cell_length_a   6.45334063
_cell_length_b   7.37129516
_cell_length_c   13.02979013
_cell_angle_alpha   106.42101308
_cell_angle_beta   99.50637853
_cell_angle_gamma   90.07829288
_symmetry_Int_Tables_number   1
_chemical_formula_structural   Y11Ta5O28
_chemical_formula_sum   'Y11 Ta5 O28'
_cell_volume   585.61642437
_cell_formula_units_Z   1
loop_
 _symmetry_equiv_pos_site_id
 _symmetry_equiv_pos_as_xyz
  1  'x, y, z'
loop_
 _atom_site_type_symbol
 _atom_site_label
 _atom_site_symmetry_multiplicity
 _atom_site_fract_x
 _atom_site_fract_y
 _atom_site_fract_z
 _atom_site_occupancy
  Y  Y0  1  0.71656796  0.62196350  0.25432178  1
  Y  Y1  1  0.50000000  0.50000000  0.50000000  1
  Y  Y2  1  0.77758002  0.12587076  0.24834561  1
  Y  Y3  1  0.50000000  0.00000000  0.00000000  1
  Y  Y4  1  0.00699260  0.74595756  0.49829613  1
  Y  Y5  1  0.99300740  0.25404244  0.50170387  1
  Y  Y6  1  0.50000000  0.50000000  0.00000000  1
  Y  Y7  1  0.22241998  0.87412924  0.75165439  1
  Y  Y8  1  0.97743199  0.75907838  0.98062349  1
  Y  Y9  1  0.28343204  0.37803650  0.74567822  1
  Y  Y10  1  0.02256801  0.24092162  0.01937651  1
  Ta  Ta11  1  0.50000000  0.00000000  0.50000000  1
  Ta  Ta12  1  0.75833322  0.60660899  0.75477449  1
  Ta  Ta13  1  0.24071080  0.86101403  0.24514517  1
  Ta  Ta14  1  0.24166678  0.39339101  0.24522551  1
  Ta  Ta15  1  0.75928920  0.13898597  0.75485483  1
  O  O16  1  0.61995868  0.40309435  0.69200784  1
  O  O17  1  0.85488858  0.85756282  0.78377320  1
  O  O18  1  0.63970522  0.75520301  0.59242190  1
  O  O19  1  0.64844583  0.15473201  0.58959923  1
  O  O20  1  0.70522016  0.21572461  0.06937140  1
  O  O21  1  0.69599845  0.71439986  0.06934825  1
  O  O22  1  0.22978153  0.96680261  0.56895373  1
  O  O23  1  0.20106074  0.47098918  0.55495981  1
  O  O24  1  0.53145364  0.36968594  0.21146372  1
  O  O25  1  0.03074783  0.62322666  0.69717362  1
  O  O26  1  0.36029478  0.24479699  0.40757810  1
  O  O27  1  0.35155417  0.84526799  0.41040077  1
  O  O28  1  0.03202431  0.17764600  0.69852002  1
  O  O29  1  0.53132231  0.91786894  0.21064153  1
  O  O30  1  0.14511142  0.14243718  0.21622680  1
  O  O31  1  0.38004132  0.59690565  0.30799216  1
  O  O32  1  0.96925217  0.37677334  0.30282638  1
  O  O33  1  0.46854636  0.63031406  0.78853628  1
  O  O34  1  0.46867769  0.08213106  0.78935847  1
  O  O35  1  0.16145872  0.48540182  0.08676887  1
  O  O36  1  0.96797569  0.82235400  0.30147998  1
  O  O37  1  0.16116527  0.92637464  0.08655885  1
  O  O38  1  0.79893926  0.52901082  0.44504019  1
  O  O39  1  0.29477984  0.78427539  0.93062860  1
  O  O40  1  0.30400155  0.28560014  0.93065175  1
  O  O41  1  0.77021847  0.03319739  0.43104627  1
  O  O42  1  0.83883473  0.07362536  0.91344115  1
  O  O43  1  0.83854128  0.51459818  0.91323113  1
