# generated using pymatgen
data_CsH7(C2O5)2
_symmetry_space_group_name_H-M   'P 1'
_cell_length_a   6.45301900
_cell_length_b   7.49638975
_cell_length_c   10.93740607
_cell_angle_alpha   94.01293124
_cell_angle_beta   99.85411471
_cell_angle_gamma   96.46471997
_symmetry_Int_Tables_number   1
_chemical_formula_structural   CsH7(C2O5)2
_chemical_formula_sum   'Cs2 H14 C8 O20'
_cell_volume   515.81238068
_cell_formula_units_Z   2
loop_
 _symmetry_equiv_pos_site_id
 _symmetry_equiv_pos_as_xyz
  1  'x, y, z'
loop_
 _atom_site_type_symbol
 _atom_site_label
 _atom_site_symmetry_multiplicity
 _atom_site_fract_x
 _atom_site_fract_y
 _atom_site_fract_z
 _atom_site_occupancy
  Cs  Cs0  1  0.84500000  0.84912100  0.71999700  1
  Cs  Cs1  1  0.15500000  0.15087900  0.28000300  1
  H  H2  1  0.84778000  0.35138300  0.74271200  1
  H  H3  1  0.15222000  0.64861700  0.25728800  1
  H  H4  1  0.38784100  0.08727800  0.76798200  1
  H  H5  1  0.61215900  0.91272200  0.23201800  1
  H  H6  1  0.34526500  0.56653300  0.76688500  1
  H  H7  1  0.65473500  0.43346700  0.23311500  1
  H  H8  1  0.26069800  0.20881900  0.61920700  1
  H  H9  1  0.73930200  0.79118100  0.38079300  1
  H  H10  1  0.28387900  0.99978200  0.58914900  1
  H  H11  1  0.71612100  0.00021800  0.41085100  1
  H  H12  1  0.83918800  0.22703000  0.91939800  1
  H  H13  1  0.16081200  0.77297000  0.08060200  1
  H  H14  1  0.07007500  0.31768100  0.90991500  1
  H  H15  1  0.92992500  0.68231900  0.09008500  1
  C  C16  1  0.72015900  0.43700500  0.44339400  1
  C  C17  1  0.27984100  0.56299500  0.55660600  1
  C  C18  1  0.75027700  0.32213900  0.55763100  1
  C  C19  1  0.24972300  0.67786100  0.44236900  1
  C  C20  1  0.41909600  0.99631800  0.93855100  1
  C  C21  1  0.58090400  0.00368200  0.06144900  1
  C  C22  1  0.50901400  0.54666100  0.93957900  1
  C  C23  1  0.49098600  0.45333900  0.06042100  1
  O  O24  1  0.74678200  0.60564900  0.46406500  1
  O  O25  1  0.25321800  0.39435100  0.53593500  1
  O  O26  1  0.67207400  0.34309300  0.33840700  1
  O  O27  1  0.32792600  0.65690700  0.66159300  1
  O  O28  1  0.81000200  0.42209300  0.66454100  1
  O  O29  1  0.18999800  0.57790700  0.33545900  1
  O  O30  1  0.72114700  0.15582500  0.54544200  1
  O  O31  1  0.27885300  0.84417500  0.45455800  1
  O  O32  1  0.24021800  0.91064300  0.92596600  1
  O  O33  1  0.75978200  0.08935700  0.07403400  1
  O  O34  1  0.49688800  0.08787100  0.85545200  1
  O  O35  1  0.50311200  0.91212900  0.14454800  1
  O  O36  1  0.66529500  0.65487700  0.93333800  1
  O  O37  1  0.33470500  0.34512300  0.06666200  1
  O  O38  1  0.34391400  0.49668800  0.85181400  1
  O  O39  1  0.65608600  0.50331200  0.14818600  1
  O  O40  1  0.25501500  0.08871500  0.65360800  1
  O  O41  1  0.74498500  0.91128500  0.34639200  1
  O  O42  1  0.92848400  0.27310900  0.86162300  1
  O  O43  1  0.07151600  0.72689100  0.13837700  1
