# generated using pymatgen
data_Ca3Zr2O7
_symmetry_space_group_name_H-M   'P 1'
_cell_length_a   5.80525000
_cell_length_b   20.05004800
_cell_length_c   5.82143400
_cell_angle_alpha   90.00000000
_cell_angle_beta   90.00000000
_cell_angle_gamma   90.00000000
_symmetry_Int_Tables_number   1
_chemical_formula_structural   Ca3Zr2O7
_chemical_formula_sum   'Ca12 Zr8 O28'
_cell_volume   677.58896071
_cell_formula_units_Z   4
loop_
 _symmetry_equiv_pos_site_id
 _symmetry_equiv_pos_as_xyz
  1  'x, y, z'
loop_
 _atom_site_type_symbol
 _atom_site_label
 _atom_site_symmetry_multiplicity
 _atom_site_fract_x
 _atom_site_fract_y
 _atom_site_fract_z
 _atom_site_occupancy
  Ca  Ca0  1  0.74540050  0.80733850  0.25000000  1
  Ca  Ca1  1  0.25459950  0.80733850  0.75000000  1
  Ca  Ca2  1  0.72260000  0.00000000  0.25000000  1
  Ca  Ca3  1  0.27740000  0.00000000  0.75000000  1
  Ca  Ca4  1  0.24540050  0.69266150  0.25000000  1
  Ca  Ca5  1  0.75459950  0.69266150  0.75000000  1
  Ca  Ca6  1  0.24540050  0.30733850  0.25000000  1
  Ca  Ca7  1  0.75459950  0.30733850  0.75000000  1
  Ca  Ca8  1  0.22260000  0.50000000  0.25000000  1
  Ca  Ca9  1  0.77740000  0.50000000  0.75000000  1
  Ca  Ca10  1  0.74540050  0.19266150  0.25000000  1
  Ca  Ca11  1  0.25459950  0.19266150  0.75000000  1
  Zr  Zr12  1  0.75418700  0.89842300  0.75000000  1
  Zr  Zr13  1  0.24581300  0.89842300  0.25000000  1
  Zr  Zr14  1  0.74581300  0.60157700  0.25000000  1
  Zr  Zr15  1  0.25418700  0.60157700  0.75000000  1
  Zr  Zr16  1  0.25418700  0.39842300  0.75000000  1
  Zr  Zr17  1  0.74581300  0.39842300  0.25000000  1
  Zr  Zr18  1  0.24581300  0.10157700  0.25000000  1
  Zr  Zr19  1  0.75418700  0.10157700  0.75000000  1
  O  O20  1  0.50000000  0.62806900  0.00000000  1
  O  O21  1  0.50000000  0.62806900  0.50000000  1
  O  O22  1  0.64435650  0.79894150  0.75000000  1
  O  O23  1  0.35564350  0.79894150  0.25000000  1
  O  O24  1  0.50000000  0.92408100  0.00000000  1
  O  O25  1  0.50000000  0.92408100  0.50000000  1
  O  O26  1  0.87158900  0.00000000  0.75000000  1
  O  O27  1  0.12841100  0.00000000  0.25000000  1
  O  O28  1  0.00000000  0.57591900  0.50000000  1
  O  O29  1  0.00000000  0.57591900  0.00000000  1
  O  O30  1  0.85564350  0.70105850  0.25000000  1
  O  O31  1  0.14435650  0.70105850  0.75000000  1
  O  O32  1  0.00000000  0.87193100  0.50000000  1
  O  O33  1  0.00000000  0.87193100  0.00000000  1
  O  O34  1  0.00000000  0.12806900  0.00000000  1
  O  O35  1  0.00000000  0.12806900  0.50000000  1
  O  O36  1  0.14435650  0.29894150  0.75000000  1
  O  O37  1  0.85564350  0.29894150  0.25000000  1
  O  O38  1  0.00000000  0.42408100  0.00000000  1
  O  O39  1  0.00000000  0.42408100  0.50000000  1
  O  O40  1  0.37158900  0.50000000  0.75000000  1
  O  O41  1  0.62841100  0.50000000  0.25000000  1
  O  O42  1  0.50000000  0.07591900  0.50000000  1
  O  O43  1  0.50000000  0.07591900  0.00000000  1
  O  O44  1  0.35564350  0.20105850  0.25000000  1
  O  O45  1  0.64435650  0.20105850  0.75000000  1
  O  O46  1  0.50000000  0.37193100  0.50000000  1
  O  O47  1  0.50000000  0.37193100  0.00000000  1
