# generated using pymatgen
data_Ca8MgAl6Si5O28
_symmetry_space_group_name_H-M   'P 1'
_cell_length_a   8.51200400
_cell_length_b   9.05354728
_cell_length_c   9.38348577
_cell_angle_alpha   96.35256885
_cell_angle_beta   113.34386817
_cell_angle_gamma   102.42704484
_symmetry_Int_Tables_number   1
_chemical_formula_structural   Ca8MgAl6Si5O28
_chemical_formula_sum   'Ca8 Mg1 Al6 Si5 O28'
_cell_volume   632.71170066
_cell_formula_units_Z   1
loop_
 _symmetry_equiv_pos_site_id
 _symmetry_equiv_pos_as_xyz
  1  'x, y, z'
loop_
 _atom_site_type_symbol
 _atom_site_label
 _atom_site_symmetry_multiplicity
 _atom_site_fract_x
 _atom_site_fract_y
 _atom_site_fract_z
 _atom_site_occupancy
  Ca  Ca0  1  0.48583200  0.17687100  0.22631400  1
  Ca  Ca1  1  0.68292900  0.54251900  0.89071300  1
  Ca  Ca2  1  0.36397200  0.17628300  0.82132500  1
  Ca  Ca3  1  0.18711500  0.34044900  0.37470500  1
  Ca  Ca4  1  0.92021800  0.23966300  0.89294400  1
  Ca  Ca5  1  0.82952600  0.91200400  0.20821000  1
  Ca  Ca6  1  0.18867600  0.65513600  0.16023600  1
  Ca  Ca7  1  0.98344100  0.66628500  0.70248800  1
  Mg  Mg8  1  0.92283500  0.25098900  0.52295600  1
  Al  Al9  1  0.69283800  0.87428300  0.82474600  1
  Al  Al10  1  0.52144800  0.50304800  0.12311400  1
  Al  Al11  1  0.09958700  0.94087800  0.01443800  1
  Al  Al12  1  0.22521000  0.45844100  0.74920000  1
  Al  Al13  1  0.32562000  0.97154200  0.41645800  1
  Al  Al14  1  0.53330700  0.58340300  0.44530900  1
  Si  Si15  1  0.72270500  0.92420700  0.52060700  1
  Si  Si16  1  0.44339500  0.81147600  0.03157300  1
  Si  Si17  1  0.36716100  0.74365000  0.60711700  1
  Si  Si18  1  0.57296300  0.29257800  0.58538800  1
  Si  Si19  1  0.82704300  0.43592600  0.19780800  1
  O  O20  1  0.26816000  0.88456600  0.55580700  1
  O  O21  1  0.72884800  0.73734000  0.50513000  1
  O  O22  1  0.02406800  0.43280900  0.77003400  1
  O  O23  1  0.57463600  0.47943900  0.60234400  1
  O  O24  1  0.88164700  0.78602000  0.89519100  1
  O  O25  1  0.41493600  0.44726100  0.90932200  1
  O  O26  1  0.94579100  0.44597300  0.09289200  1
  O  O27  1  0.22067400  0.10595700  0.97705500  1
  O  O28  1  0.18694800  0.29035900  0.61114400  1
  O  O29  1  0.32848900  0.62374400  0.43063100  1
  O  O30  1  0.69362700  0.26071100  0.49912900  1
  O  O31  1  0.62023400  0.26908300  0.76582800  1
  O  O32  1  0.98400800  0.08587100  0.09495800  1
  O  O33  1  0.78527200  0.05060200  0.99645600  1
  O  O34  1  0.36998600  0.17778000  0.45107000  1
  O  O35  1  0.76749900  0.60319800  0.19322400  1
  O  O36  1  0.56016900  0.97861000  0.14410700  1
  O  O37  1  0.86062300  0.01657000  0.45730200  1
  O  O38  1  0.93342900  0.38768100  0.36267400  1
  O  O39  1  0.22419500  0.79960200  0.94817900  1
  O  O40  1  0.51519300  0.92203500  0.42274400  1
  O  O41  1  0.16513900  0.89973400  0.21614600  1
  O  O42  1  0.78669600  0.99485100  0.71092100  1
  O  O43  1  0.44922900  0.43844900  0.26933700  1
  O  O44  1  0.57102000  0.77392600  0.94137600  1
  O  O45  1  0.23763300  0.62939300  0.66971900  1
  O  O46  1  0.44409700  0.67443200  0.13577500  1
  O  O47  1  0.61980200  0.32371200  0.10283900  1
