# generated using pymatgen
data_Na4Bi2C4SO16
_symmetry_space_group_name_H-M   'P 1'
_cell_length_a   14.39190000
_cell_length_b   14.75478400
_cell_length_c   14.78992600
_cell_angle_alpha   90.00000000
_cell_angle_beta   90.00000000
_cell_angle_gamma   90.00000000
_symmetry_Int_Tables_number   1
_chemical_formula_structural   Na4Bi2C4SO16
_chemical_formula_sum   'Na32 Bi16 C32 S8 O128'
_cell_volume   3140.63155496
_cell_formula_units_Z   8
loop_
 _symmetry_equiv_pos_site_id
 _symmetry_equiv_pos_as_xyz
  1  'x, y, z'
loop_
 _atom_site_type_symbol
 _atom_site_label
 _atom_site_symmetry_multiplicity
 _atom_site_fract_x
 _atom_site_fract_y
 _atom_site_fract_z
 _atom_site_occupancy
  Na  Na0  1  0.50000000  0.70439700  0.00000000  1
  Na  Na1  1  0.50000000  0.00000000  0.29539200  1
  Na  Na2  1  0.20327700  0.00000000  0.00000000  1
  Na  Na3  1  0.79672300  0.00000000  0.00000000  1
  Na  Na4  1  0.94236100  0.75000000  0.25000000  1
  Na  Na5  1  0.50000000  0.29560300  0.00000000  1
  Na  Na6  1  0.00000000  0.00000000  0.20460800  1
  Na  Na7  1  0.55763900  0.75000000  0.25000000  1
  Na  Na8  1  0.50000000  0.20439700  0.50000000  1
  Na  Na9  1  0.50000000  0.50000000  0.79539200  1
  Na  Na10  1  0.20327700  0.50000000  0.50000000  1
  Na  Na11  1  0.79672300  0.50000000  0.50000000  1
  Na  Na12  1  0.94236100  0.25000000  0.75000000  1
  Na  Na13  1  0.50000000  0.79560300  0.50000000  1
  Na  Na14  1  0.00000000  0.50000000  0.70460800  1
  Na  Na15  1  0.55763900  0.25000000  0.75000000  1
  Na  Na16  1  0.00000000  0.70439700  0.50000000  1
  Na  Na17  1  0.00000000  0.00000000  0.79539200  1
  Na  Na18  1  0.70327700  0.00000000  0.50000000  1
  Na  Na19  1  0.29672300  0.00000000  0.50000000  1
  Na  Na20  1  0.44236100  0.75000000  0.75000000  1
  Na  Na21  1  0.00000000  0.29560300  0.50000000  1
  Na  Na22  1  0.50000000  0.00000000  0.70460800  1
  Na  Na23  1  0.05763900  0.75000000  0.75000000  1
  Na  Na24  1  0.00000000  0.20439700  0.00000000  1
  Na  Na25  1  0.00000000  0.50000000  0.29539200  1
  Na  Na26  1  0.70327700  0.50000000  0.00000000  1
  Na  Na27  1  0.29672300  0.50000000  0.00000000  1
  Na  Na28  1  0.44236100  0.25000000  0.25000000  1
  Na  Na29  1  0.00000000  0.79560300  0.00000000  1
  Na  Na30  1  0.50000000  0.50000000  0.20460800  1
  Na  Na31  1  0.05763900  0.25000000  0.25000000  1
  Bi  Bi32  1  0.62923750  0.12280450  0.12210900  1
  Bi  Bi33  1  0.12923750  0.87719550  0.37789100  1
  Bi  Bi34  1  0.87076250  0.12280450  0.37789100  1
  Bi  Bi35  1  0.37076250  0.87719550  0.12210900  1
  Bi  Bi36  1  0.62923750  0.62280450  0.62210900  1
  Bi  Bi37  1  0.12923750  0.37719550  0.87789100  1
  Bi  Bi38  1  0.87076250  0.62280450  0.87789100  1
  Bi  Bi39  1  0.37076250  0.37719550  0.62210900  1
  Bi  Bi40  1  0.12923750  0.12280450  0.62210900  1
  Bi  Bi41  1  0.62923750  0.87719550  0.87789100  1
  Bi  Bi42  1  0.37076250  0.12280450  0.87789100  1
  Bi  Bi43  1  0.87076250  0.87719550  0.62210900  1
  Bi  Bi44  1  0.12923750  0.62280450  0.12210900  1
  Bi  Bi45  1  0.62923750  0.37719550  0.37789100  1
  Bi  Bi46  1  0.37076250  0.62280450  0.37789100  1
  Bi  Bi47  1  0.87076250  0.37719550  0.12210900  1
  C  C48  1  0.59543150  0.90372700  0.09533350  1
  C  C49  1  0.64653550  0.15223800  0.34692750  1
  C  C50  1  0.85346450  0.15223800  0.15307250  1
  C  C51  1  0.85346450  0.34776200  0.34692750  1
  C  C52  1  0.40456850  0.09627300  0.09533350  1
  C  C53  1  0.90456850  0.90372700  0.40466650  1
  C  C54  1  0.09543150  0.09627300  0.40466650  1
  C  C55  1  0.64653550  0.34776200  0.15307250  1
  C  C56  1  0.59543150  0.40372700  0.59533350  1
  C  C57  1  0.64653550  0.65223800  0.84692750  1
  C  C58  1  0.85346450  0.65223800  0.65307250  1
  C  C59  1  0.85346450  0.84776200  0.84692750  1
  C  C60  1  0.40456850  0.59627300  0.59533350  1
  C  C61  1  0.90456850  0.40372700  0.90466650  1
  C  C62  1  0.09543150  0.59627300  0.90466650  1
  C  C63  1  0.64653550  0.84776200  0.65307250  1
  C  C64  1  0.09543150  0.90372700  0.59533350  1
  C  C65  1  0.14653550  0.15223800  0.84692750  1
  C  C66  1  0.35346450  0.15223800  0.65307250  1
  C  C67  1  0.35346450  0.34776200  0.84692750  1
  C  C68  1  0.90456850  0.09627300  0.59533350  1
  C  C69  1  0.40456850  0.90372700  0.90466650  1
  C  C70  1  0.59543150  0.09627300  0.90466650  1
  C  C71  1  0.14653550  0.34776200  0.65307250  1
  C  C72  1  0.09543150  0.40372700  0.09533350  1
  C  C73  1  0.14653550  0.65223800  0.34692750  1
  C  C74  1  0.35346450  0.65223800  0.15307250  1
  C  C75  1  0.35346450  0.84776200  0.34692750  1
  C  C76  1  0.90456850  0.59627300  0.09533350  1
  C  C77  1  0.40456850  0.40372700  0.40466650  1
  C  C78  1  0.59543150  0.59627300  0.40466650  1
  C  C79  1  0.14653550  0.84776200  0.15307250  1
  S  S80  1  0.75000000  0.75000000  0.25000000  1
  S  S81  1  0.00000000  0.00000000  0.00000000  1
  S  S82  1  0.75000000  0.25000000  0.75000000  1
  S  S83  1  0.00000000  0.50000000  0.50000000  1
  S  S84  1  0.25000000  0.75000000  0.75000000  1
  S  S85  1  0.50000000  0.00000000  0.50000000  1
  S  S86  1  0.25000000  0.25000000  0.25000000  1
  S  S87  1  0.50000000  0.50000000  0.00000000  1
  O  O88  1  0.53384900  0.89788400  0.16013000  1
  O  O89  1  0.58708400  0.21884150  0.35440750  1
  O  O90  1  0.59484900  0.84426800  0.03094500  1
  O  O91  1  0.63906950  0.09474800  0.28137850  1
  O  O92  1  0.65518700  0.96947850  0.09393050  1
  O  O93  1  0.68854950  0.69199150  0.19183500  1
  O  O94  1  0.68854950  0.80800850  0.30816500  1
  O  O95  1  0.71148700  0.14312650  0.40724050  1
  O  O96  1  0.78851300  0.14312650  0.09275950  1
  O  O97  1  0.78851300  0.35687350  0.40724050  1
  O  O98  1  0.81145050  0.69199150  0.30816500  1
  O  O99  1  0.81145050  0.80800850  0.19183500  1
  O  O100  1  0.84481300  0.96947850  0.40606950  1
  O  O101  1  0.34481300  0.03052150  0.09393050  1
  O  O102  1  0.86093050  0.40525200  0.28137850  1
  O  O103  1  0.86093050  0.09474800  0.21862150  1
  O  O104  1  0.40515100  0.15573200  0.03094500  1
  O  O105  1  0.90515100  0.84426800  0.46905500  1
  O  O106  1  0.91291600  0.28115850  0.35440750  1
  O  O107  1  0.91291600  0.21884150  0.14559250  1
  O  O108  1  0.94025100  0.94139000  0.05859900  1
  O  O109  1  0.94025100  0.55861000  0.44140100  1
  O  O110  1  0.46615100  0.10211600  0.16013000  1
  O  O111  1  0.96615100  0.89788400  0.33987000  1
  O  O112  1  0.03384900  0.10211600  0.33987000  1
  O  O113  1  0.55974900  0.55861000  0.05859900  1
  O  O114  1  0.55974900  0.94139000  0.44140100  1
  O  O115  1  0.58708400  0.28115850  0.14559250  1
  O  O116  1  0.09484900  0.15573200  0.46905500  1
  O  O117  1  0.63906950  0.40525200  0.21862150  1
  O  O118  1  0.15518700  0.03052150  0.40606950  1
  O  O119  1  0.71148700  0.35687350  0.09275950  1
  O  O120  1  0.53384900  0.39788400  0.66013000  1
  O  O121  1  0.58708400  0.71884150  0.85440750  1
  O  O122  1  0.59484900  0.34426800  0.53094500  1
  O  O123  1  0.63906950  0.59474800  0.78137850  1
  O  O124  1  0.65518700  0.46947850  0.59393050  1
  O  O125  1  0.68854950  0.19199150  0.69183500  1
  O  O126  1  0.68854950  0.30800850  0.80816500  1
  O  O127  1  0.71148700  0.64312650  0.90724050  1
  O  O128  1  0.78851300  0.64312650  0.59275950  1
  O  O129  1  0.78851300  0.85687350  0.90724050  1
  O  O130  1  0.81145050  0.19199150  0.80816500  1
  O  O131  1  0.81145050  0.30800850  0.69183500  1
  O  O132  1  0.84481300  0.46947850  0.90606950  1
  O  O133  1  0.34481300  0.53052150  0.59393050  1
  O  O134  1  0.86093050  0.90525200  0.78137850  1
  O  O135  1  0.86093050  0.59474800  0.71862150  1
  O  O136  1  0.40515100  0.65573200  0.53094500  1
  O  O137  1  0.90515100  0.34426800  0.96905500  1
  O  O138  1  0.91291600  0.78115850  0.85440750  1
  O  O139  1  0.91291600  0.71884150  0.64559250  1
  O  O140  1  0.94025100  0.44139000  0.55859900  1
  O  O141  1  0.94025100  0.05861000  0.94140100  1
  O  O142  1  0.46615100  0.60211600  0.66013000  1
  O  O143  1  0.96615100  0.39788400  0.83987000  1
  O  O144  1  0.03384900  0.60211600  0.83987000  1
  O  O145  1  0.55974900  0.05861000  0.55859900  1
  O  O146  1  0.55974900  0.44139000  0.94140100  1
  O  O147  1  0.58708400  0.78115850  0.64559250  1
  O  O148  1  0.09484900  0.65573200  0.96905500  1
  O  O149  1  0.63906950  0.90525200  0.71862150  1
  O  O150  1  0.15518700  0.53052150  0.90606950  1
  O  O151  1  0.71148700  0.85687350  0.59275950  1
  O  O152  1  0.03384900  0.89788400  0.66013000  1
  O  O153  1  0.08708400  0.21884150  0.85440750  1
  O  O154  1  0.09484900  0.84426800  0.53094500  1
  O  O155  1  0.13906950  0.09474800  0.78137850  1
  O  O156  1  0.15518700  0.96947850  0.59393050  1
  O  O157  1  0.18854950  0.69199150  0.69183500  1
  O  O158  1  0.18854950  0.80800850  0.80816500  1
  O  O159  1  0.21148700  0.14312650  0.90724050  1
  O  O160  1  0.28851300  0.14312650  0.59275950  1
  O  O161  1  0.28851300  0.35687350  0.90724050  1
  O  O162  1  0.31145050  0.69199150  0.80816500  1
  O  O163  1  0.31145050  0.80800850  0.69183500  1
  O  O164  1  0.34481300  0.96947850  0.90606950  1
  O  O165  1  0.84481300  0.03052150  0.59393050  1
  O  O166  1  0.36093050  0.40525200  0.78137850  1
  O  O167  1  0.36093050  0.09474800  0.71862150  1
  O  O168  1  0.90515100  0.15573200  0.53094500  1
  O  O169  1  0.40515100  0.84426800  0.96905500  1
  O  O170  1  0.41291600  0.28115850  0.85440750  1
  O  O171  1  0.41291600  0.21884150  0.64559250  1
  O  O172  1  0.44025100  0.94139000  0.55859900  1
  O  O173  1  0.44025100  0.55861000  0.94140100  1
  O  O174  1  0.96615100  0.10211600  0.66013000  1
  O  O175  1  0.46615100  0.89788400  0.83987000  1
  O  O176  1  0.53384900  0.10211600  0.83987000  1
  O  O177  1  0.05974900  0.55861000  0.55859900  1
  O  O178  1  0.05974900  0.94139000  0.94140100  1
  O  O179  1  0.08708400  0.28115850  0.64559250  1
  O  O180  1  0.59484900  0.15573200  0.96905500  1
  O  O181  1  0.13906950  0.40525200  0.71862150  1
  O  O182  1  0.65518700  0.03052150  0.90606950  1
  O  O183  1  0.21148700  0.35687350  0.59275950  1
  O  O184  1  0.03384900  0.39788400  0.16013000  1
  O  O185  1  0.08708400  0.71884150  0.35440750  1
  O  O186  1  0.09484900  0.34426800  0.03094500  1
  O  O187  1  0.13906950  0.59474800  0.28137850  1
  O  O188  1  0.15518700  0.46947850  0.09393050  1
  O  O189  1  0.18854950  0.19199150  0.19183500  1
  O  O190  1  0.18854950  0.30800850  0.30816500  1
  O  O191  1  0.21148700  0.64312650  0.40724050  1
  O  O192  1  0.28851300  0.64312650  0.09275950  1
  O  O193  1  0.28851300  0.85687350  0.40724050  1
  O  O194  1  0.31145050  0.19199150  0.30816500  1
  O  O195  1  0.31145050  0.30800850  0.19183500  1
  O  O196  1  0.34481300  0.46947850  0.40606950  1
  O  O197  1  0.84481300  0.53052150  0.09393050  1
  O  O198  1  0.36093050  0.90525200  0.28137850  1
  O  O199  1  0.36093050  0.59474800  0.21862150  1
  O  O200  1  0.90515100  0.65573200  0.03094500  1
  O  O201  1  0.40515100  0.34426800  0.46905500  1
  O  O202  1  0.41291600  0.78115850  0.35440750  1
  O  O203  1  0.41291600  0.71884150  0.14559250  1
  O  O204  1  0.44025100  0.44139000  0.05859900  1
  O  O205  1  0.44025100  0.05861000  0.44140100  1
  O  O206  1  0.96615100  0.60211600  0.16013000  1
  O  O207  1  0.46615100  0.39788400  0.33987000  1
  O  O208  1  0.53384900  0.60211600  0.33987000  1
  O  O209  1  0.05974900  0.05861000  0.05859900  1
  O  O210  1  0.05974900  0.44139000  0.44140100  1
  O  O211  1  0.08708400  0.78115850  0.14559250  1
  O  O212  1  0.59484900  0.65573200  0.46905500  1
  O  O213  1  0.13906950  0.90525200  0.21862150  1
  O  O214  1  0.65518700  0.53052150  0.40606950  1
  O  O215  1  0.21148700  0.85687350  0.09275950  1
