# generated using pymatgen
data_LiZnFe7O12
_symmetry_space_group_name_H-M   'P 1'
_cell_length_a   10.45722600
_cell_length_b   6.04351600
_cell_length_c   14.77539413
_cell_angle_alpha   90.00000000
_cell_angle_beta   90.25828840
_cell_angle_gamma   90.00000000
_symmetry_Int_Tables_number   1
_chemical_formula_structural   LiZnFe7O12
_chemical_formula_sum   'Li4 Zn4 Fe28 O48'
_cell_volume   933.77196727
_cell_formula_units_Z   4
loop_
 _symmetry_equiv_pos_site_id
 _symmetry_equiv_pos_as_xyz
  1  'x, y, z'
loop_
 _atom_site_type_symbol
 _atom_site_label
 _atom_site_symmetry_multiplicity
 _atom_site_fract_x
 _atom_site_fract_y
 _atom_site_fract_z
 _atom_site_occupancy
  Li  Li0  1  0.99953400  0.00000000  0.75105300  1
  Li  Li1  1  0.66695900  0.00000000  0.41505300  1
  Li  Li2  1  0.49953400  0.50000000  0.75105300  1
  Li  Li3  1  0.16695900  0.50000000  0.41505300  1
  Zn  Zn4  1  0.66523100  0.00000000  0.04191500  1
  Zn  Zn5  1  0.83060500  0.00000000  0.21018300  1
  Zn  Zn6  1  0.16523100  0.50000000  0.04191500  1
  Zn  Zn7  1  0.33060500  0.50000000  0.21018300  1
  Fe  Fe8  1  0.00064000  0.00000000  0.99839600  1
  Fe  Fe9  1  0.58366450  0.24471450  0.20857300  1
  Fe  Fe10  1  0.32680100  0.00000000  0.08515600  1
  Fe  Fe11  1  0.00368600  0.00000000  0.37902400  1
  Fe  Fe12  1  0.16167000  0.00000000  0.54164400  1
  Fe  Fe13  1  0.34008200  0.00000000  0.33497100  1
  Fe  Fe14  1  0.58366450  0.75528550  0.20857300  1
  Fe  Fe15  1  0.41924900  0.25827500  0.54017300  1
  Fe  Fe16  1  0.41924900  0.74172500  0.54017300  1
  Fe  Fe17  1  0.25143400  0.24754100  0.87311200  1
  Fe  Fe18  1  0.33335300  0.00000000  0.71222000  1
  Fe  Fe19  1  0.49852300  0.00000000  0.87279900  1
  Fe  Fe20  1  0.66590800  0.00000000  0.66472100  1
  Fe  Fe21  1  0.25143400  0.75245900  0.87311200  1
  Fe  Fe22  1  0.50064000  0.50000000  0.99839600  1
  Fe  Fe23  1  0.08366450  0.74471450  0.20857300  1
  Fe  Fe24  1  0.82680100  0.50000000  0.08515600  1
  Fe  Fe25  1  0.50368600  0.50000000  0.37902400  1
  Fe  Fe26  1  0.66167000  0.50000000  0.54164400  1
  Fe  Fe27  1  0.84008200  0.50000000  0.33497100  1
  Fe  Fe28  1  0.08366450  0.25528550  0.20857300  1
  Fe  Fe29  1  0.91924900  0.75827500  0.54017300  1
  Fe  Fe30  1  0.91924900  0.24172500  0.54017300  1
  Fe  Fe31  1  0.75143400  0.74754100  0.87311200  1
  Fe  Fe32  1  0.83335300  0.50000000  0.71222000  1
  Fe  Fe33  1  0.99852300  0.50000000  0.87279900  1
  Fe  Fe34  1  0.16590800  0.50000000  0.66472100  1
  Fe  Fe35  1  0.75143400  0.25245900  0.87311200  1
  O  O36  1  0.42644100  0.73713400  0.29281200  1
  O  O37  1  0.74102850  0.24397750  0.12623100  1
  O  O38  1  0.50184600  0.00000000  0.12926400  1
  O  O39  1  0.66003600  0.00000000  0.27732600  1
  O  O40  1  0.33526300  0.00000000  0.46697000  1
  O  O41  1  0.16052600  0.00000000  0.28956200  1
  O  O42  1  0.00255800  0.00000000  0.13048000  1
  O  O43  1  0.42644100  0.26286600  0.29281200  1
  O  O44  1  0.25400350  0.23643450  0.62330700  1
  O  O45  1  0.57808000  0.72844700  0.46325800  1
  O  O46  1  0.74102850  0.75602250  0.12623100  1
  O  O47  1  0.57808000  0.27155300  0.46325800  1
  O  O48  1  0.40908350  0.22521350  0.79668500  1
  O  O49  1  0.84943600  0.00000000  0.46138100  1
  O  O50  1  0.18276600  0.00000000  0.79720500  1
  O  O51  1  0.99847800  0.00000000  0.61445800  1
  O  O52  1  0.82650500  0.00000000  0.95246000  1
  O  O53  1  0.66791700  0.00000000  0.79729800  1
  O  O54  1  0.49091300  0.00000000  0.62295200  1
  O  O55  1  0.58624000  0.76132500  0.95136600  1
  O  O56  1  0.25400350  0.76356550  0.62330700  1
  O  O57  1  0.58624000  0.23867500  0.95136600  1
  O  O58  1  0.40908350  0.77478650  0.79668500  1
  O  O59  1  0.33233800  0.00000000  0.95248100  1
  O  O60  1  0.92644100  0.23713400  0.29281200  1
  O  O61  1  0.24102850  0.74397750  0.12623100  1
  O  O62  1  0.00184600  0.50000000  0.12926400  1
  O  O63  1  0.16003600  0.50000000  0.27732600  1
  O  O64  1  0.83526300  0.50000000  0.46697000  1
  O  O65  1  0.66052600  0.50000000  0.28956200  1
  O  O66  1  0.50255800  0.50000000  0.13048000  1
  O  O67  1  0.92644100  0.76286600  0.29281200  1
  O  O68  1  0.75400350  0.73643450  0.62330700  1
  O  O69  1  0.07808000  0.22844700  0.46325800  1
  O  O70  1  0.24102850  0.25602250  0.12623100  1
  O  O71  1  0.07808000  0.77155300  0.46325800  1
  O  O72  1  0.90908350  0.72521350  0.79668500  1
  O  O73  1  0.34943600  0.50000000  0.46138100  1
  O  O74  1  0.68276600  0.50000000  0.79720500  1
  O  O75  1  0.49847800  0.50000000  0.61445800  1
  O  O76  1  0.32650500  0.50000000  0.95246000  1
  O  O77  1  0.16791700  0.50000000  0.79729800  1
  O  O78  1  0.99091300  0.50000000  0.62295200  1
  O  O79  1  0.08624000  0.26132500  0.95136600  1
  O  O80  1  0.75400350  0.26356550  0.62330700  1
  O  O81  1  0.08624000  0.73867500  0.95136600  1
  O  O82  1  0.90908350  0.27478650  0.79668500  1
  O  O83  1  0.83233800  0.50000000  0.95248100  1
