# generated using pymatgen
data_LiSiBiO4
_symmetry_space_group_name_H-M   'P 1'
_cell_length_a   8.85239900
_cell_length_b   5.37368400
_cell_length_c   8.93433153
_cell_angle_alpha   90.00000000
_cell_angle_beta   107.64591145
_cell_angle_gamma   90.00000000
_symmetry_Int_Tables_number   1
_chemical_formula_structural   LiSiBiO4
_chemical_formula_sum   'Li4 Si4 Bi4 O16'
_cell_volume   405.00874809
_cell_formula_units_Z   4
loop_
 _symmetry_equiv_pos_site_id
 _symmetry_equiv_pos_as_xyz
  1  'x, y, z'
loop_
 _atom_site_type_symbol
 _atom_site_label
 _atom_site_symmetry_multiplicity
 _atom_site_fract_x
 _atom_site_fract_y
 _atom_site_fract_z
 _atom_site_occupancy
  Li  Li0  1  0.86766400  0.66926900  0.21696100  1
  Li  Li1  1  0.35616100  0.17378800  0.37539100  1
  Li  Li2  1  0.86766400  0.33073100  0.71696100  1
  Li  Li3  1  0.35616100  0.82621200  0.87539100  1
  Si  Si4  1  0.24896300  0.31633100  0.99376700  1
  Si  Si5  1  0.74228500  0.20765700  0.34688300  1
  Si  Si6  1  0.24896300  0.68366900  0.49376700  1
  Si  Si7  1  0.74228500  0.79234300  0.84688300  1
  Bi  Bi8  1  0.96379900  0.15781800  0.07203900  1
  Bi  Bi9  1  0.49634300  0.67766700  0.25629300  1
  Bi  Bi10  1  0.96379900  0.84218200  0.57203900  1
  Bi  Bi11  1  0.49634300  0.32233300  0.75629300  1
  O  O12  1  0.88807500  0.75771000  0.01493800  1
  O  O13  1  0.30124500  0.60964500  0.02372000  1
  O  O14  1  0.77322600  0.35316500  0.19933100  1
  O  O15  1  0.74536800  0.89672300  0.32703400  1
  O  O16  1  0.23856100  0.19099600  0.15952000  1
  O  O17  1  0.56957200  0.30505000  0.36444200  1
  O  O18  1  0.88807500  0.24229000  0.51493800  1
  O  O19  1  0.38221300  0.82305700  0.42651700  1
  O  O20  1  0.06532400  0.73204700  0.37696300  1
  O  O21  1  0.30124500  0.39035500  0.52372000  1
  O  O22  1  0.77322600  0.64683500  0.69933100  1
  O  O23  1  0.74536800  0.10327700  0.82703400  1
  O  O24  1  0.23856100  0.80900400  0.65952000  1
  O  O25  1  0.56957200  0.69495000  0.86444200  1
  O  O26  1  0.38221300  0.17694300  0.92651700  1
  O  O27  1  0.06532400  0.26795300  0.87696300  1
