# generated using pymatgen
data_Li2Fe3WO8
_symmetry_space_group_name_H-M   'P 1'
_cell_length_a   6.04650400
_cell_length_b   10.48280600
_cell_length_c   9.78105000
_cell_angle_alpha   90.00000000
_cell_angle_beta   90.00000000
_cell_angle_gamma   90.00000000
_symmetry_Int_Tables_number   1
_chemical_formula_structural   Li2Fe3WO8
_chemical_formula_sum   'Li8 Fe12 W4 O32'
_cell_volume   619.96528540
_cell_formula_units_Z   4
loop_
 _symmetry_equiv_pos_site_id
 _symmetry_equiv_pos_as_xyz
  1  'x, y, z'
loop_
 _atom_site_type_symbol
 _atom_site_label
 _atom_site_symmetry_multiplicity
 _atom_site_fract_x
 _atom_site_fract_y
 _atom_site_fract_z
 _atom_site_occupancy
  Li  Li0  1  0.00000000  0.33179200  0.90912100  1
  Li  Li1  1  0.00000000  0.00262600  0.98706000  1
  Li  Li2  1  0.50000000  0.49737400  0.48706000  1
  Li  Li3  1  0.50000000  0.16820800  0.40912100  1
  Li  Li4  1  0.50000000  0.83179200  0.90912100  1
  Li  Li5  1  0.50000000  0.50262600  0.98706000  1
  Li  Li6  1  0.00000000  0.99737400  0.48706000  1
  Li  Li7  1  0.00000000  0.66820800  0.40912100  1
  Fe  Fe8  1  0.24137500  0.41431200  0.21559500  1
  Fe  Fe9  1  0.75862500  0.41431200  0.21559500  1
  Fe  Fe10  1  0.00000000  0.16822100  0.21175900  1
  Fe  Fe11  1  0.50000000  0.33177900  0.71175900  1
  Fe  Fe12  1  0.74137500  0.08568800  0.71559500  1
  Fe  Fe13  1  0.25862500  0.08568800  0.71559500  1
  Fe  Fe14  1  0.74137500  0.91431200  0.21559500  1
  Fe  Fe15  1  0.25862500  0.91431200  0.21559500  1
  Fe  Fe16  1  0.50000000  0.66822100  0.21175900  1
  Fe  Fe17  1  0.00000000  0.83177900  0.71175900  1
  Fe  Fe18  1  0.24137500  0.58568800  0.71559500  1
  Fe  Fe19  1  0.75862500  0.58568800  0.71559500  1
  W  W20  1  0.00000000  0.33475100  0.48718600  1
  W  W21  1  0.50000000  0.16524900  0.98718600  1
  W  W22  1  0.50000000  0.83475100  0.48718600  1
  W  W23  1  0.00000000  0.66524900  0.98718600  1
  O  O24  1  0.23136300  0.42284900  0.58644400  1
  O  O25  1  0.00000000  0.48181400  0.34495400  1
  O  O26  1  0.00000000  0.33630600  0.11048500  1
  O  O27  1  0.50000000  0.49529800  0.29829700  1
  O  O28  1  0.00000000  0.00470200  0.79829700  1
  O  O29  1  0.76863700  0.42284900  0.58644400  1
  O  O30  1  0.22536300  0.26935700  0.35624800  1
  O  O31  1  0.77463700  0.26935700  0.35624800  1
  O  O32  1  0.50000000  0.32405300  0.08934700  1
  O  O33  1  0.00000000  0.17594700  0.58934700  1
  O  O34  1  0.72536300  0.23064300  0.85624800  1
  O  O35  1  0.27463700  0.23064300  0.85624800  1
  O  O36  1  0.50000000  0.16369400  0.61048500  1
  O  O37  1  0.73136300  0.07715100  0.08644400  1
  O  O38  1  0.50000000  0.01818600  0.84495400  1
  O  O39  1  0.26863700  0.07715100  0.08644400  1
  O  O40  1  0.73136300  0.92284900  0.58644400  1
  O  O41  1  0.50000000  0.98181400  0.34495400  1
  O  O42  1  0.50000000  0.83630600  0.11048500  1
  O  O43  1  0.00000000  0.99529800  0.29829700  1
  O  O44  1  0.50000000  0.50470200  0.79829700  1
  O  O45  1  0.26863700  0.92284900  0.58644400  1
  O  O46  1  0.72536300  0.76935700  0.35624800  1
  O  O47  1  0.27463700  0.76935700  0.35624800  1
  O  O48  1  0.00000000  0.82405300  0.08934700  1
  O  O49  1  0.50000000  0.67594700  0.58934700  1
  O  O50  1  0.22536300  0.73064300  0.85624800  1
  O  O51  1  0.77463700  0.73064300  0.85624800  1
  O  O52  1  0.00000000  0.66369400  0.61048500  1
  O  O53  1  0.23136300  0.57715100  0.08644400  1
  O  O54  1  0.00000000  0.51818600  0.84495400  1
  O  O55  1  0.76863700  0.57715100  0.08644400  1
