# generated using pymatgen
data_Y2W2O9
_symmetry_space_group_name_H-M   'P 1'
_cell_length_a   6.73511300
_cell_length_b   7.12889885
_cell_length_c   7.46522680
_cell_angle_alpha   70.76020076
_cell_angle_beta   84.34965870
_cell_angle_gamma   82.61471596
_symmetry_Int_Tables_number   1
_chemical_formula_structural   Y2W2O9
_chemical_formula_sum   'Y4 W4 O18'
_cell_volume   335.00516313
_cell_formula_units_Z   2
loop_
 _symmetry_equiv_pos_site_id
 _symmetry_equiv_pos_as_xyz
  1  'x, y, z'
loop_
 _atom_site_type_symbol
 _atom_site_label
 _atom_site_symmetry_multiplicity
 _atom_site_fract_x
 _atom_site_fract_y
 _atom_site_fract_z
 _atom_site_occupancy
  Y  Y0  1  0.15324700  0.26038500  0.15353900  1
  Y  Y1  1  0.61546000  0.28691000  0.37498800  1
  Y  Y2  1  0.38454000  0.71309000  0.62501200  1
  Y  Y3  1  0.84675300  0.73961500  0.84646100  1
  W  W4  1  0.26748100  0.73619900  0.05429900  1
  W  W5  1  0.84076200  0.79292600  0.36824600  1
  W  W6  1  0.15923800  0.20707400  0.63175400  1
  W  W7  1  0.73251900  0.26380100  0.94570100  1
  O  O8  1  0.49606100  0.23551600  0.09335100  1
  O  O9  1  0.85214300  0.06982700  0.21722900  1
  O  O10  1  0.81789700  0.42955300  0.09115500  1
  O  O11  1  0.32880900  0.50296800  0.24735700  1
  O  O12  1  0.96123600  0.73885000  0.14034700  1
  O  O13  1  0.26063900  0.93713900  0.15710700  1
  O  O14  1  0.31460700  0.08821100  0.45694000  1
  O  O15  1  0.63313300  0.64177300  0.38146400  1
  O  O16  1  0.95693100  0.30466900  0.46744200  1
  O  O17  1  0.04306900  0.69533100  0.53255800  1
  O  O18  1  0.36686700  0.35822700  0.61853600  1
  O  O19  1  0.68539300  0.91178900  0.54306000  1
  O  O20  1  0.73936100  0.06286100  0.84289300  1
  O  O21  1  0.03876400  0.26115000  0.85965300  1
  O  O22  1  0.67119100  0.49703200  0.75264300  1
  O  O23  1  0.18210300  0.57044700  0.90884500  1
  O  O24  1  0.14785700  0.93017300  0.78277100  1
  O  O25  1  0.50393900  0.76448400  0.90664900  1
