# generated using pymatgen
data_Ba3YF9
_symmetry_space_group_name_H-M   'P 1'
_cell_length_a   6.08865200
_cell_length_b   10.31785500
_cell_length_c   15.81337200
_cell_angle_alpha   90.00000000
_cell_angle_beta   90.00000000
_cell_angle_gamma   90.00000000
_symmetry_Int_Tables_number   1
_chemical_formula_structural   Ba3YF9
_chemical_formula_sum   'Ba12 Y4 F36'
_cell_volume   993.42494350
_cell_formula_units_Z   4
loop_
 _symmetry_equiv_pos_site_id
 _symmetry_equiv_pos_as_xyz
  1  'x, y, z'
loop_
 _atom_site_type_symbol
 _atom_site_label
 _atom_site_symmetry_multiplicity
 _atom_site_fract_x
 _atom_site_fract_y
 _atom_site_fract_z
 _atom_site_occupancy
  Ba  Ba0  1  0.75000000  0.55394500  0.40888700  1
  Ba  Ba1  1  0.75000000  0.66639100  0.97276300  1
  Ba  Ba2  1  0.25000000  0.74155500  0.17154300  1
  Ba  Ba3  1  0.75000000  0.75844500  0.67154300  1
  Ba  Ba4  1  0.25000000  0.83360900  0.47276300  1
  Ba  Ba5  1  0.25000000  0.94605500  0.90888700  1
  Ba  Ba6  1  0.75000000  0.05394500  0.09111300  1
  Ba  Ba7  1  0.75000000  0.16639100  0.52723700  1
  Ba  Ba8  1  0.25000000  0.24155500  0.32845700  1
  Ba  Ba9  1  0.75000000  0.25844500  0.82845700  1
  Ba  Ba10  1  0.25000000  0.33360900  0.02723700  1
  Ba  Ba11  1  0.25000000  0.44605500  0.59111300  1
  Y  Y12  1  0.25000000  0.53823100  0.81700100  1
  Y  Y13  1  0.75000000  0.96176900  0.31700100  1
  Y  Y14  1  0.25000000  0.03823100  0.68299900  1
  Y  Y15  1  0.75000000  0.46176900  0.18299900  1
  F  F16  1  0.00394000  0.54523200  0.09632000  1
  F  F17  1  0.49606000  0.54523200  0.09632000  1
  F  F18  1  0.49186800  0.57128300  0.71971500  1
  F  F19  1  0.00813200  0.57128300  0.71971500  1
  F  F20  1  0.75000000  0.65785500  0.23716500  1
  F  F21  1  0.25000000  0.71070400  0.33663400  1
  F  F22  1  0.00259800  0.64537200  0.53708800  1
  F  F23  1  0.49740200  0.64537200  0.53708800  1
  F  F24  1  0.25000000  0.68897500  0.91234600  1
  F  F25  1  0.75000000  0.81102500  0.41234600  1
  F  F26  1  0.50259800  0.85462800  0.03708800  1
  F  F27  1  0.99740200  0.85462800  0.03708800  1
  F  F28  1  0.75000000  0.78929600  0.83663400  1
  F  F29  1  0.25000000  0.84214500  0.73716500  1
  F  F30  1  0.50813200  0.92871700  0.21971500  1
  F  F31  1  0.99186800  0.92871700  0.21971500  1
  F  F32  1  0.50394000  0.95476800  0.59632000  1
  F  F33  1  0.99606000  0.95476800  0.59632000  1
  F  F34  1  0.00394000  0.04523200  0.40368000  1
  F  F35  1  0.49606000  0.04523200  0.40368000  1
  F  F36  1  0.49186800  0.07128300  0.78028500  1
  F  F37  1  0.00813200  0.07128300  0.78028500  1
  F  F38  1  0.75000000  0.15785500  0.26283500  1
  F  F39  1  0.25000000  0.21070400  0.16336600  1
  F  F40  1  0.00259800  0.14537200  0.96291200  1
  F  F41  1  0.49740200  0.14537200  0.96291200  1
  F  F42  1  0.25000000  0.18897500  0.58765400  1
  F  F43  1  0.75000000  0.31102500  0.08765400  1
  F  F44  1  0.50259800  0.35462800  0.46291200  1
  F  F45  1  0.99740200  0.35462800  0.46291200  1
  F  F46  1  0.75000000  0.28929600  0.66336600  1
  F  F47  1  0.25000000  0.34214500  0.76283500  1
  F  F48  1  0.99186800  0.42871700  0.28028500  1
  F  F49  1  0.50813200  0.42871700  0.28028500  1
  F  F50  1  0.50394000  0.45476800  0.90368000  1
  F  F51  1  0.99606000  0.45476800  0.90368000  1
