# generated using pymatgen
data_TiGeO3
_symmetry_space_group_name_H-M   'P 1'
_cell_length_a   5.04501759
_cell_length_b   5.04501759
_cell_length_c   19.36562938
_cell_angle_alpha   90.00000000
_cell_angle_beta   90.00000000
_cell_angle_gamma   120.00000000
_symmetry_Int_Tables_number   1
_chemical_formula_structural   TiGeO3
_chemical_formula_sum   'Ti6 Ge6 O18'
_cell_volume   426.86212107
_cell_formula_units_Z   6
loop_
 _symmetry_equiv_pos_site_id
 _symmetry_equiv_pos_as_xyz
  1  'x, y, z'
loop_
 _atom_site_type_symbol
 _atom_site_label
 _atom_site_symmetry_multiplicity
 _atom_site_fract_x
 _atom_site_fract_y
 _atom_site_fract_z
 _atom_site_occupancy
  Ti  Ti0  1  0.66666667  0.33333333  0.17080333  1
  Ti  Ti1  1  0.00000000  0.00000000  0.16253000  1
  Ti  Ti2  1  0.33333333  0.66666667  0.50413667  1
  Ti  Ti3  1  0.66666667  0.33333333  0.49586333  1
  Ti  Ti4  1  0.00000000  0.00000000  0.83747000  1
  Ti  Ti5  1  0.33333333  0.66666667  0.82919667  1
  Ge  Ge6  1  0.33333333  0.66666667  0.27308267  1
  Ge  Ge7  1  0.33333333  0.66666667  0.06025067  1
  Ge  Ge8  1  0.00000000  0.00000000  0.60641600  1
  Ge  Ge9  1  0.00000000  0.00000000  0.39358400  1
  Ge  Ge10  1  0.66666667  0.33333333  0.93974933  1
  Ge  Ge11  1  0.66666667  0.33333333  0.72691733  1
  O  O12  1  0.33371767  0.00965933  0.22236833  1
  O  O13  1  0.99034067  0.32405833  0.22236833  1
  O  O14  1  0.67594167  0.66628233  0.22236833  1
  O  O15  1  0.99072500  0.66705100  0.11096500  1
  O  O16  1  0.67632600  0.00927500  0.11096500  1
  O  O17  1  0.33294900  0.32367400  0.11096500  1
  O  O18  1  0.00038433  0.34299267  0.55570167  1
  O  O19  1  0.65700733  0.65739167  0.55570167  1
  O  O20  1  0.34260833  0.99961567  0.55570167  1
  O  O21  1  0.65739167  0.00038433  0.44429833  1
  O  O22  1  0.34299267  0.34260833  0.44429833  1
  O  O23  1  0.99961567  0.65700733  0.44429833  1
  O  O24  1  0.66705100  0.67632600  0.88903500  1
  O  O25  1  0.32367400  0.99072500  0.88903500  1
  O  O26  1  0.00927500  0.33294900  0.88903500  1
  O  O27  1  0.32405833  0.33371767  0.77763167  1
  O  O28  1  0.00965933  0.67594167  0.77763167  1
  O  O29  1  0.66628233  0.99034067  0.77763167  1
