# generated using pymatgen
data_Li3VP2H2O9
_symmetry_space_group_name_H-M   'P 1'
_cell_length_a   14.47039000
_cell_length_b   7.22141000
_cell_length_c   6.87361564
_cell_angle_alpha   90.00000000
_cell_angle_beta   94.48047084
_cell_angle_gamma   90.00000000
_symmetry_Int_Tables_number   1
_chemical_formula_structural   Li3VP2H2O9
_chemical_formula_sum   'Li12 V4 P8 H8 O36'
_cell_volume   716.07457667
_cell_formula_units_Z   4
loop_
 _symmetry_equiv_pos_site_id
 _symmetry_equiv_pos_as_xyz
  1  'x, y, z'
loop_
 _atom_site_type_symbol
 _atom_site_label
 _atom_site_symmetry_multiplicity
 _atom_site_fract_x
 _atom_site_fract_y
 _atom_site_fract_z
 _atom_site_occupancy
  Li  Li0  1  0.87748900  0.50000000  0.30162500  1
  Li  Li1  1  0.75000000  0.75000000  0.50000000  1
  Li  Li2  1  0.75000000  0.25000000  0.50000000  1
  Li  Li3  1  0.62251100  0.00000000  0.69837500  1
  Li  Li4  1  0.00000000  0.24868200  0.00000000  1
  Li  Li5  1  0.00000000  0.75131800  0.00000000  1
  Li  Li6  1  0.37748900  0.00000000  0.30162500  1
  Li  Li7  1  0.25000000  0.25000000  0.50000000  1
  Li  Li8  1  0.25000000  0.75000000  0.50000000  1
  Li  Li9  1  0.12251100  0.50000000  0.69837500  1
  Li  Li10  1  0.50000000  0.74868200  0.00000000  1
  Li  Li11  1  0.50000000  0.25131800  0.00000000  1
  V  V12  1  0.75000000  0.25000000  0.00000000  1
  V  V13  1  0.75000000  0.75000000  0.00000000  1
  V  V14  1  0.25000000  0.75000000  0.00000000  1
  V  V15  1  0.25000000  0.25000000  0.00000000  1
  P  P16  1  0.88091000  0.00000000  0.30937300  1
  P  P17  1  0.89315500  0.50000000  0.76338200  1
  P  P18  1  0.60684500  0.00000000  0.23661800  1
  P  P19  1  0.61909000  0.50000000  0.69062700  1
  P  P20  1  0.38091000  0.50000000  0.30937300  1
  P  P21  1  0.39315500  0.00000000  0.76338200  1
  P  P22  1  0.10684500  0.50000000  0.23661800  1
  P  P23  1  0.11909000  0.00000000  0.69062700  1
  H  H24  1  0.94597300  0.00000000  0.63222700  1
  H  H25  1  0.80957700  0.00000000  0.78374800  1
  H  H26  1  0.69042300  0.50000000  0.21625200  1
  H  H27  1  0.55402700  0.50000000  0.36777300  1
  H  H28  1  0.44597300  0.50000000  0.63222700  1
  H  H29  1  0.30957700  0.50000000  0.78374800  1
  H  H30  1  0.19042300  0.00000000  0.21625200  1
  H  H31  1  0.05402700  0.00000000  0.36777300  1
  O  O32  1  0.97635900  0.00000000  0.22617500  1
  O  O33  1  0.99866000  0.50000000  0.76348600  1
  O  O34  1  0.88414300  0.00000000  0.54047200  1
  O  O35  1  0.82595400  0.17864600  0.25256100  1
  O  O36  1  0.82595400  0.82135400  0.25256100  1
  O  O37  1  0.83662700  0.50000000  0.56256500  1
  O  O38  1  0.86756350  0.32189850  0.88126800  1
  O  O39  1  0.86756350  0.67810150  0.88126800  1
  O  O40  1  0.74255800  0.50000000  0.13394000  1
  O  O41  1  0.75744200  0.00000000  0.86606000  1
  O  O42  1  0.63243650  0.82189850  0.11873200  1
  O  O43  1  0.63243650  0.17810150  0.11873200  1
  O  O44  1  0.66337300  0.00000000  0.43743500  1
  O  O45  1  0.67404600  0.32135400  0.74743900  1
  O  O46  1  0.67404600  0.67864600  0.74743900  1
  O  O47  1  0.61585700  0.50000000  0.45952800  1
  O  O48  1  0.50134000  0.00000000  0.23651400  1
  O  O49  1  0.52364100  0.50000000  0.77382500  1
  O  O50  1  0.47635900  0.50000000  0.22617500  1
  O  O51  1  0.49866000  0.00000000  0.76348600  1
  O  O52  1  0.38414300  0.50000000  0.54047200  1
  O  O53  1  0.32595400  0.67864600  0.25256100  1
  O  O54  1  0.32595400  0.32135400  0.25256100  1
  O  O55  1  0.33662700  0.00000000  0.56256500  1
  O  O56  1  0.36756350  0.82189850  0.88126800  1
  O  O57  1  0.36756350  0.17810150  0.88126800  1
  O  O58  1  0.24255800  0.00000000  0.13394000  1
  O  O59  1  0.25744200  0.50000000  0.86606000  1
  O  O60  1  0.13243650  0.32189850  0.11873200  1
  O  O61  1  0.13243650  0.67810150  0.11873200  1
  O  O62  1  0.16337300  0.50000000  0.43743500  1
  O  O63  1  0.17404600  0.82135400  0.74743900  1
  O  O64  1  0.17404600  0.17864600  0.74743900  1
  O  O65  1  0.11585700  0.00000000  0.45952800  1
  O  O66  1  0.00134000  0.50000000  0.23651400  1
  O  O67  1  0.02364100  0.00000000  0.77382500  1
