# generated using pymatgen
data_Bi3O2F5
_symmetry_space_group_name_H-M   'P 1'
_cell_length_a   8.42330800
_cell_length_b   5.95869600
_cell_length_c   13.51584234
_cell_angle_alpha   90.00000000
_cell_angle_beta   107.95311985
_cell_angle_gamma   90.00000000
_symmetry_Int_Tables_number   1
_chemical_formula_structural   Bi3O2F5
_chemical_formula_sum   'Bi12 O8 F20'
_cell_volume   645.35495830
_cell_formula_units_Z   4
loop_
 _symmetry_equiv_pos_site_id
 _symmetry_equiv_pos_as_xyz
  1  'x, y, z'
loop_
 _atom_site_type_symbol
 _atom_site_label
 _atom_site_symmetry_multiplicity
 _atom_site_fract_x
 _atom_site_fract_y
 _atom_site_fract_z
 _atom_site_occupancy
  Bi  Bi0  1  0.25000000  0.57400100  0.00000000  1
  Bi  Bi1  1  0.75000000  0.42599900  0.00000000  1
  Bi  Bi2  1  0.56783500  0.97482800  0.14330600  1
  Bi  Bi3  1  0.41681300  0.54207500  0.29424000  1
  Bi  Bi4  1  0.06783500  0.02517200  0.14330600  1
  Bi  Bi5  1  0.91681300  0.45792500  0.29424000  1
  Bi  Bi6  1  0.75000000  0.99907700  0.50000000  1
  Bi  Bi7  1  0.25000000  0.00092300  0.50000000  1
  Bi  Bi8  1  0.08318700  0.54207500  0.70576000  1
  Bi  Bi9  1  0.93216500  0.97482800  0.85669400  1
  Bi  Bi10  1  0.58318700  0.45792500  0.70576000  1
  Bi  Bi11  1  0.43216500  0.02517200  0.85669400  1
  O  O12  1  0.03291300  0.78442300  0.00276400  1
  O  O13  1  0.53291300  0.21557700  0.00276400  1
  O  O14  1  0.33657900  0.75625000  0.15803200  1
  O  O15  1  0.83657900  0.24375000  0.15803200  1
  O  O16  1  0.16342100  0.75625000  0.84196800  1
  O  O17  1  0.66342100  0.24375000  0.84196800  1
  O  O18  1  0.46708700  0.78442300  0.99723600  1
  O  O19  1  0.96708700  0.21557700  0.99723600  1
  F  F20  1  0.37468500  0.22926300  0.16328700  1
  F  F21  1  0.87468500  0.77073700  0.16328700  1
  F  F22  1  0.64550700  0.57192700  0.21885500  1
  F  F23  1  0.56171300  0.87497100  0.34707700  1
  F  F24  1  0.14550700  0.42807300  0.21885500  1
  F  F25  1  0.74786400  0.27142500  0.36733800  1
  F  F26  1  0.06171300  0.12502900  0.34707700  1
  F  F27  1  0.24786400  0.72857500  0.36733800  1
  F  F28  1  0.91560300  0.76536700  0.45068700  1
  F  F29  1  0.58439700  0.76536700  0.54931300  1
  F  F30  1  0.41560300  0.23463300  0.45068700  1
  F  F31  1  0.08439700  0.23463300  0.54931300  1
  F  F32  1  0.75213600  0.27142500  0.63266200  1
  F  F33  1  0.93828700  0.87497100  0.65292300  1
  F  F34  1  0.25213600  0.72857500  0.63266200  1
  F  F35  1  0.85449300  0.57192700  0.78114500  1
  F  F36  1  0.43828700  0.12502900  0.65292300  1
  F  F37  1  0.35449300  0.42807300  0.78114500  1
  F  F38  1  0.12531500  0.22926300  0.83671300  1
  F  F39  1  0.62531500  0.77073700  0.83671300  1
