# generated using pymatgen
data_Li5(FeO2)4
_symmetry_space_group_name_H-M   'P 1'
_cell_length_a   6.03532800
_cell_length_b   10.39203600
_cell_length_c   9.91845139
_cell_angle_alpha   90.00000000
_cell_angle_beta   90.32685822
_cell_angle_gamma   90.00000000
_symmetry_Int_Tables_number   1
_chemical_formula_structural   Li5(FeO2)4
_chemical_formula_sum   'Li20 Fe16 O32'
_cell_volume   622.06866073
_cell_formula_units_Z   4
loop_
 _symmetry_equiv_pos_site_id
 _symmetry_equiv_pos_as_xyz
  1  'x, y, z'
loop_
 _atom_site_type_symbol
 _atom_site_label
 _atom_site_symmetry_multiplicity
 _atom_site_fract_x
 _atom_site_fract_y
 _atom_site_fract_z
 _atom_site_occupancy
  Li  Li0  1  0.49316850  0.69648950  0.95665900  1
  Li  Li1  1  0.70360100  0.90133900  0.96031800  1
  Li  Li2  1  0.50351200  0.83383000  0.74007000  1
  Li  Li3  1  0.29221650  0.90248050  0.95703400  1
  Li  Li4  1  0.70360100  0.09866100  0.46031800  1
  Li  Li5  1  0.29221650  0.09751950  0.45703400  1
  Li  Li6  1  0.00189650  0.99859350  0.52601200  1
  Li  Li7  1  0.50351200  0.16617000  0.24007000  1
  Li  Li8  1  0.00189650  0.00140650  0.02601200  1
  Li  Li9  1  0.49316850  0.30351050  0.45665900  1
  Li  Li10  1  0.99316850  0.19648950  0.95665900  1
  Li  Li11  1  0.20360100  0.40133900  0.96031800  1
  Li  Li12  1  0.00351200  0.33383000  0.74007000  1
  Li  Li13  1  0.79221650  0.40248050  0.95703400  1
  Li  Li14  1  0.20360100  0.59866100  0.46031800  1
  Li  Li15  1  0.79221650  0.59751950  0.45703400  1
  Li  Li16  1  0.50189650  0.49859350  0.52601200  1
  Li  Li17  1  0.00351200  0.66617000  0.24007000  1
  Li  Li18  1  0.50189650  0.50140650  0.02601200  1
  Li  Li19  1  0.99316850  0.80351050  0.45665900  1
  Fe  Fe20  1  0.50608300  0.83061800  0.48497400  1
  Fe  Fe21  1  0.50608300  0.16938200  0.98497400  1
  Fe  Fe22  1  0.50209750  0.66749250  0.22682500  1
  Fe  Fe23  1  0.74857500  0.91521800  0.22595300  1
  Fe  Fe24  1  0.25809800  0.91385800  0.22799000  1
  Fe  Fe25  1  0.74857500  0.08478200  0.72595300  1
  Fe  Fe26  1  0.25809800  0.08614200  0.72799000  1
  Fe  Fe27  1  0.50209750  0.33250750  0.72682500  1
  Fe  Fe28  1  0.00608300  0.33061800  0.48497400  1
  Fe  Fe29  1  0.00608300  0.66938200  0.98497400  1
  Fe  Fe30  1  0.00209750  0.16749250  0.22682500  1
  Fe  Fe31  1  0.24857500  0.41521800  0.22595300  1
  Fe  Fe32  1  0.75809800  0.41385800  0.22799000  1
  Fe  Fe33  1  0.24857500  0.58478200  0.72595300  1
  Fe  Fe34  1  0.75809800  0.58614200  0.72799000  1
  Fe  Fe35  1  0.00209750  0.83250750  0.72682500  1
  O  O36  1  0.50808400  0.66419900  0.60254000  1
  O  O37  1  0.73317650  0.75036450  0.34954200  1
  O  O38  1  0.49012000  0.82797000  0.10709400  1
  O  O39  1  0.75800000  0.91019700  0.59822000  1
  O  O40  1  0.26508800  0.75168200  0.35068200  1
  O  O41  1  0.49089900  0.98824400  0.35655700  1
  O  O42  1  0.75800000  0.08980300  0.09822000  1
  O  O43  1  0.25070100  0.91515800  0.60678100  1
  O  O44  1  0.49089900  0.01175600  0.85655700  1
  O  O45  1  0.25070100  0.08484200  0.10678100  1
  O  O46  1  0.49012000  0.17203000  0.60709400  1
  O  O47  1  0.01659000  0.99499300  0.83710600  1
  O  O48  1  0.73317650  0.24963550  0.84954200  1
  O  O49  1  0.26508800  0.24831800  0.85068200  1
  O  O50  1  0.50808400  0.33580100  0.10254000  1
  O  O51  1  0.01659000  0.00500700  0.33710600  1
  O  O52  1  0.00808400  0.16419900  0.60254000  1
  O  O53  1  0.23317650  0.25036450  0.34954200  1
  O  O54  1  0.99012000  0.32797000  0.10709400  1
  O  O55  1  0.25800000  0.41019700  0.59822000  1
  O  O56  1  0.76508800  0.25168200  0.35068200  1
  O  O57  1  0.99089900  0.48824400  0.35655700  1
  O  O58  1  0.25800000  0.58980300  0.09822000  1
  O  O59  1  0.75070100  0.41515800  0.60678100  1
  O  O60  1  0.99089900  0.51175600  0.85655700  1
  O  O61  1  0.75070100  0.58484200  0.10678100  1
  O  O62  1  0.99012000  0.67203000  0.60709400  1
  O  O63  1  0.51659000  0.49499300  0.83710600  1
  O  O64  1  0.23317650  0.74963550  0.84954200  1
  O  O65  1  0.76508800  0.74831800  0.85068200  1
  O  O66  1  0.00808400  0.83580100  0.10254000  1
  O  O67  1  0.51659000  0.50500700  0.33710600  1
