# generated using pymatgen
data_KP(HO2)2
_symmetry_space_group_name_H-M   'P 1'
_cell_length_a   12.49674400
_cell_length_b   9.11071000
_cell_length_c   14.51333799
_cell_angle_alpha   90.00000000
_cell_angle_beta   92.02895848
_cell_angle_gamma   90.00000000
_symmetry_Int_Tables_number   1
_chemical_formula_structural   KP(HO2)2
_chemical_formula_sum   'K16 P16 H32 O64'
_cell_volume   1651.36868066
_cell_formula_units_Z   16
loop_
 _symmetry_equiv_pos_site_id
 _symmetry_equiv_pos_as_xyz
  1  'x, y, z'
loop_
 _atom_site_type_symbol
 _atom_site_label
 _atom_site_symmetry_multiplicity
 _atom_site_fract_x
 _atom_site_fract_y
 _atom_site_fract_z
 _atom_site_occupancy
  K  K0  1  0.25108100  0.88968800  0.71059600  1
  K  K1  1  0.25108100  0.11031200  0.21059600  1
  K  K2  1  0.47941050  0.12835250  0.96087400  1
  K  K3  1  0.48052350  0.62114150  0.95357000  1
  K  K4  1  0.47941050  0.87164750  0.46087400  1
  K  K5  1  0.48052350  0.37885850  0.45357000  1
  K  K6  1  0.74679850  0.89204150  0.72714900  1
  K  K7  1  0.74679850  0.10795850  0.22714900  1
  K  K8  1  0.75108100  0.38968800  0.71059600  1
  K  K9  1  0.75108100  0.61031200  0.21059600  1
  K  K10  1  0.97941050  0.62835250  0.96087400  1
  K  K11  1  0.98052350  0.12114150  0.95357000  1
  K  K12  1  0.97941050  0.37164750  0.46087400  1
  K  K13  1  0.98052350  0.87885850  0.45357000  1
  K  K14  1  0.24679850  0.39204150  0.72714900  1
  K  K15  1  0.24679850  0.60795850  0.22714900  1
  P  P16  1  0.22447350  0.90089750  0.96086600  1
  P  P17  1  0.22447350  0.09910250  0.46086600  1
  P  P18  1  0.49463250  0.14337750  0.71213600  1
  P  P19  1  0.49663700  0.65671700  0.71471000  1
  P  P20  1  0.49463250  0.85662250  0.21213600  1
  P  P21  1  0.49663700  0.34328300  0.21471000  1
  P  P22  1  0.73397700  0.89050700  0.96418600  1
  P  P23  1  0.73397700  0.10949300  0.46418600  1
  P  P24  1  0.72447350  0.40089750  0.96086600  1
  P  P25  1  0.72447350  0.59910250  0.46086600  1
  P  P26  1  0.99463250  0.64337750  0.71213600  1
  P  P27  1  0.99663700  0.15671700  0.71471000  1
  P  P28  1  0.99463250  0.35662250  0.21213600  1
  P  P29  1  0.99663700  0.84328300  0.21471000  1
  P  P30  1  0.23397700  0.39050700  0.96418600  1
  P  P31  1  0.23397700  0.60949300  0.46418600  1
  H  H32  1  0.23895350  0.12644050  0.89603500  1
  H  H33  1  0.23895350  0.87355950  0.39603500  1
  H  H34  1  0.36614950  0.14562250  0.59789900  1
  H  H35  1  0.36614950  0.85437750  0.09789900  1
  H  H36  1  0.50227900  0.38131300  0.76589400  1
  H  H37  1  0.49459900  0.88355400  0.77961500  1
  H  H38  1  0.50227900  0.61868700  0.26589400  1
  H  H39  1  0.49459900  0.11644600  0.27961500  1
  H  H40  1  0.60949300  0.62876000  0.59688200  1
  H  H41  1  0.61832800  0.13877500  0.57952100  1
  H  H42  1  0.60949300  0.37124000  0.09688200  1
  H  H43  1  0.61832800  0.86122500  0.07952100  1
  H  H44  1  0.73207000  0.16642000  0.90871100  1
  H  H45  1  0.73207000  0.83358000  0.40871100  1
  H  H46  1  0.85765800  0.11674100  0.58168800  1
  H  H47  1  0.85765800  0.88325900  0.08168800  1
  H  H48  1  0.73895350  0.62644050  0.89603500  1
  H  H49  1  0.73895350  0.37355950  0.39603500  1
  H  H50  1  0.86614950  0.64562250  0.59789900  1
  H  H51  1  0.86614950  0.35437750  0.09789900  1
  H  H52  1  0.00227900  0.88131300  0.76589400  1
  H  H53  1  0.99459900  0.38355400  0.77961500  1
  H  H54  1  0.00227900  0.11868700  0.26589400  1
  H  H55  1  0.99459900  0.61644600  0.27961500  1
  H  H56  1  0.10949300  0.12876000  0.59688200  1
  H  H57  1  0.11832800  0.63877500  0.57952100  1
  H  H58  1  0.10949300  0.87124000  0.09688200  1
  H  H59  1  0.11832800  0.36122500  0.07952100  1
  H  H60  1  0.23207000  0.66642000  0.90871100  1
  H  H61  1  0.23207000  0.33358000  0.40871100  1
  H  H62  1  0.35765800  0.61674100  0.58168800  1
  H  H63  1  0.35765800  0.38325900  0.08168800  1
  O  O64  1  0.20184800  0.02519200  0.88609900  1
  O  O65  1  0.20184800  0.97480800  0.38609900  1
  O  O66  1  0.27044700  0.76926200  0.90261300  1
  O  O67  1  0.27044700  0.23073800  0.40261300  1
  O  O68  1  0.28971450  0.27665250  0.90530300  1
  O  O69  1  0.28971450  0.72334750  0.40530300  1
  O  O70  1  0.30924600  0.04667200  0.53216000  1
  O  O71  1  0.30924600  0.95332800  0.03216000  1
  O  O72  1  0.40701750  0.21705150  0.64366200  1
  O  O73  1  0.41851400  0.72040300  0.64141200  1
  O  O74  1  0.40701750  0.78294850  0.14366200  1
  O  O75  1  0.44323100  0.03392900  0.77674800  1
  O  O76  1  0.41851400  0.27959700  0.14141200  1
  O  O77  1  0.44323100  0.96607100  0.27674800  1
  O  O78  1  0.52949300  0.78030200  0.78790700  1
  O  O79  1  0.52949300  0.21969800  0.28790700  1
  O  O80  1  0.54259650  0.27925850  0.76714700  1
  O  O81  1  0.54259650  0.72074150  0.26714700  1
  O  O82  1  0.58397900  0.07168800  0.65787800  1
  O  O83  1  0.58397900  0.92831200  0.15787800  1
  O  O84  1  0.60592650  0.61151450  0.66982300  1
  O  O85  1  0.61743150  0.35624250  0.00128300  1
  O  O86  1  0.60592650  0.38848550  0.16982300  1
  O  O87  1  0.61743150  0.64375750  0.50128300  1
  O  O88  1  0.64428400  0.19337100  0.51814200  1
  O  O89  1  0.64428400  0.80662900  0.01814200  1
  O  O90  1  0.68696050  0.02080350  0.91049100  1
  O  O91  1  0.68696050  0.97919650  0.41049100  1
  O  O92  1  0.81551400  0.04069200  0.54010900  1
  O  O93  1  0.81551400  0.95930800  0.04010900  1
  O  O94  1  0.95354550  0.02596950  0.76811300  1
  O  O95  1  0.95354550  0.97403050  0.26811300  1
  O  O96  1  0.70184800  0.52519200  0.88609900  1
  O  O97  1  0.70184800  0.47480800  0.38609900  1
  O  O98  1  0.77044700  0.26926200  0.90261300  1
  O  O99  1  0.77044700  0.73073800  0.40261300  1
  O  O100  1  0.78971450  0.77665250  0.90530300  1
  O  O101  1  0.78971450  0.22334750  0.40530300  1
  O  O102  1  0.80924600  0.54667200  0.53216000  1
  O  O103  1  0.80924600  0.45332800  0.03216000  1
  O  O104  1  0.90701750  0.71705150  0.64366200  1
  O  O105  1  0.91851400  0.22040300  0.64141200  1
  O  O106  1  0.90701750  0.28294850  0.14366200  1
  O  O107  1  0.94323100  0.53392900  0.77674800  1
  O  O108  1  0.91851400  0.77959700  0.14141200  1
  O  O109  1  0.94323100  0.46607100  0.27674800  1
  O  O110  1  0.02949300  0.28030200  0.78790700  1
  O  O111  1  0.02949300  0.71969800  0.28790700  1
  O  O112  1  0.04259650  0.77925850  0.76714700  1
  O  O113  1  0.04259650  0.22074150  0.26714700  1
  O  O114  1  0.08397900  0.57168800  0.65787800  1
  O  O115  1  0.08397900  0.42831200  0.15787800  1
  O  O116  1  0.10592650  0.11151450  0.66982300  1
  O  O117  1  0.11743150  0.85624250  0.00128300  1
  O  O118  1  0.10592650  0.88848550  0.16982300  1
  O  O119  1  0.11743150  0.14375750  0.50128300  1
  O  O120  1  0.14428400  0.69337100  0.51814200  1
  O  O121  1  0.14428400  0.30662900  0.01814200  1
  O  O122  1  0.18696050  0.52080350  0.91049100  1
  O  O123  1  0.18696050  0.47919650  0.41049100  1
  O  O124  1  0.31551400  0.54069200  0.54010900  1
  O  O125  1  0.31551400  0.45930800  0.04010900  1
  O  O126  1  0.45354550  0.52596950  0.76811300  1
  O  O127  1  0.45354550  0.47403050  0.26811300  1
