# generated using pymatgen
data_UAs2H6O11
_symmetry_space_group_name_H-M   'P 1'
_cell_length_a   13.36088000
_cell_length_b   9.11146200
_cell_length_c   9.10408189
_cell_angle_alpha   90.00000000
_cell_angle_beta   124.23398113
_cell_angle_gamma   90.00000000
_symmetry_Int_Tables_number   1
_chemical_formula_structural   UAs2H6O11
_chemical_formula_sum   'U4 As8 H24 O44'
_cell_volume   916.28789678
_cell_formula_units_Z   4
loop_
 _symmetry_equiv_pos_site_id
 _symmetry_equiv_pos_as_xyz
  1  'x, y, z'
loop_
 _atom_site_type_symbol
 _atom_site_label
 _atom_site_symmetry_multiplicity
 _atom_site_fract_x
 _atom_site_fract_y
 _atom_site_fract_z
 _atom_site_occupancy
  U  U0  1  0.00000000  0.34208700  0.25000000  1
  U  U1  1  0.50000000  0.15791300  0.75000000  1
  U  U2  1  0.50000000  0.84208700  0.25000000  1
  U  U3  1  0.00000000  0.65791300  0.75000000  1
  As  As4  1  0.31141700  0.50064000  0.55750200  1
  As  As5  1  0.31141700  0.49936000  0.05750200  1
  As  As6  1  0.18858300  0.00064000  0.94249800  1
  As  As7  1  0.18858300  0.99936000  0.44249800  1
  As  As8  1  0.81141700  0.00064000  0.55750200  1
  As  As9  1  0.81141700  0.99936000  0.05750200  1
  As  As10  1  0.68858300  0.50064000  0.94249800  1
  As  As11  1  0.68858300  0.49936000  0.44249800  1
  H  H12  1  0.01332800  0.67129600  0.17473100  1
  H  H13  1  0.39604150  0.39467650  0.91789300  1
  H  H14  1  0.98667200  0.67129600  0.32526900  1
  H  H15  1  0.23937250  0.59953850  0.71802500  1
  H  H16  1  0.26062750  0.09953850  0.78197500  1
  H  H17  1  0.10395850  0.89467650  0.58210700  1
  H  H18  1  0.39604150  0.60532350  0.41789300  1
  H  H19  1  0.23937250  0.40046150  0.21802500  1
  H  H20  1  0.26062750  0.90046150  0.28197500  1
  H  H21  1  0.51332800  0.82870400  0.67473100  1
  H  H22  1  0.10395850  0.10532350  0.08210700  1
  H  H23  1  0.48667200  0.82870400  0.82526900  1
  H  H24  1  0.51332800  0.17129600  0.17473100  1
  H  H25  1  0.89604150  0.89467650  0.91789300  1
  H  H26  1  0.48667200  0.17129600  0.32526900  1
  H  H27  1  0.73937250  0.09953850  0.71802500  1
  H  H28  1  0.76062750  0.59953850  0.78197500  1
  H  H29  1  0.60395850  0.39467650  0.58210700  1
  H  H30  1  0.89604150  0.10532350  0.41789300  1
  H  H31  1  0.73937250  0.90046150  0.21802500  1
  H  H32  1  0.76062750  0.40046150  0.28197500  1
  H  H33  1  0.01332800  0.32870400  0.67473100  1
  H  H34  1  0.60395850  0.60532350  0.08210700  1
  H  H35  1  0.98667200  0.32870400  0.82526900  1
  O  O36  1  0.12232900  0.86341300  0.78748900  1
  O  O37  1  0.19999050  0.43756050  0.35114600  1
  O  O38  1  0.54492700  0.15638300  0.97827300  1
  O  O39  1  0.87767100  0.86341300  0.71251100  1
  O  O40  1  0.26321050  0.63738550  0.63683800  1
  O  O41  1  0.92160950  0.91122050  0.04330300  1
  O  O42  1  0.00000000  0.60970200  0.25000000  1
  O  O43  1  0.07839050  0.91122050  0.45669700  1
  O  O44  1  0.54492700  0.84361700  0.47827300  1
  O  O45  1  0.23678950  0.13738550  0.86316200  1
  O  O46  1  0.69999050  0.06243950  0.85114600  1
  O  O47  1  0.80000950  0.43756050  0.14885400  1
  O  O48  1  0.26321050  0.36261450  0.13683800  1
  O  O49  1  0.95507300  0.65638300  0.52172700  1
  O  O50  1  0.42160950  0.58877950  0.54330300  1
  O  O51  1  0.50000000  0.89029800  0.75000000  1
  O  O52  1  0.57839050  0.58877950  0.95669700  1
  O  O53  1  0.23678950  0.86261450  0.36316200  1
  O  O54  1  0.62232900  0.63658700  0.28748900  1
  O  O55  1  0.95507300  0.34361700  0.02172700  1
  O  O56  1  0.30000950  0.06243950  0.64885400  1
  O  O57  1  0.37767100  0.63658700  0.21251100  1
  O  O58  1  0.62232900  0.36341300  0.78748900  1
  O  O59  1  0.69999050  0.93756050  0.35114600  1
  O  O60  1  0.04492700  0.65638300  0.97827300  1
  O  O61  1  0.37767100  0.36341300  0.71251100  1
  O  O62  1  0.76321050  0.13738550  0.63683800  1
  O  O63  1  0.42160950  0.41122050  0.04330300  1
  O  O64  1  0.50000000  0.10970200  0.25000000  1
  O  O65  1  0.57839050  0.41122050  0.45669700  1
  O  O66  1  0.04492700  0.34361700  0.47827300  1
  O  O67  1  0.73678950  0.63738550  0.86316200  1
  O  O68  1  0.19999050  0.56243950  0.85114600  1
  O  O69  1  0.30000950  0.93756050  0.14885400  1
  O  O70  1  0.76321050  0.86261450  0.13683800  1
  O  O71  1  0.45507300  0.15638300  0.52172700  1
  O  O72  1  0.92160950  0.08877950  0.54330300  1
  O  O73  1  0.00000000  0.39029800  0.75000000  1
  O  O74  1  0.07839050  0.08877950  0.95669700  1
  O  O75  1  0.73678950  0.36261450  0.36316200  1
  O  O76  1  0.12232900  0.13658700  0.28748900  1
  O  O77  1  0.45507300  0.84361700  0.02172700  1
  O  O78  1  0.80000950  0.56243950  0.64885400  1
  O  O79  1  0.87767100  0.13658700  0.21251100  1
