# generated using pymatgen
data_Na3MnPCO7
_symmetry_space_group_name_H-M   'P 1'
_cell_length_a   5.32203306
_cell_length_b   6.74549102
_cell_length_c   9.09178292
_cell_angle_alpha   90.00000000
_cell_angle_beta   90.00155713
_cell_angle_gamma   90.00000000
_symmetry_Int_Tables_number   1
_chemical_formula_structural   Na3MnPCO7
_chemical_formula_sum   'Na6 Mn2 P2 C2 O14'
_cell_volume   326.39251765
_cell_formula_units_Z   2
loop_
 _symmetry_equiv_pos_site_id
 _symmetry_equiv_pos_as_xyz
  1  'x, y, z'
loop_
 _atom_site_type_symbol
 _atom_site_label
 _atom_site_symmetry_multiplicity
 _atom_site_fract_x
 _atom_site_fract_y
 _atom_site_fract_z
 _atom_site_occupancy
  Na  Na0  1  0.50208500  0.48420750  0.49803625  1
  Na  Na1  1  0.49791500  0.98420750  0.50196375  1
  Na  Na2  1  0.94184500  0.22459650  0.33366125  1
  Na  Na3  1  0.05815500  0.72459650  0.66633875  1
  Na  Na4  1  0.99484300  0.49002200  0.00481475  1
  Na  Na5  1  0.00515700  0.99002200  0.99518525  1
  Mn  Mn6  1  0.52111650  0.73832250  0.20581925  1
  Mn  Mn7  1  0.47888350  0.23832250  0.79418075  1
  P  P8  1  0.48368400  0.23788550  0.15706225  1
  P  P9  1  0.51631600  0.73788550  0.84293775  1
  C  C10  1  0.99852950  0.73717200  0.35023375  1
  C  C11  1  0.00147050  0.23717200  0.64976625  1
  O  O12  1  0.82180900  0.73709150  0.44930125  1
  O  O13  1  0.17819100  0.23709150  0.55069875  1
  O  O14  1  0.23459600  0.73345950  0.39251625  1
  O  O15  1  0.76540400  0.23345950  0.60748375  1
  O  O16  1  0.56581900  0.05360000  0.25019775  1
  O  O17  1  0.43418100  0.55360000  0.74980225  1
  O  O18  1  0.57456650  0.42256400  0.24697475  1
  O  O19  1  0.42543350  0.92256400  0.75302525  1
  O  O20  1  0.94316350  0.74155450  0.21189825  1
  O  O21  1  0.05683650  0.24155450  0.78810175  1
  O  O22  1  0.19727800  0.23977350  0.13350925  1
  O  O23  1  0.80272200  0.73977350  0.86649075  1
  O  O24  1  0.62629600  0.23408400  0.00694775  1
  O  O25  1  0.37370400  0.73408400  0.99305225  1
