# generated using pymatgen
data_Hf2N2O
_symmetry_space_group_name_H-M   'P 1'
_cell_length_a   8.70763700
_cell_length_b   8.73026532
_cell_length_c   8.73707889
_cell_angle_alpha   109.57657817
_cell_angle_beta   109.32722330
_cell_angle_gamma   109.35068391
_symmetry_Int_Tables_number   1
_chemical_formula_structural   Hf2N2O
_chemical_formula_sum   'Hf16 N16 O8'
_cell_volume   512.29541414
_cell_formula_units_Z   8
loop_
 _symmetry_equiv_pos_site_id
 _symmetry_equiv_pos_as_xyz
  1  'x, y, z'
loop_
 _atom_site_type_symbol
 _atom_site_label
 _atom_site_symmetry_multiplicity
 _atom_site_fract_x
 _atom_site_fract_y
 _atom_site_fract_z
 _atom_site_occupancy
  Hf  Hf0  1  0.49230900  0.50370000  0.49088500  1
  Hf  Hf1  1  0.53536800  0.24279500  0.78774700  1
  Hf  Hf2  1  0.74458400  0.78931600  0.03895700  1
  Hf  Hf3  1  0.74504000  0.28021700  0.53048600  1
  Hf  Hf4  1  0.96292200  0.74854700  0.70673000  1
  Hf  Hf5  1  0.78147600  0.53247900  0.25450400  1
  Hf  Hf6  1  0.51142100  0.00401100  0.99944200  1
  Hf  Hf7  1  0.29249200  0.03248400  0.24966300  1
  Hf  Hf8  1  0.99200000  0.98391900  0.50056100  1
  Hf  Hf9  1  0.00660800  0.49785300  0.01004600  1
  Hf  Hf10  1  0.71466100  0.97206300  0.74876900  1
  Hf  Hf11  1  0.22248100  0.47185700  0.75518200  1
  Hf  Hf12  1  0.04065500  0.25754300  0.28541200  1
  Hf  Hf13  1  0.24930300  0.22118500  0.97185100  1
  Hf  Hf14  1  0.25128000  0.71453900  0.46407200  1
  Hf  Hf15  1  0.46345900  0.75015400  0.21464300  1
  N  N16  1  0.26126000  0.26804700  0.22716700  1
  N  N17  1  0.72898000  0.48830900  0.46098700  1
  N  N18  1  0.77085500  0.23222200  0.75962300  1
  N  N19  1  0.52831100  0.27378100  0.04041600  1
  N  N20  1  0.73224000  0.76445800  0.27251600  1
  N  N21  1  0.27119800  0.50820300  0.54420000  1
  N  N22  1  0.46654900  0.72686100  0.95262800  1
  N  N23  1  0.54597300  0.03940200  0.27404700  1
  N  N24  1  0.22110100  0.77340300  0.23440000  1
  N  N25  1  0.98384900  0.45103200  0.22216600  1
  N  N26  1  0.77412200  0.04173500  0.03393600  1
  N  N27  1  0.23554300  0.46326500  0.00700100  1
  N  N28  1  0.96880400  0.00949700  0.74030200  1
  N  N29  1  0.04662100  0.77385300  0.51492300  1
  N  N30  1  0.45238200  0.96820400  0.72701600  1
  N  N31  1  0.51486900  0.73799300  0.46666300  1
  O  O32  1  0.73767100  0.72119700  0.77492500  1
  O  O33  1  0.27263000  0.24076500  0.71710100  1
  O  O34  1  0.48366700  0.25870600  0.53512700  1
  O  O35  1  0.03809600  0.99568100  0.27045500  1
  O  O36  1  0.01932300  0.54942100  0.77167100  1
  O  O37  1  0.95524700  0.22851100  0.49319600  1
  O  O38  1  0.76266200  0.53865300  0.98466700  1
  O  O39  1  0.22198800  0.94414000  0.96591700  1
