# generated using pymatgen
data_Mg5Co19O32
_symmetry_space_group_name_H-M   'P 1'
_cell_length_a   5.77270040
_cell_length_b   5.77270040
_cell_length_c   56.55348663
_cell_angle_alpha   90.00000000
_cell_angle_beta   90.00000000
_cell_angle_gamma   120.00000000
_symmetry_Int_Tables_number   1
_chemical_formula_structural   Mg5Co19O32
_chemical_formula_sum   'Mg15 Co57 O96'
_cell_volume   1632.10484447
_cell_formula_units_Z   3
loop_
 _symmetry_equiv_pos_site_id
 _symmetry_equiv_pos_as_xyz
  1  'x, y, z'
loop_
 _atom_site_type_symbol
 _atom_site_label
 _atom_site_symmetry_multiplicity
 _atom_site_fract_x
 _atom_site_fract_y
 _atom_site_fract_z
 _atom_site_occupancy
  Mg  Mg0  1  0.66666667  0.33333333  0.02092933  1
  Mg  Mg1  1  0.66666667  0.33333333  0.33324533  1
  Mg  Mg2  1  0.33333333  0.66666667  0.10405367  1
  Mg  Mg3  1  0.33333333  0.66666667  0.16675267  1
  Mg  Mg4  1  0.00000000  0.00000000  0.25001600  1
  Mg  Mg5  1  0.33333333  0.66666667  0.35426267  1
  Mg  Mg6  1  0.33333333  0.66666667  0.66657867  1
  Mg  Mg7  1  0.00000000  0.00000000  0.43738700  1
  Mg  Mg8  1  0.00000000  0.00000000  0.50008600  1
  Mg  Mg9  1  0.66666667  0.33333333  0.58334933  1
  Mg  Mg10  1  0.00000000  0.00000000  0.68759600  1
  Mg  Mg11  1  0.00000000  0.00000000  0.99991200  1
  Mg  Mg12  1  0.66666667  0.33333333  0.77072033  1
  Mg  Mg13  1  0.66666667  0.33333333  0.83341933  1
  Mg  Mg14  1  0.33333333  0.66666667  0.91668267  1
  Co  Co15  1  0.16700967  0.83299033  0.05210933  1
  Co  Co16  1  0.33333333  0.66666667  0.01039967  1
  Co  Co17  1  0.66666667  0.33333333  0.08331233  1
  Co  Co18  1  0.33335267  0.16667633  0.13542233  1
  Co  Co19  1  0.66598067  0.83299033  0.05210933  1
  Co  Co20  1  0.83332367  0.66664733  0.13542233  1
  Co  Co21  1  0.16700967  0.33401933  0.05210933  1
  Co  Co22  1  0.83332367  0.16667633  0.13542233  1
  Co  Co23  1  0.66666667  0.33333333  0.17697033  1
  Co  Co24  1  0.00000000  0.00000000  0.09389700  1
  Co  Co25  1  0.49959667  0.99919333  0.21878333  1
  Co  Co26  1  0.00080667  0.50040333  0.21878333  1
  Co  Co27  1  0.66666667  0.33333333  0.27080533  1
  Co  Co28  1  0.00000000  0.00000000  0.18753800  1
  Co  Co29  1  0.33333333  0.66666667  0.26032567  1
  Co  Co30  1  0.16630833  0.83369167  0.30204367  1
  Co  Co31  1  0.49959667  0.50040333  0.21878333  1
  Co  Co32  1  0.66738333  0.83369167  0.30204367  1
  Co  Co33  1  0.16630833  0.33261667  0.30204367  1
  Co  Co34  1  0.83367633  0.16632367  0.38544267  1
  Co  Co35  1  0.00000000  0.00000000  0.34373300  1
  Co  Co36  1  0.33333333  0.66666667  0.41664567  1
  Co  Co37  1  0.00001933  0.50000967  0.46875567  1
  Co  Co38  1  0.33264733  0.16632367  0.38544267  1
  Co  Co39  1  0.49999033  0.99998067  0.46875567  1
  Co  Co40  1  0.83367633  0.66735267  0.38544267  1
  Co  Co41  1  0.49999033  0.50000967  0.46875567  1
  Co  Co42  1  0.33333333  0.66666667  0.51030367  1
  Co  Co43  1  0.66666667  0.33333333  0.42723033  1
  Co  Co44  1  0.16626333  0.33252667  0.55211667  1
  Co  Co45  1  0.66747333  0.83373667  0.55211667  1
  Co  Co46  1  0.33333333  0.66666667  0.60413867  1
  Co  Co47  1  0.66666667  0.33333333  0.52087133  1
  Co  Co48  1  0.00000000  0.00000000  0.59365900  1
  Co  Co49  1  0.83297500  0.16702500  0.63537700  1
  Co  Co50  1  0.16626333  0.83373667  0.55211667  1
  Co  Co51  1  0.33405000  0.16702500  0.63537700  1
  Co  Co52  1  0.83297500  0.66595000  0.63537700  1
  Co  Co53  1  0.50034300  0.49965700  0.71877600  1
  Co  Co54  1  0.66666667  0.33333333  0.67706633  1
  Co  Co55  1  0.00000000  0.00000000  0.74997900  1
  Co  Co56  1  0.66668600  0.83334300  0.80208900  1
  Co  Co57  1  0.99931400  0.49965700  0.71877600  1
  Co  Co58  1  0.16665700  0.33331400  0.80208900  1
  Co  Co59  1  0.50034300  0.00068600  0.71877600  1
  Co  Co60  1  0.16665700  0.83334300  0.80208900  1
  Co  Co61  1  0.00000000  0.00000000  0.84363700  1
  Co  Co62  1  0.33333333  0.66666667  0.76056367  1
  Co  Co63  1  0.83293000  0.66586000  0.88545000  1
  Co  Co64  1  0.33414000  0.16707000  0.88545000  1
  Co  Co65  1  0.00000000  0.00000000  0.93747200  1
  Co  Co66  1  0.33333333  0.66666667  0.85420467  1
  Co  Co67  1  0.66666667  0.33333333  0.92699233  1
  Co  Co68  1  0.49964167  0.50035833  0.96871033  1
  Co  Co69  1  0.83293000  0.16707000  0.88545000  1
  Co  Co70  1  0.00071667  0.50035833  0.96871033  1
  Co  Co71  1  0.49964167  0.99928333  0.96871033  1
  O  O72  1  0.29731067  0.14865533  0.07183933  1
  O  O73  1  0.85134467  0.70268933  0.07183933  1
  O  O74  1  0.03769467  0.51884733  0.03238933  1
  O  O75  1  0.48115267  0.96230533  0.03238933  1
  O  O76  1  0.48115267  0.51884733  0.03238933  1
  O  O77  1  0.33333333  0.66666667  0.06933267  1
  O  O78  1  0.14786267  0.85213733  0.11584733  1
  O  O79  1  0.85134467  0.14865533  0.07183933  1
  O  O80  1  0.00000000  0.00000000  0.03481500  1
  O  O81  1  0.66666667  0.33333333  0.11786233  1
  O  O82  1  0.51884233  0.03768467  0.15499967  1
  O  O83  1  0.96231533  0.48115767  0.15499967  1
  O  O84  1  0.70427467  0.85213733  0.11584733  1
  O  O85  1  0.14786267  0.29572533  0.11584733  1
  O  O86  1  0.81524167  0.18475833  0.19904733  1
  O  O87  1  0.00000000  0.00000000  0.15297600  1
  O  O88  1  0.66666667  0.33333333  0.23618433  1
  O  O89  1  0.18558933  0.81441067  0.23840967  1
  O  O90  1  0.51884233  0.48115767  0.15499967  1
  O  O91  1  0.33333333  0.66666667  0.20149567  1
  O  O92  1  0.62882133  0.81441067  0.23840967  1
  O  O93  1  0.18558933  0.37117867  0.23840967  1
  O  O94  1  0.36951667  0.18475833  0.19904733  1
  O  O95  1  0.81524167  0.63048333  0.19904733  1
  O  O96  1  0.03596600  0.51798300  0.28233000  1
  O  O97  1  0.48201700  0.96403400  0.28233000  1
  O  O98  1  0.33333333  0.66666667  0.31934967  1
  O  O99  1  0.48201700  0.51798300  0.28233000  1
  O  O100  1  0.00000000  0.00000000  0.28480000  1
  O  O101  1  0.85215667  0.14784333  0.32175733  1
  O  O102  1  0.85215667  0.70431333  0.32175733  1
  O  O103  1  0.29568667  0.14784333  0.32175733  1
  O  O104  1  0.96397733  0.48198867  0.40517267  1
  O  O105  1  0.51801133  0.03602267  0.40517267  1
  O  O106  1  0.70436133  0.85218067  0.36572267  1
  O  O107  1  0.14781933  0.29563867  0.36572267  1
  O  O108  1  0.14781933  0.85218067  0.36572267  1
  O  O109  1  0.00000000  0.00000000  0.40266600  1
  O  O110  1  0.81452933  0.18547067  0.44918067  1
  O  O111  1  0.51801133  0.48198867  0.40517267  1
  O  O112  1  0.66666667  0.33333333  0.36814833  1
  O  O113  1  0.33333333  0.66666667  0.45119567  1
  O  O114  1  0.18550900  0.37101800  0.48833300  1
  O  O115  1  0.62898200  0.81449100  0.48833300  1
  O  O116  1  0.37094133  0.18547067  0.44918067  1
  O  O117  1  0.81452933  0.62905867  0.44918067  1
  O  O118  1  0.48190833  0.51809167  0.53238067  1
  O  O119  1  0.66666667  0.33333333  0.48630933  1
  O  O120  1  0.33333333  0.66666667  0.56951767  1
  O  O121  1  0.85225600  0.14774400  0.57174300  1
  O  O122  1  0.18550900  0.81449100  0.48833300  1
  O  O123  1  0.00000000  0.00000000  0.53482900  1
  O  O124  1  0.29548800  0.14774400  0.57174300  1
  O  O125  1  0.85225600  0.70451200  0.57174300  1
  O  O126  1  0.03618333  0.51809167  0.53238067  1
  O  O127  1  0.48190833  0.96381667  0.53238067  1
  O  O128  1  0.70263267  0.85131633  0.61566333  1
  O  O129  1  0.14868367  0.29736733  0.61566333  1
  O  O130  1  0.00000000  0.00000000  0.65268300  1
  O  O131  1  0.14868367  0.85131633  0.61566333  1
  O  O132  1  0.66666667  0.33333333  0.61813333  1
  O  O133  1  0.51882333  0.48117667  0.65509067  1
  O  O134  1  0.51882333  0.03764667  0.65509067  1
  O  O135  1  0.96235333  0.48117667  0.65509067  1
  O  O136  1  0.63064400  0.81532200  0.73850600  1
  O  O137  1  0.18467800  0.36935600  0.73850600  1
  O  O138  1  0.37102800  0.18551400  0.69905600  1
  O  O139  1  0.81448600  0.62897200  0.69905600  1
  O  O140  1  0.81448600  0.18551400  0.69905600  1
  O  O141  1  0.66666667  0.33333333  0.73599933  1
  O  O142  1  0.48119600  0.51880400  0.78251400  1
  O  O143  1  0.18467800  0.81532200  0.73850600  1
  O  O144  1  0.33333333  0.66666667  0.70148167  1
  O  O145  1  0.00000000  0.00000000  0.78452900  1
  O  O146  1  0.85217567  0.70435133  0.82166633  1
  O  O147  1  0.29564867  0.14782433  0.82166633  1
  O  O148  1  0.03760800  0.51880400  0.78251400  1
  O  O149  1  0.48119600  0.96239200  0.78251400  1
  O  O150  1  0.14857500  0.85142500  0.86571400  1
  O  O151  1  0.33333333  0.66666667  0.81964267  1
  O  O152  1  0.00000000  0.00000000  0.90285100  1
  O  O153  1  0.51892267  0.48107733  0.90507633  1
  O  O154  1  0.85217567  0.14782433  0.82166633  1
  O  O155  1  0.66666667  0.33333333  0.86816233  1
  O  O156  1  0.96215467  0.48107733  0.90507633  1
  O  O157  1  0.51892267  0.03784533  0.90507633  1
  O  O158  1  0.70285000  0.85142500  0.86571400  1
  O  O159  1  0.14857500  0.29715000  0.86571400  1
  O  O160  1  0.36929933  0.18464967  0.94899667  1
  O  O161  1  0.81535033  0.63070067  0.94899667  1
  O  O162  1  0.66666667  0.33333333  0.98601633  1
  O  O163  1  0.81535033  0.18464967  0.94899667  1
  O  O164  1  0.33333333  0.66666667  0.95146667  1
  O  O165  1  0.18549000  0.81451000  0.98842400  1
  O  O166  1  0.18549000  0.37098000  0.98842400  1
  O  O167  1  0.62902000  0.81451000  0.98842400  1
