# generated using pymatgen
data_Li4Cr2Ni3Sb3O16
_symmetry_space_group_name_H-M   'P 1'
_cell_length_a   10.48242200
_cell_length_b   6.04760000
_cell_length_c   9.62392669
_cell_angle_alpha   90.00000000
_cell_angle_beta   91.52856860
_cell_angle_gamma   90.00000000
_symmetry_Int_Tables_number   1
_chemical_formula_structural   Li4Cr2Ni3Sb3O16
_chemical_formula_sum   'Li8 Cr4 Ni6 Sb6 O32'
_cell_volume   609.87724820
_cell_formula_units_Z   2
loop_
 _symmetry_equiv_pos_site_id
 _symmetry_equiv_pos_as_xyz
  1  'x, y, z'
loop_
 _atom_site_type_symbol
 _atom_site_label
 _atom_site_symmetry_multiplicity
 _atom_site_fract_x
 _atom_site_fract_y
 _atom_site_fract_z
 _atom_site_occupancy
  Li  Li0  1  0.66618500  0.00000000  0.87969200  1
  Li  Li1  1  0.98055300  0.00000000  0.98399300  1
  Li  Li2  1  0.98870500  0.00000000  0.50621800  1
  Li  Li3  1  0.82829800  0.50000000  0.40413600  1
  Li  Li4  1  0.16618500  0.50000000  0.87969200  1
  Li  Li5  1  0.48055300  0.50000000  0.98399300  1
  Li  Li6  1  0.48870500  0.50000000  0.50621800  1
  Li  Li7  1  0.32829800  0.00000000  0.40413600  1
  Cr  Cr8  1  0.67462700  0.00000000  0.49512800  1
  Cr  Cr9  1  0.84598900  0.50000000  0.97467000  1
  Cr  Cr10  1  0.17462700  0.50000000  0.49512800  1
  Cr  Cr11  1  0.34598900  0.00000000  0.97467000  1
  Ni  Ni12  1  0.83170600  0.00000000  0.21522600  1
  Ni  Ni13  1  0.91651450  0.74418850  0.71236400  1
  Ni  Ni14  1  0.91651450  0.25581150  0.71236400  1
  Ni  Ni15  1  0.33170600  0.50000000  0.21522600  1
  Ni  Ni16  1  0.41651450  0.24418850  0.71236400  1
  Ni  Ni17  1  0.41651450  0.75581150  0.71236400  1
  Sb  Sb18  1  0.58512000  0.24723600  0.21473800  1
  Sb  Sb19  1  0.58512000  0.75276400  0.21473800  1
  Sb  Sb20  1  0.67165200  0.50000000  0.71373700  1
  Sb  Sb21  1  0.08512000  0.74723600  0.21473800  1
  Sb  Sb22  1  0.08512000  0.25276400  0.21473800  1
  Sb  Sb23  1  0.17165200  0.00000000  0.71373700  1
  O  O24  1  0.59043400  0.25611800  0.59659400  1
  O  O25  1  0.51589600  0.00000000  0.33904700  1
  O  O26  1  0.66258600  0.00000000  0.10145600  1
  O  O27  1  0.50410100  0.50000000  0.31775200  1
  O  O28  1  0.50184900  0.50000000  0.80184200  1
  O  O29  1  0.59043400  0.74388200  0.59659400  1
  O  O30  1  0.73588700  0.22551600  0.34148600  1
  O  O31  1  0.73588700  0.77448400  0.34148600  1
  O  O32  1  0.66026100  0.50000000  0.10317600  1
  O  O33  1  0.83328700  0.00000000  0.59858000  1
  O  O34  1  0.75658250  0.71682750  0.84779200  1
  O  O35  1  0.75658250  0.28317250  0.84779200  1
  O  O36  1  0.83226000  0.50000000  0.60616400  1
  O  O37  1  0.92635250  0.75322650  0.09950300  1
  O  O38  1  0.98116900  0.50000000  0.84211600  1
  O  O39  1  0.92635250  0.24677350  0.09950300  1
  O  O40  1  0.09043400  0.75611800  0.59659400  1
  O  O41  1  0.01589600  0.50000000  0.33904700  1
  O  O42  1  0.16258600  0.50000000  0.10145600  1
  O  O43  1  0.00410100  0.00000000  0.31775200  1
  O  O44  1  0.00184900  0.00000000  0.80184200  1
  O  O45  1  0.09043400  0.24388200  0.59659400  1
  O  O46  1  0.23588700  0.72551600  0.34148600  1
  O  O47  1  0.23588700  0.27448400  0.34148600  1
  O  O48  1  0.16026100  0.00000000  0.10317600  1
  O  O49  1  0.33328700  0.50000000  0.59858000  1
  O  O50  1  0.25658250  0.21682750  0.84779200  1
  O  O51  1  0.25658250  0.78317250  0.84779200  1
  O  O52  1  0.33226000  0.00000000  0.60616400  1
  O  O53  1  0.42635250  0.25322650  0.09950300  1
  O  O54  1  0.48116900  0.00000000  0.84211600  1
  O  O55  1  0.42635250  0.74677350  0.09950300  1
