# generated using pymatgen
data_UAg2(WO5)2
_symmetry_space_group_name_H-M   'P 1'
_cell_length_a   8.60736700
_cell_length_b   7.64165600
_cell_length_c   13.14906012
_cell_angle_alpha   90.00000000
_cell_angle_beta   95.23645154
_cell_angle_gamma   90.00000000
_symmetry_Int_Tables_number   1
_chemical_formula_structural   UAg2(WO5)2
_chemical_formula_sum   'U4 Ag8 W8 O40'
_cell_volume   861.26383312
_cell_formula_units_Z   4
loop_
 _symmetry_equiv_pos_site_id
 _symmetry_equiv_pos_as_xyz
  1  'x, y, z'
loop_
 _atom_site_type_symbol
 _atom_site_label
 _atom_site_symmetry_multiplicity
 _atom_site_fract_x
 _atom_site_fract_y
 _atom_site_fract_z
 _atom_site_occupancy
  U  U0  1  0.97473700  0.37907900  0.74813900  1
  U  U1  1  0.97473700  0.12092100  0.24813900  1
  U  U2  1  0.02526300  0.87907900  0.75186100  1
  U  U3  1  0.02526300  0.62092100  0.25186100  1
  Ag  Ag4  1  0.80423300  0.38301900  0.45160200  1
  Ag  Ag5  1  0.19576700  0.88301900  0.04839800  1
  Ag  Ag6  1  0.19822700  0.36911600  0.03868200  1
  Ag  Ag7  1  0.80423300  0.11698100  0.95160200  1
  Ag  Ag8  1  0.80177300  0.86911600  0.46131800  1
  Ag  Ag9  1  0.19822700  0.13088400  0.53868200  1
  Ag  Ag10  1  0.80177300  0.63088400  0.96131800  1
  Ag  Ag11  1  0.19576700  0.61698100  0.54839800  1
  W  W12  1  0.36856800  0.37120600  0.33146100  1
  W  W13  1  0.63143200  0.62879400  0.66853900  1
  W  W14  1  0.62988200  0.36992500  0.16638500  1
  W  W15  1  0.36856800  0.12879400  0.83146100  1
  W  W16  1  0.62988200  0.13007500  0.66638500  1
  W  W17  1  0.37011800  0.63007500  0.83361500  1
  W  W18  1  0.37011800  0.86992500  0.33361500  1
  W  W19  1  0.63143200  0.87120600  0.16853900  1
  O  O20  1  0.31457000  0.87873100  0.79814200  1
  O  O21  1  0.66781500  0.61080000  0.53702000  1
  O  O22  1  0.00458500  0.62268300  0.39216800  1
  O  O23  1  0.41680900  0.90332200  0.16965700  1
  O  O24  1  0.04038500  0.88179100  0.61005200  1
  O  O25  1  0.31457000  0.62126900  0.29814200  1
  O  O26  1  0.41680900  0.59667800  0.66965700  1
  O  O27  1  0.85234800  0.65421800  0.73184900  1
  O  O28  1  0.58611900  0.65976200  0.83456200  1
  O  O29  1  0.99541500  0.37731700  0.60783200  1
  O  O30  1  0.14898000  0.60369700  0.76834800  1
  O  O31  1  0.66781500  0.88920000  0.03702000  1
  O  O32  1  0.85102000  0.39630300  0.23165200  1
  O  O33  1  0.00458500  0.87731700  0.89216800  1
  O  O34  1  0.85102000  0.10369700  0.73165200  1
  O  O35  1  0.62376000  0.87917900  0.66565700  1
  O  O36  1  0.62376000  0.62082100  0.16565700  1
  O  O37  1  0.33218500  0.11080000  0.96298000  1
  O  O38  1  0.14898000  0.89630300  0.26834800  1
  O  O39  1  0.66580300  0.14815500  0.53509900  1
  O  O40  1  0.58611900  0.84023800  0.33456200  1
  O  O41  1  0.68543000  0.37873100  0.70185800  1
  O  O42  1  0.68543000  0.12126900  0.20185800  1
  O  O43  1  0.58319100  0.40332200  0.33034300  1
  O  O44  1  0.41388100  0.34023800  0.16543800  1
  O  O45  1  0.85234800  0.84578200  0.23184900  1
  O  O46  1  0.95961500  0.11820900  0.38994800  1
  O  O47  1  0.95961500  0.38179100  0.88994800  1
  O  O48  1  0.37624000  0.37917900  0.83434300  1
  O  O49  1  0.37624000  0.12082100  0.33434300  1
  O  O50  1  0.33218500  0.38920000  0.46298000  1
  O  O51  1  0.14765200  0.34578200  0.26815100  1
  O  O52  1  0.04038500  0.61820900  0.11005200  1
  O  O53  1  0.33419700  0.64815500  0.96490100  1
  O  O54  1  0.99541500  0.12268300  0.10783200  1
  O  O55  1  0.14765200  0.15421800  0.76815100  1
  O  O56  1  0.66580300  0.35184500  0.03509900  1
  O  O57  1  0.33419700  0.85184500  0.46490100  1
  O  O58  1  0.58319100  0.09667800  0.83034300  1
  O  O59  1  0.41388100  0.15976200  0.66543800  1
