# generated using pymatgen
data_CaPbI4
_symmetry_space_group_name_H-M   'P 1'
_cell_length_a   4.62131800
_cell_length_b   15.25645300
_cell_length_c   16.05104300
_cell_angle_alpha   90.00000000
_cell_angle_beta   90.00000000
_cell_angle_gamma   90.00000000
_symmetry_Int_Tables_number   1
_chemical_formula_structural   CaPbI4
_chemical_formula_sum   'Ca4 Pb4 I16'
_cell_volume   1131.67751652
_cell_formula_units_Z   4
loop_
 _symmetry_equiv_pos_site_id
 _symmetry_equiv_pos_as_xyz
  1  'x, y, z'
loop_
 _atom_site_type_symbol
 _atom_site_label
 _atom_site_symmetry_multiplicity
 _atom_site_fract_x
 _atom_site_fract_y
 _atom_site_fract_z
 _atom_site_occupancy
  Ca  Ca0  1  0.00000000  0.00178400  0.98366100  1
  Ca  Ca1  1  0.00000000  0.49428600  0.76852600  1
  Ca  Ca2  1  0.50000000  0.50178400  0.01633900  1
  Ca  Ca3  1  0.50000000  0.99428600  0.23147400  1
  Pb  Pb4  1  0.00000000  0.99934000  0.48077500  1
  Pb  Pb5  1  0.00000000  0.49413200  0.26533300  1
  Pb  Pb6  1  0.50000000  0.49934000  0.51922500  1
  Pb  Pb7  1  0.50000000  0.99413200  0.73466700  1
  I  I8  1  0.00000000  0.11866300  0.65116600  1
  I  I9  1  0.00000000  0.38527000  0.93648400  1
  I  I10  1  0.00000000  0.11090100  0.15148300  1
  I  I11  1  0.00000000  0.37462900  0.43645000  1
  I  I12  1  0.00000000  0.61769600  0.60970600  1
  I  I13  1  0.00000000  0.87674900  0.82579600  1
  I  I14  1  0.00000000  0.87856500  0.31151500  1
  I  I15  1  0.00000000  0.61679900  0.09781300  1
  I  I16  1  0.50000000  0.11679900  0.90218700  1
  I  I17  1  0.50000000  0.37856500  0.68848500  1
  I  I18  1  0.50000000  0.11769600  0.39029400  1
  I  I19  1  0.50000000  0.88527000  0.06351600  1
  I  I20  1  0.50000000  0.61090100  0.84851700  1
  I  I21  1  0.50000000  0.87462900  0.56355000  1
  I  I22  1  0.50000000  0.61866300  0.34883400  1
  I  I23  1  0.50000000  0.37674900  0.17420400  1
