# generated using pymatgen
data_Y15TmO24
_symmetry_space_group_name_H-M   'P 1'
_cell_length_a   15.12555000
_cell_length_b   10.69361800
_cell_length_c   10.69036439
_cell_angle_alpha   90.00000000
_cell_angle_beta   135.01163465
_cell_angle_gamma   90.00000000
_symmetry_Int_Tables_number   1
_chemical_formula_structural   Y15TmO24
_chemical_formula_sum   'Y30 Tm2 O48'
_cell_volume   1222.43322603
_cell_formula_units_Z   2
loop_
 _symmetry_equiv_pos_site_id
 _symmetry_equiv_pos_as_xyz
  1  'x, y, z'
loop_
 _atom_site_type_symbol
 _atom_site_label
 _atom_site_symmetry_multiplicity
 _atom_site_fract_x
 _atom_site_fract_y
 _atom_site_fract_z
 _atom_site_occupancy
  Y  Y0  1  0.50002000  0.49963000  0.74958000  1
  Y  Y1  1  0.00000000  0.21685700  0.00000000  1
  Y  Y2  1  0.74962650  0.00044950  0.78262700  1
  Y  Y3  1  0.75037350  0.50044950  0.21737300  1
  Y  Y4  1  0.28269450  0.74999250  0.53298500  1
  Y  Y5  1  0.28353700  0.25012500  0.03403500  1
  Y  Y6  1  0.49998000  0.49963000  0.25042000  1
  Y  Y7  1  0.00000000  0.28302900  0.50000000  1
  Y  Y8  1  0.00016550  0.50042350  0.25055100  1
  Y  Y9  1  0.00000000  0.71695100  0.00000000  1
  Y  Y10  1  0.49983450  0.00042350  0.74944900  1
  Y  Y11  1  0.21730550  0.24999250  0.46701500  1
  Y  Y12  1  0.71646300  0.25012500  0.96596500  1
  Y  Y13  1  0.74960950  0.49962950  0.71667400  1
  Y  Y14  1  0.75039050  0.99962950  0.28332600  1
  Y  Y15  1  0.00002000  0.99963000  0.74958000  1
  Y  Y16  1  0.50000000  0.71685700  0.00000000  1
  Y  Y17  1  0.24962650  0.50044950  0.78262700  1
  Y  Y18  1  0.25037350  0.00044950  0.21737300  1
  Y  Y19  1  0.78269450  0.24999250  0.53298500  1
  Y  Y20  1  0.78353700  0.75012500  0.03403500  1
  Y  Y21  1  0.99998000  0.99963000  0.25042000  1
  Y  Y22  1  0.50000000  0.78302900  0.50000000  1
  Y  Y23  1  0.50016550  0.00042350  0.25055100  1
  Y  Y24  1  0.50000000  0.21695100  0.00000000  1
  Y  Y25  1  0.99983450  0.50042350  0.74944900  1
  Y  Y26  1  0.71730550  0.74999250  0.46701500  1
  Y  Y27  1  0.21646300  0.75012500  0.96596500  1
  Y  Y28  1  0.24960950  0.99962950  0.71667400  1
  Y  Y29  1  0.25039050  0.49962950  0.28332600  1
  Tm  Tm30  1  0.50000000  0.28368400  0.50000000  1
  Tm  Tm31  1  0.00000000  0.78368400  0.50000000  1
  O  O32  1  0.63003750  0.85946150  0.78210700  1
  O  O33  1  0.13012400  0.14076500  0.97802400  1
  O  O34  1  0.63925000  0.40093600  0.75796500  1
  O  O35  1  0.14078750  0.09788350  0.26089600  1
  O  O36  1  0.35902500  0.90189700  0.47910900  1
  O  O37  1  0.85900800  0.59788300  0.97928300  1
  O  O38  1  0.86996250  0.35946150  0.21789300  1
  O  O39  1  0.86987600  0.14076500  0.02197600  1
  O  O40  1  0.90188550  0.87005850  0.01104600  1
  O  O41  1  0.40193200  0.87010100  0.79267200  1
  O  O42  1  0.40341250  0.13190550  0.29581200  1
  O  O43  1  0.90189800  0.13004500  0.51115500  1
  O  O44  1  0.09806800  0.37010100  0.20732800  1
  O  O45  1  0.09810200  0.13004500  0.48884500  1
  O  O46  1  0.59658750  0.13190550  0.70418800  1
  O  O47  1  0.59811450  0.37005850  0.98895400  1
  O  O48  1  0.13002050  0.64078150  0.28189900  1
  O  O49  1  0.62857700  0.35777200  0.47852500  1
  O  O50  1  0.14097500  0.40189700  0.52089100  1
  O  O51  1  0.64099200  0.09788300  0.02071700  1
  O  O52  1  0.35921250  0.59788350  0.73910400  1
  O  O53  1  0.86075000  0.90093600  0.24203500  1
  O  O54  1  0.36997950  0.14078150  0.71810100  1
  O  O55  1  0.37142300  0.35777200  0.52147500  1
  O  O56  1  0.13003750  0.35946150  0.78210700  1
  O  O57  1  0.63012400  0.64076500  0.97802400  1
  O  O58  1  0.13925000  0.90093600  0.75796500  1
  O  O59  1  0.64078750  0.59788350  0.26089600  1
  O  O60  1  0.85902500  0.40189700  0.47910900  1
  O  O61  1  0.35900800  0.09788300  0.97928300  1
  O  O62  1  0.36996250  0.85946150  0.21789300  1
  O  O63  1  0.36987600  0.64076500  0.02197600  1
  O  O64  1  0.40188550  0.37005850  0.01104600  1
  O  O65  1  0.90193200  0.37010100  0.79267200  1
  O  O66  1  0.90341250  0.63190550  0.29581200  1
  O  O67  1  0.40189800  0.63004500  0.51115500  1
  O  O68  1  0.59806800  0.87010100  0.20732800  1
  O  O69  1  0.59810200  0.63004500  0.48884500  1
  O  O70  1  0.09658750  0.63190550  0.70418800  1
  O  O71  1  0.09811450  0.87005850  0.98895400  1
  O  O72  1  0.63002050  0.14078150  0.28189900  1
  O  O73  1  0.12857700  0.85777200  0.47852500  1
  O  O74  1  0.64097500  0.90189700  0.52089100  1
  O  O75  1  0.14099200  0.59788300  0.02071700  1
  O  O76  1  0.85921250  0.09788350  0.73910400  1
  O  O77  1  0.36075000  0.40093600  0.24203500  1
  O  O78  1  0.86997950  0.64078150  0.71810100  1
  O  O79  1  0.87142300  0.85777200  0.52147500  1
