# generated using pymatgen
data_HfO2
_symmetry_space_group_name_H-M   'P 1'
_cell_length_a   5.18420400
_cell_length_b   5.29677200
_cell_length_c   10.16892500
_cell_angle_alpha   90.00000000
_cell_angle_beta   90.00000000
_cell_angle_gamma   90.00000000
_symmetry_Int_Tables_number   1
_chemical_formula_structural   HfO2
_chemical_formula_sum   'Hf8 O16'
_cell_volume   279.23406980
_cell_formula_units_Z   8
loop_
 _symmetry_equiv_pos_site_id
 _symmetry_equiv_pos_as_xyz
  1  'x, y, z'
loop_
 _atom_site_type_symbol
 _atom_site_label
 _atom_site_symmetry_multiplicity
 _atom_site_fract_x
 _atom_site_fract_y
 _atom_site_fract_z
 _atom_site_occupancy
  Hf  Hf0  1  0.95873700  0.34278900  0.13794600  1
  Hf  Hf1  1  0.54126300  0.84278900  0.13794600  1
  Hf  Hf2  1  0.45873700  0.34278900  0.36205400  1
  Hf  Hf3  1  0.04126300  0.84278900  0.36205400  1
  Hf  Hf4  1  0.95873700  0.15721100  0.63794600  1
  Hf  Hf5  1  0.54126300  0.65721100  0.63794600  1
  Hf  Hf6  1  0.45873700  0.15721100  0.86205400  1
  Hf  Hf7  1  0.04126300  0.65721100  0.86205400  1
  O  O8  1  0.83242600  0.66750000  0.03355900  1
  O  O9  1  0.66757400  0.16750000  0.03355900  1
  O  O10  1  0.24891300  0.08730400  0.22433300  1
  O  O11  1  0.25108700  0.58730400  0.22433300  1
  O  O12  1  0.74891300  0.08730400  0.27566700  1
  O  O13  1  0.75108700  0.58730400  0.27566700  1
  O  O14  1  0.16757400  0.16750000  0.46644100  1
  O  O15  1  0.33242600  0.66750000  0.46644100  1
  O  O16  1  0.66757400  0.33250000  0.53355900  1
  O  O17  1  0.83242600  0.83250000  0.53355900  1
  O  O18  1  0.24891300  0.41269600  0.72433300  1
  O  O19  1  0.25108700  0.91269600  0.72433300  1
  O  O20  1  0.74891300  0.41269600  0.77566700  1
  O  O21  1  0.75108700  0.91269600  0.77566700  1
  O  O22  1  0.16757400  0.33250000  0.96644100  1
  O  O23  1  0.33242600  0.83250000  0.96644100  1
