# generated using pymatgen
data_YNb2NO5
_symmetry_space_group_name_H-M   'P 1'
_cell_length_a   5.28343100
_cell_length_b   5.92416252
_cell_length_c   14.99668645
_cell_angle_alpha   89.82144986
_cell_angle_beta   89.77930848
_cell_angle_gamma   89.80441205
_symmetry_Int_Tables_number   1
_chemical_formula_structural   YNb2NO5
_chemical_formula_sum   'Y4 Nb8 N4 O20'
_cell_volume   469.38636772
_cell_formula_units_Z   4
loop_
 _symmetry_equiv_pos_site_id
 _symmetry_equiv_pos_as_xyz
  1  'x, y, z'
loop_
 _atom_site_type_symbol
 _atom_site_label
 _atom_site_symmetry_multiplicity
 _atom_site_fract_x
 _atom_site_fract_y
 _atom_site_fract_z
 _atom_site_occupancy
  Y  Y0  1  0.25261300  0.69958900  0.00200800  1
  Y  Y1  1  0.75417100  0.29532600  0.00027400  1
  Y  Y2  1  0.75496900  0.79564000  0.49837500  1
  Y  Y3  1  0.24997000  0.20993900  0.50143100  1
  Nb  Nb4  1  0.72571000  0.82809800  0.16857000  1
  Nb  Nb5  1  0.21951900  0.18065100  0.17229000  1
  Nb  Nb6  1  0.21777500  0.67209300  0.33881300  1
  Nb  Nb7  1  0.74238400  0.31323100  0.33153300  1
  Nb  Nb8  1  0.26915600  0.67807000  0.66571000  1
  Nb  Nb9  1  0.77013800  0.30698200  0.67296000  1
  Nb  Nb10  1  0.76406200  0.82490700  0.83159300  1
  Nb  Nb11  1  0.28501400  0.18980100  0.83571200  1
  N  N12  1  0.90567300  0.12129600  0.24469100  1
  N  N13  1  0.03195600  0.42635000  0.40041700  1
  N  N14  1  0.60415200  0.12089900  0.75642200  1
  N  N15  1  0.39866200  0.38965400  0.91816900  1
  O  O16  1  0.10174900  0.38973000  0.08588600  1
  O  O17  1  0.60976000  0.61586500  0.08317600  1
  O  O18  1  0.02866700  0.91894100  0.09592900  1
  O  O19  1  0.52989300  0.08375100  0.09744300  1
  O  O20  1  0.39808200  0.86839300  0.23999700  1
  O  O21  1  0.40560300  0.37207900  0.25449200  1
  O  O22  1  0.89989100  0.63186000  0.25324800  1
  O  O23  1  0.53100600  0.59601400  0.39943800  1
  O  O24  1  0.10436900  0.89775400  0.41837600  1
  O  O25  1  0.59961600  0.11413000  0.41849700  1
  O  O26  1  0.39910300  0.88577300  0.58197300  1
  O  O27  1  0.89897300  0.10928900  0.58272600  1
  O  O28  1  0.97723500  0.58697700  0.59600300  1
  O  O29  1  0.47045700  0.41619300  0.59969900  1
  O  O30  1  0.59865200  0.62553300  0.74257800  1
  O  O31  1  0.09536600  0.37287600  0.74179600  1
  O  O32  1  0.08829200  0.85401700  0.75262000  1
  O  O33  1  0.46017200  0.90702500  0.90114900  1
  O  O34  1  0.96220600  0.08088300  0.89859200  1
  O  O35  1  0.89498200  0.62039100  0.91741200  1
