# generated using pymatgen
data_Sc(ClO4)3
_symmetry_space_group_name_H-M   'P 1'
_cell_length_a   8.04849364
_cell_length_b   8.04849364
_cell_length_c   23.75616681
_cell_angle_alpha   90.00000000
_cell_angle_beta   90.00000000
_cell_angle_gamma   120.00000000
_symmetry_Int_Tables_number   1
_chemical_formula_structural   Sc(ClO4)3
_chemical_formula_sum   'Sc6 Cl18 O72'
_cell_volume   1332.71169185
_cell_formula_units_Z   6
loop_
 _symmetry_equiv_pos_site_id
 _symmetry_equiv_pos_as_xyz
  1  'x, y, z'
loop_
 _atom_site_type_symbol
 _atom_site_label
 _atom_site_symmetry_multiplicity
 _atom_site_fract_x
 _atom_site_fract_y
 _atom_site_fract_z
 _atom_site_occupancy
  Sc  Sc0  1  0.66666667  0.33333333  0.27603533  1
  Sc  Sc1  1  0.33333333  0.66666667  0.10936867  1
  Sc  Sc2  1  0.33333333  0.66666667  0.60936867  1
  Sc  Sc3  1  0.00000000  0.00000000  0.44270200  1
  Sc  Sc4  1  0.00000000  0.00000000  0.94270200  1
  Sc  Sc5  1  0.66666667  0.33333333  0.77603533  1
  Cl  Cl6  1  0.70239300  0.67751000  0.33315000  1
  Cl  Cl7  1  0.98915667  0.63094033  0.16648333  1
  Cl  Cl8  1  0.36905967  0.35821633  0.16648333  1
  Cl  Cl9  1  0.97511700  0.29760700  0.33315000  1
  Cl  Cl10  1  0.32249000  0.02488300  0.33315000  1
  Cl  Cl11  1  0.64178367  0.01084333  0.16648333  1
  Cl  Cl12  1  0.36905967  0.01084333  0.66648333  1
  Cl  Cl13  1  0.65582333  0.96427367  0.49981667  1
  Cl  Cl14  1  0.03572633  0.69154967  0.49981667  1
  Cl  Cl15  1  0.64178367  0.63094033  0.66648333  1
  Cl  Cl16  1  0.98915667  0.35821633  0.66648333  1
  Cl  Cl17  1  0.30845033  0.34417667  0.49981667  1
  Cl  Cl18  1  0.03572633  0.34417667  0.99981667  1
  Cl  Cl19  1  0.32249000  0.29760700  0.83315000  1
  Cl  Cl20  1  0.70239300  0.02488300  0.83315000  1
  Cl  Cl21  1  0.30845033  0.96427367  0.99981667  1
  Cl  Cl22  1  0.65582333  0.69154967  0.99981667  1
  Cl  Cl23  1  0.97511700  0.67751000  0.83315000  1
  O  O24  1  0.22760167  0.09047233  0.01290333  1
  O  O25  1  0.90217233  0.48724667  0.21159067  1
  O  O26  1  0.26389833  0.15611067  0.15915467  1
  O  O27  1  0.80240800  0.67287800  0.28146400  1
  O  O28  1  0.99378867  0.53092533  0.11479733  1
  O  O29  1  0.17722267  0.40276833  0.32582133  1
  O  O30  1  0.17942000  0.43116100  0.04492400  1
  O  O31  1  0.89221233  0.73610167  0.15915467  1
  O  O32  1  0.24286100  0.43906500  0.17957000  1
  O  O33  1  0.51275333  0.41492567  0.21159067  1
  O  O34  1  0.46907467  0.46286333  0.11479733  1
  O  O35  1  0.19620400  0.75713900  0.17957000  1
  O  O36  1  0.22554567  0.82277733  0.32582133  1
  O  O37  1  0.90952767  0.13712933  0.01290333  1
  O  O38  1  0.87047000  0.19759200  0.28146400  1
  O  O39  1  0.25174100  0.82058000  0.04492400  1
  O  O40  1  0.56883900  0.74825900  0.04492400  1
  O  O41  1  0.59723167  0.77445433  0.32582133  1
  O  O42  1  0.56093500  0.80379600  0.17957000  1
  O  O43  1  0.32712200  0.12953000  0.28146400  1
  O  O44  1  0.53713667  0.00621133  0.11479733  1
  O  O45  1  0.86287067  0.77239833  0.01290333  1
  O  O46  1  0.58507433  0.09782767  0.21159067  1
  O  O47  1  0.84388933  0.10778767  0.15915467  1
  O  O48  1  0.89426833  0.42380567  0.34623667  1
  O  O49  1  0.56883900  0.82058000  0.54492400  1
  O  O50  1  0.93056500  0.48944400  0.49248800  1
  O  O51  1  0.46907467  0.00621133  0.61479733  1
  O  O52  1  0.66045533  0.86425867  0.44813067  1
  O  O53  1  0.84388933  0.73610167  0.65915467  1
  O  O54  1  0.84608667  0.76449433  0.37825733  1
  O  O55  1  0.55887900  0.06943500  0.49248800  1
  O  O56  1  0.90952767  0.77239833  0.51290333  1
  O  O57  1  0.17942000  0.74825900  0.54492400  1
  O  O58  1  0.13574133  0.79619667  0.44813067  1
  O  O59  1  0.86287067  0.09047233  0.51290333  1
  O  O60  1  0.89221233  0.15611067  0.65915467  1
  O  O61  1  0.57619433  0.47046267  0.34623667  1
  O  O62  1  0.53713667  0.53092533  0.61479733  1
  O  O63  1  0.91840767  0.15391333  0.37825733  1
  O  O64  1  0.23550567  0.08159233  0.37825733  1
  O  O65  1  0.26389833  0.10778767  0.65915467  1
  O  O66  1  0.22760167  0.13712933  0.51290333  1
  O  O67  1  0.99378867  0.46286333  0.61479733  1
  O  O68  1  0.20380333  0.33954467  0.44813067  1
  O  O69  1  0.52953733  0.10573167  0.34623667  1
  O  O70  1  0.25174100  0.43116100  0.54492400  1
  O  O71  1  0.51055600  0.44112100  0.49248800  1
  O  O72  1  0.56093500  0.75713900  0.67957000  1
  O  O73  1  0.23550567  0.15391333  0.87825733  1
  O  O74  1  0.59723167  0.82277733  0.82582133  1
  O  O75  1  0.13574133  0.33954467  0.94813067  1
  O  O76  1  0.32712200  0.19759200  0.78146400  1
  O  O77  1  0.51055600  0.06943500  0.99248800  1
  O  O78  1  0.51275333  0.09782767  0.71159067  1
  O  O79  1  0.22554567  0.40276833  0.82582133  1
  O  O80  1  0.57619433  0.10573167  0.84623667  1
  O  O81  1  0.84608667  0.08159233  0.87825733  1
  O  O82  1  0.80240800  0.12953000  0.78146400  1
  O  O83  1  0.52953733  0.42380567  0.84623667  1
  O  O84  1  0.55887900  0.48944400  0.99248800  1
  O  O85  1  0.24286100  0.80379600  0.67957000  1
  O  O86  1  0.20380333  0.86425867  0.94813067  1
  O  O87  1  0.58507433  0.48724667  0.71159067  1
  O  O88  1  0.90217233  0.41492567  0.71159067  1
  O  O89  1  0.93056500  0.44112100  0.99248800  1
  O  O90  1  0.89426833  0.47046267  0.84623667  1
  O  O91  1  0.66045533  0.79619667  0.94813067  1
  O  O92  1  0.87047000  0.67287800  0.78146400  1
  O  O93  1  0.19620400  0.43906500  0.67957000  1
  O  O94  1  0.91840767  0.76449433  0.87825733  1
  O  O95  1  0.17722267  0.77445433  0.82582133  1
