# generated using pymatgen
data_Ba3LaBr9
_symmetry_space_group_name_H-M   'P 1'
_cell_length_a   8.10088400
_cell_length_b   7.53896100
_cell_length_c   31.53521157
_cell_angle_alpha   90.00000000
_cell_angle_beta   92.06204008
_cell_angle_gamma   90.00000000
_symmetry_Int_Tables_number   1
_chemical_formula_structural   Ba3LaBr9
_chemical_formula_sum   'Ba12 La4 Br36'
_cell_volume   1924.67914869
_cell_formula_units_Z   4
loop_
 _symmetry_equiv_pos_site_id
 _symmetry_equiv_pos_as_xyz
  1  'x, y, z'
loop_
 _atom_site_type_symbol
 _atom_site_label
 _atom_site_symmetry_multiplicity
 _atom_site_fract_x
 _atom_site_fract_y
 _atom_site_fract_z
 _atom_site_occupancy
  Ba  Ba0  1  0.31954500  0.02819600  0.93317900  1
  Ba  Ba1  1  0.29109800  0.99632900  0.69193100  1
  Ba  Ba2  1  0.31954500  0.97180400  0.43317900  1
  Ba  Ba3  1  0.29109800  0.00367100  0.19193100  1
  Ba  Ba4  1  0.68513400  0.01237400  0.56995100  1
  Ba  Ba5  1  0.71735400  0.01569900  0.80843700  1
  Ba  Ba6  1  0.68513400  0.98762600  0.06995100  1
  Ba  Ba7  1  0.71735400  0.98430100  0.30843700  1
  Ba  Ba8  1  0.78271700  0.47513100  0.69200700  1
  Ba  Ba9  1  0.81927300  0.48389800  0.93086500  1
  Ba  Ba10  1  0.78271700  0.52486900  0.19200700  1
  Ba  Ba11  1  0.81927300  0.51610200  0.43086500  1
  La  La12  1  0.20388900  0.48028700  0.80665900  1
  La  La13  1  0.17952000  0.45510300  0.56696300  1
  La  La14  1  0.20388900  0.51971300  0.30665900  1
  La  La15  1  0.17952000  0.54489700  0.06696300  1
  Br  Br16  1  0.02266100  0.20494800  0.86821700  1
  Br  Br17  1  0.01675100  0.18643200  0.75278200  1
  Br  Br18  1  0.00753400  0.19099600  0.62726800  1
  Br  Br19  1  0.02266100  0.79505200  0.36821700  1
  Br  Br20  1  0.01675100  0.81356800  0.25278200  1
  Br  Br21  1  0.10933900  0.29768000  0.99409000  1
  Br  Br22  1  0.00753400  0.80900400  0.12726800  1
  Br  Br23  1  0.15295400  0.66578700  0.89164500  1
  Br  Br24  1  0.10933900  0.70232000  0.49409000  1
  Br  Br25  1  0.15924000  0.59882000  0.70831000  1
  Br  Br26  1  0.15295400  0.33421300  0.39164500  1
  Br  Br27  1  0.15924000  0.40118000  0.20831000  1
  Br  Br28  1  0.35279200  0.83724100  0.79595200  1
  Br  Br29  1  0.34930500  0.78748800  0.59930100  1
  Br  Br30  1  0.35279200  0.16275900  0.29595200  1
  Br  Br31  1  0.34930500  0.21251200  0.09930100  1
  Br  Br32  1  0.41149600  0.25742800  0.51160200  1
  Br  Br33  1  0.49005800  0.32218800  0.86654500  1
  Br  Br34  1  0.48458200  0.30895400  0.75236300  1
  Br  Br35  1  0.47189300  0.30264200  0.62762300  1
  Br  Br36  1  0.41149600  0.74257200  0.01160200  1
  Br  Br37  1  0.49005800  0.67781200  0.36654500  1
  Br  Br38  1  0.48458200  0.69104600  0.25236300  1
  Br  Br39  1  0.47189300  0.69735800  0.12762300  1
  Br  Br40  1  0.60084900  0.23708200  0.99009500  1
  Br  Br41  1  0.60084900  0.76291800  0.49009500  1
  Br  Br42  1  0.65639100  0.85066000  0.90084600  1
  Br  Br43  1  0.67764600  0.89159300  0.69861800  1
  Br  Br44  1  0.65639100  0.14934000  0.40084600  1
  Br  Br45  1  0.67764600  0.10840700  0.19861800  1
  Br  Br46  1  0.85380400  0.60480000  0.79761600  1
  Br  Br47  1  0.87791400  0.64294400  0.59843200  1
  Br  Br48  1  0.85380400  0.39520000  0.29761600  1
  Br  Br49  1  0.87791400  0.35705600  0.09843200  1
  Br  Br50  1  0.93699900  0.24490600  0.51051700  1
  Br  Br51  1  0.93699900  0.75509400  0.01051700  1
