# generated using pymatgen
data_LiVPO5
_symmetry_space_group_name_H-M   'P 1'
_cell_length_a   6.06026300
_cell_length_b   11.20317300
_cell_length_c   6.33390293
_cell_angle_alpha   90.00000000
_cell_angle_beta   100.18437952
_cell_angle_gamma   90.00000000
_symmetry_Int_Tables_number   1
_chemical_formula_structural   LiVPO5
_chemical_formula_sum   'Li4 V4 P4 O20'
_cell_volume   423.25941468
_cell_formula_units_Z   4
loop_
 _symmetry_equiv_pos_site_id
 _symmetry_equiv_pos_as_xyz
  1  'x, y, z'
loop_
 _atom_site_type_symbol
 _atom_site_label
 _atom_site_symmetry_multiplicity
 _atom_site_fract_x
 _atom_site_fract_y
 _atom_site_fract_z
 _atom_site_occupancy
  Li  Li0  1  0.61042900  0.61305100  0.96911900  1
  Li  Li1  1  0.11042900  0.88694900  0.96911900  1
  Li  Li2  1  0.88957100  0.11305100  0.03088100  1
  Li  Li3  1  0.38957100  0.38694900  0.03088100  1
  V  V4  1  0.51565400  0.83072900  0.29860200  1
  V  V5  1  0.01565400  0.66927100  0.29860200  1
  V  V6  1  0.98434600  0.33072900  0.70139800  1
  V  V7  1  0.48434600  0.16927100  0.70139800  1
  P  P8  1  0.92456300  0.40106000  0.20419000  1
  P  P9  1  0.42456300  0.09894000  0.20419000  1
  P  P10  1  0.57543700  0.90106000  0.79581000  1
  P  P11  1  0.07543700  0.59894000  0.79581000  1
  O  O12  1  0.54405300  0.16631300  0.04193500  1
  O  O13  1  0.69526800  0.45037700  0.10754700  1
  O  O14  1  0.04405300  0.33368700  0.04193500  1
  O  O15  1  0.19526800  0.04962300  0.10754700  1
  O  O16  1  0.73606500  0.71510000  0.26837300  1
  O  O17  1  0.58824100  0.99289500  0.29875400  1
  O  O18  1  0.23606500  0.78490000  0.26837300  1
  O  O19  1  0.08824100  0.50710500  0.29875400  1
  O  O20  1  0.91024700  0.31512300  0.39433800  1
  O  O21  1  0.41024700  0.18487700  0.39433800  1
  O  O22  1  0.58975300  0.81512300  0.60566200  1
  O  O23  1  0.08975300  0.68487700  0.60566200  1
  O  O24  1  0.91175900  0.49289500  0.70124600  1
  O  O25  1  0.76393500  0.21510000  0.73162700  1
  O  O26  1  0.41175900  0.00710500  0.70124600  1
  O  O27  1  0.26393500  0.28490000  0.73162700  1
  O  O28  1  0.80473200  0.95037700  0.89245300  1
  O  O29  1  0.95594700  0.66631300  0.95806500  1
  O  O30  1  0.30473200  0.54962300  0.89245300  1
  O  O31  1  0.45594700  0.83368700  0.95806500  1
