# generated using pymatgen
data_Ti2N2O
_symmetry_space_group_name_H-M   'P 1'
_cell_length_a   8.21873200
_cell_length_b   8.21931605
_cell_length_c   8.22031113
_cell_angle_alpha   109.41727541
_cell_angle_beta   109.51829237
_cell_angle_gamma   109.37301720
_symmetry_Int_Tables_number   1
_chemical_formula_structural   Ti2N2O
_chemical_formula_sum   'Ti16 N16 O8'
_cell_volume   428.02410410
_cell_formula_units_Z   8
loop_
 _symmetry_equiv_pos_site_id
 _symmetry_equiv_pos_as_xyz
  1  'x, y, z'
loop_
 _atom_site_type_symbol
 _atom_site_label
 _atom_site_symmetry_multiplicity
 _atom_site_fract_x
 _atom_site_fract_y
 _atom_site_fract_z
 _atom_site_occupancy
  Ti  Ti0  1  0.79344400  0.04427900  0.75246300  1
  Ti  Ti1  1  0.00203800  0.01009600  0.51208500  1
  Ti  Ti2  1  0.23794700  0.28212500  0.03520500  1
  Ti  Ti3  1  0.76256200  0.21734300  0.46454500  1
  Ti  Ti4  1  0.46936300  0.76182100  0.21506900  1
  Ti  Ti5  1  0.95703600  0.74327600  0.70912100  1
  Ti  Ti6  1  0.00612700  0.51730600  0.01464200  1
  Ti  Ti7  1  0.48881400  0.98476300  0.97901000  1
  Ti  Ti8  1  0.29063900  0.54067200  0.74290200  1
  Ti  Ti9  1  0.49269800  0.48969400  0.50166300  1
  Ti  Ti10  1  0.69810400  0.44896800  0.24230100  1
  Ti  Ti11  1  0.53511600  0.24564100  0.79554100  1
  Ti  Ti12  1  0.05325500  0.25839100  0.29031200  1
  Ti  Ti13  1  0.25474700  0.79825300  0.54149800  1
  Ti  Ti14  1  0.74107700  0.69562800  0.95782600  1
  Ti  Ti15  1  0.20762400  0.95954600  0.25309500  1
  N  N16  1  0.72414700  0.95022900  0.45867500  1
  N  N17  1  0.55160200  0.77555000  0.01311600  1
  N  N18  1  0.73722800  0.46146500  0.50910200  1
  N  N19  1  0.98759900  0.26315100  0.03916200  1
  N  N20  1  0.77720500  0.51081800  0.05435800  1
  N  N21  1  0.54138300  0.98897000  0.76479600  1
  N  N22  1  0.27788700  0.22571100  0.26612500  1
  N  N23  1  0.03795600  0.27573100  0.55108600  1
  N  N24  1  0.22451000  0.76673900  0.77330900  1
  N  N25  1  0.00562200  0.73282000  0.95844100  1
  N  N26  1  0.45302700  0.22577300  0.99161100  1
  N  N27  1  0.26541800  0.53860200  0.48774100  1
  N  N28  1  0.23801600  0.72591000  0.27333200  1
  N  N29  1  0.05069100  0.03982200  0.77426600  1
  N  N30  1  0.49304400  0.45168300  0.72373400  1
  N  N31  1  0.27258400  0.04896400  0.53838700  1
  O  O32  1  0.50911400  0.54922700  0.27042600  1
  O  O33  1  0.95317800  0.96186700  0.22522300  1
  O  O34  1  0.76711400  0.27371200  0.72436100  1
  O  O35  1  0.77307000  0.23486600  0.22780000  1
  O  O36  1  0.22695900  0.48861900  0.95198100  1
  O  O37  1  0.72440200  0.77614000  0.73226800  1
  O  O38  1  0.46093600  0.01100500  0.23557900  1
  O  O39  1  0.95671300  0.72482700  0.44784200  1
