# generated using pymatgen
data_Li2MnV(PO4)3
_symmetry_space_group_name_H-M   'P 1'
_cell_length_a   8.32148870
_cell_length_b   8.32259297
_cell_length_c   8.84228606
_cell_angle_alpha   116.21881966
_cell_angle_beta   90.14588556
_cell_angle_gamma   118.85114269
_symmetry_Int_Tables_number   1
_chemical_formula_structural   Li2MnV(PO4)3
_chemical_formula_sum   'Li4 Mn2 V2 P6 O24'
_cell_volume   462.69676906
_cell_formula_units_Z   2
loop_
 _symmetry_equiv_pos_site_id
 _symmetry_equiv_pos_as_xyz
  1  'x, y, z'
loop_
 _atom_site_type_symbol
 _atom_site_label
 _atom_site_symmetry_multiplicity
 _atom_site_fract_x
 _atom_site_fract_y
 _atom_site_fract_z
 _atom_site_occupancy
  Li  Li0  1  0.31211717  0.25115732  0.13979204  1
  Li  Li1  1  0.73823720  0.81052075  0.36277405  1
  Li  Li2  1  0.26904579  0.07533034  0.86130402  1
  Li  Li3  1  0.69820096  0.75742886  0.87779201  1
  Mn  Mn4  1  0.85495845  0.14597403  0.56910441  1
  Mn  Mn5  1  0.14868068  0.85534867  0.43812994  1
  V  V6  1  0.34614221  0.64786388  0.04657482  1
  V  V7  1  0.66173892  0.35280213  0.95746489  1
  P  P8  1  0.45676345  0.95156203  0.24996639  1
  P  P9  1  0.74005468  0.53495818  0.24617800  1
  P  P10  1  0.03763317  0.25156058  0.25988287  1
  P  P11  1  0.96545640  0.75109688  0.75005110  1
  P  P12  1  0.26161197  0.46403520  0.75914465  1
  P  P13  1  0.53656452  0.04312108  0.74764008  1
  O  O14  1  0.46542617  0.15537341  0.09441421  1
  O  O15  1  0.25930544  0.88178291  0.27279215  1
  O  O16  1  0.46755498  0.81138864  0.18794520  1
  O  O17  1  0.51926057  0.49469798  0.19511977  1
  O  O18  1  0.77520901  0.53616442  0.08942254  1
  O  O19  1  0.83383319  0.22241697  0.12411668  1
  O  O20  1  0.62663487  0.96288632  0.41003886  1
  O  O21  1  0.85221908  0.73393222  0.26755660  1
  O  O22  1  0.78380709  0.37062982  0.41633040  1
  O  O23  1  0.17109976  0.46231645  0.18758230  1
  O  O24  1  0.11366311  0.11065308  0.26626619  1
  O  O25  1  0.02348984  0.20794534  0.43722465  1
  O  O26  1  0.97273605  0.79637698  0.56739173  1
  O  O27  1  0.88040625  0.88664601  0.74015740  1
  O  O28  1  0.83728685  0.53696191  0.81611184  1
  O  O29  1  0.21507670  0.62443615  0.58718644  1
  O  O30  1  0.14239676  0.26020946  0.74974050  1
  O  O31  1  0.37904492  0.03247635  0.58133862  1
  O  O32  1  0.16873187  0.79481299  0.88056464  1
  O  O33  1  0.23136386  0.47258767  0.91324414  1
  O  O34  1  0.48141115  0.49487063  0.81029866  1
  O  O35  1  0.52824155  0.17259906  0.82176430  1
  O  O36  1  0.73798941  0.10937645  0.73339038  1
  O  O37  1  0.51437499  0.82974783  0.89627857  1
