# generated using pymatgen
data_K3H2S2NO7
_symmetry_space_group_name_H-M   'P 1'
_cell_length_a   6.81868000
_cell_length_b   8.05423302
_cell_length_c   8.21978717
_cell_angle_alpha   97.63848092
_cell_angle_beta   90.89203314
_cell_angle_gamma   103.24889385
_symmetry_Int_Tables_number   1
_chemical_formula_structural   K3H2S2NO7
_chemical_formula_sum   'K6 H4 S4 N2 O14'
_cell_volume   435.01406500
_cell_formula_units_Z   2
loop_
 _symmetry_equiv_pos_site_id
 _symmetry_equiv_pos_as_xyz
  1  'x, y, z'
loop_
 _atom_site_type_symbol
 _atom_site_label
 _atom_site_symmetry_multiplicity
 _atom_site_fract_x
 _atom_site_fract_y
 _atom_site_fract_z
 _atom_site_occupancy
  K  K0  1  0.31308300  0.94455800  0.24086200  1
  K  K1  1  0.68691700  0.05544200  0.75913800  1
  K  K2  1  0.80123300  0.65559700  0.93623600  1
  K  K3  1  0.19876700  0.34440300  0.06376400  1
  K  K4  1  0.33158700  0.32608400  0.57656700  1
  K  K5  1  0.66841300  0.67391600  0.42343300  1
  H  H6  1  0.09971300  0.54520400  0.33974300  1
  H  H7  1  0.90028700  0.45479600  0.66025700  1
  H  H8  1  0.21928700  0.68348900  0.48058500  1
  H  H9  1  0.78071300  0.31651100  0.51941500  1
  S  S10  1  0.15079900  0.93785300  0.72281500  1
  S  S11  1  0.84920100  0.06214700  0.27718500  1
  S  S12  1  0.31939500  0.69327200  0.85402400  1
  S  S13  1  0.68060500  0.30672800  0.14597600  1
  N  N14  1  0.24884800  0.87277900  0.87730700  1
  N  N15  1  0.75115200  0.12722100  0.12269300  1
  O  O16  1  0.95909200  0.81417200  0.66225600  1
  O  O17  1  0.04090800  0.18582800  0.33774400  1
  O  O18  1  0.11359300  0.10708500  0.79073300  1
  O  O19  1  0.88640700  0.89291500  0.20926700  1
  O  O20  1  0.29532800  0.95766300  0.58855400  1
  O  O21  1  0.70467200  0.04233700  0.41144600  1
  O  O22  1  0.14536300  0.54246500  0.80223300  1
  O  O23  1  0.85463700  0.45753500  0.19776700  1
  O  O24  1  0.47893800  0.69368900  0.73201300  1
  O  O25  1  0.52106200  0.30631100  0.26798700  1
  O  O26  1  0.39985700  0.68213000  0.01965300  1
  O  O27  1  0.60014300  0.31787000  0.98034700  1
  O  O28  1  0.23613600  0.59846000  0.38855200  1
  O  O29  1  0.76386400  0.40154000  0.61144800  1
