# generated using pymatgen
data_Zr6Nb2O17
_symmetry_space_group_name_H-M   'P 1'
_cell_length_a   42.02627000
_cell_length_b   5.33186000
_cell_length_c   5.03212662
_cell_angle_alpha   90.00000000
_cell_angle_beta   96.11160826
_cell_angle_gamma   90.00000000
_symmetry_Int_Tables_number   1
_chemical_formula_structural   Zr6Nb2O17
_chemical_formula_sum   'Zr24 Nb8 O68'
_cell_volume   1121.18103950
_cell_formula_units_Z   4
loop_
 _symmetry_equiv_pos_site_id
 _symmetry_equiv_pos_as_xyz
  1  'x, y, z'
loop_
 _atom_site_type_symbol
 _atom_site_label
 _atom_site_symmetry_multiplicity
 _atom_site_fract_x
 _atom_site_fract_y
 _atom_site_fract_z
 _atom_site_occupancy
  Zr  Zr0  1  0.00000000  0.26215900  0.50000000  1
  Zr  Zr1  1  0.00000000  0.76498000  0.00000000  1
  Zr  Zr2  1  0.06620300  0.12106700  0.04255900  1
  Zr  Zr3  1  0.12905350  0.54400950  0.10998900  1
  Zr  Zr4  1  0.12845800  0.04010700  0.63791800  1
  Zr  Zr5  1  0.19138750  0.61331150  0.69840300  1
  Zr  Zr6  1  0.24955200  0.53155800  0.23910200  1
  Zr  Zr7  1  0.25044800  0.03155800  0.76089800  1
  Zr  Zr8  1  0.30861250  0.11331150  0.30159700  1
  Zr  Zr9  1  0.37154200  0.54010700  0.36208200  1
  Zr  Zr10  1  0.37094650  0.04400950  0.89001100  1
  Zr  Zr11  1  0.43379700  0.62106700  0.95744100  1
  Zr  Zr12  1  0.50000000  0.76215900  0.50000000  1
  Zr  Zr13  1  0.50000000  0.26498000  0.00000000  1
  Zr  Zr14  1  0.56620300  0.62106700  0.04255900  1
  Zr  Zr15  1  0.62905350  0.04400950  0.10998900  1
  Zr  Zr16  1  0.62845800  0.54010700  0.63791800  1
  Zr  Zr17  1  0.69138750  0.11331150  0.69840300  1
  Zr  Zr18  1  0.74955200  0.03155800  0.23910200  1
  Zr  Zr19  1  0.75044800  0.53155800  0.76089800  1
  Zr  Zr20  1  0.80861250  0.61331150  0.30159700  1
  Zr  Zr21  1  0.87154200  0.04010700  0.36208200  1
  Zr  Zr22  1  0.87094650  0.54400950  0.89001100  1
  Zr  Zr23  1  0.93379700  0.12106700  0.95744100  1
  Nb  Nb24  1  0.06660800  0.62016500  0.58257300  1
  Nb  Nb25  1  0.18918100  0.10981600  0.16288800  1
  Nb  Nb26  1  0.31081900  0.60981600  0.83711200  1
  Nb  Nb27  1  0.43339200  0.12016500  0.41742700  1
  Nb  Nb28  1  0.56660800  0.12016500  0.58257300  1
  Nb  Nb29  1  0.68918100  0.60981600  0.16288800  1
  Nb  Nb30  1  0.81081900  0.10981600  0.83711200  1
  Nb  Nb31  1  0.93339200  0.62016500  0.41742700  1
  O  O32  1  0.02704650  0.59205650  0.33229300  1
  O  O33  1  0.02419850  0.08765750  0.21473800  1
  O  O34  1  0.03678250  0.90614150  0.75963200  1
  O  O35  1  0.03683150  0.41688550  0.80122800  1
  O  O36  1  0.08417150  0.93201450  0.40488200  1
  O  O37  1  0.08556900  0.44383900  0.28717900  1
  O  O38  1  0.09683050  0.81381650  0.89093500  1
  O  O39  1  0.09691500  0.32914500  0.79486400  1
  O  O40  1  0.14276850  0.18924250  0.29081800  1
  O  O41  1  0.14413000  0.69606200  0.47605600  1
  O  O42  1  0.15950550  0.84223050  0.95200600  1
  O  O43  1  0.15985100  0.33341200  0.85540300  1
  O  O44  1  0.19794450  0.97620850  0.51564000  1
  O  O45  1  0.19822200  0.44548100  0.33467200  1
  O  O46  1  0.22007700  0.30768100  0.92188400  1
  O  O47  1  0.21881150  0.83185450  0.02676600  1
  O  O48  1  0.25646800  0.16938200  0.39094900  1
  O  O49  1  0.24353200  0.66938200  0.60905100  1
  O  O50  1  0.27992300  0.80768100  0.07811600  1
  O  O51  1  0.28118850  0.33185450  0.97323400  1
  O  O52  1  0.30205550  0.47620850  0.48436000  1
  O  O53  1  0.30177800  0.94548100  0.66532800  1
  O  O54  1  0.34049450  0.34223050  0.04799400  1
  O  O55  1  0.34014900  0.83341200  0.14459700  1
  O  O56  1  0.35723150  0.68924250  0.70918200  1
  O  O57  1  0.35587000  0.19606200  0.52394400  1
  O  O58  1  0.40316950  0.31381650  0.10906500  1
  O  O59  1  0.40308500  0.82914500  0.20513600  1
  O  O60  1  0.41443100  0.94383900  0.71282100  1
  O  O61  1  0.41582850  0.43201450  0.59511800  1
  O  O62  1  0.46321750  0.40614150  0.24036800  1
  O  O63  1  0.46316850  0.91688550  0.19877200  1
  O  O64  1  0.47295350  0.09205650  0.66770700  1
  O  O65  1  0.47580150  0.58765750  0.78526200  1
  O  O66  1  0.52704650  0.09205650  0.33229300  1
  O  O67  1  0.52419850  0.58765750  0.21473800  1
  O  O68  1  0.53678250  0.40614150  0.75963200  1
  O  O69  1  0.53683150  0.91688550  0.80122800  1
  O  O70  1  0.58417150  0.43201450  0.40488200  1
  O  O71  1  0.58556900  0.94383900  0.28717900  1
  O  O72  1  0.59683050  0.31381650  0.89093500  1
  O  O73  1  0.59691500  0.82914500  0.79486400  1
  O  O74  1  0.64276850  0.68924250  0.29081800  1
  O  O75  1  0.64413000  0.19606200  0.47605600  1
  O  O76  1  0.65950550  0.34223050  0.95200600  1
  O  O77  1  0.65985100  0.83341200  0.85540300  1
  O  O78  1  0.69794450  0.47620850  0.51564000  1
  O  O79  1  0.69822200  0.94548100  0.33467200  1
  O  O80  1  0.72007700  0.80768100  0.92188400  1
  O  O81  1  0.71881150  0.33185450  0.02676600  1
  O  O82  1  0.75646800  0.66938200  0.39094900  1
  O  O83  1  0.74353200  0.16938200  0.60905100  1
  O  O84  1  0.77992300  0.30768100  0.07811600  1
  O  O85  1  0.78118850  0.83185450  0.97323400  1
  O  O86  1  0.80205550  0.97620850  0.48436000  1
  O  O87  1  0.80177800  0.44548100  0.66532800  1
  O  O88  1  0.84049450  0.84223050  0.04799400  1
  O  O89  1  0.84014900  0.33341200  0.14459700  1
  O  O90  1  0.85723150  0.18924250  0.70918200  1
  O  O91  1  0.85587000  0.69606200  0.52394400  1
  O  O92  1  0.90316950  0.81381650  0.10906500  1
  O  O93  1  0.90308500  0.32914500  0.20513600  1
  O  O94  1  0.91443100  0.44383900  0.71282100  1
  O  O95  1  0.91582850  0.93201450  0.59511800  1
  O  O96  1  0.96321750  0.90614150  0.24036800  1
  O  O97  1  0.96316850  0.41688550  0.19877200  1
  O  O98  1  0.97295350  0.59205650  0.66770700  1
  O  O99  1  0.97580150  0.08765750  0.78526200  1
