# generated using pymatgen
data_Li11Fe(WO4)7
_symmetry_space_group_name_H-M   'P 1'
_cell_length_a   12.10714200
_cell_length_b   12.06663400
_cell_length_c   8.30213610
_cell_angle_alpha   90.00000000
_cell_angle_beta   90.63077358
_cell_angle_gamma   90.00000000
_symmetry_Int_Tables_number   1
_chemical_formula_structural   Li11Fe(WO4)7
_chemical_formula_sum   'Li22 Fe2 W14 O56'
_cell_volume   1212.80591476
_cell_formula_units_Z   2
loop_
 _symmetry_equiv_pos_site_id
 _symmetry_equiv_pos_as_xyz
  1  'x, y, z'
loop_
 _atom_site_type_symbol
 _atom_site_label
 _atom_site_symmetry_multiplicity
 _atom_site_fract_x
 _atom_site_fract_y
 _atom_site_fract_z
 _atom_site_occupancy
  Li  Li0  1  0.00425050  0.64745450  0.89965500  1
  Li  Li1  1  0.00425050  0.35254550  0.89965500  1
  Li  Li2  1  0.13137250  0.77989550  0.64613500  1
  Li  Li3  1  0.87035200  0.78149700  0.64289500  1
  Li  Li4  1  0.13137250  0.22010450  0.64613500  1
  Li  Li5  1  0.87035200  0.21850300  0.64289500  1
  Li  Li6  1  0.27870050  0.62833350  0.35765700  1
  Li  Li7  1  0.27870050  0.37166650  0.35765700  1
  Li  Li8  1  0.72246700  0.62829800  0.36040300  1
  Li  Li9  1  0.72246700  0.37170200  0.36040300  1
  Li  Li10  1  0.14817100  0.50000000  0.09421900  1
  Li  Li11  1  0.50425050  0.14745450  0.89965500  1
  Li  Li12  1  0.50425050  0.85254550  0.89965500  1
  Li  Li13  1  0.63137250  0.27989550  0.64613500  1
  Li  Li14  1  0.37035200  0.28149700  0.64289500  1
  Li  Li15  1  0.63137250  0.72010450  0.64613500  1
  Li  Li16  1  0.37035200  0.71850300  0.64289500  1
  Li  Li17  1  0.77870050  0.12833350  0.35765700  1
  Li  Li18  1  0.77870050  0.87166650  0.35765700  1
  Li  Li19  1  0.22246700  0.12829800  0.36040300  1
  Li  Li20  1  0.22246700  0.87170200  0.36040300  1
  Li  Li21  1  0.64817100  0.00000000  0.09421900  1
  Fe  Fe22  1  0.86979500  0.50000000  0.12217200  1
  Fe  Fe23  1  0.36979500  0.00000000  0.12217200  1
  W  W24  1  0.75357450  0.25405450  0.00043500  1
  W  W25  1  0.75357450  0.74594550  0.00043500  1
  W  W26  1  0.14504200  0.50000000  0.63881800  1
  W  W27  1  0.85556300  0.50000000  0.65285700  1
  W  W28  1  0.50105800  0.50000000  0.49941900  1
  W  W29  1  0.99794900  0.64505100  0.36329100  1
  W  W30  1  0.99794900  0.35494900  0.36329100  1
  W  W31  1  0.25357450  0.75405450  0.00043500  1
  W  W32  1  0.25357450  0.24594550  0.00043500  1
  W  W33  1  0.64504200  0.00000000  0.63881800  1
  W  W34  1  0.35556300  0.00000000  0.65285700  1
  W  W35  1  0.00105800  0.00000000  0.49941900  1
  W  W36  1  0.49794900  0.14505100  0.36329100  1
  W  W37  1  0.49794900  0.85494900  0.36329100  1
  O  O38  1  0.11231700  0.50000000  0.85259300  1
  O  O39  1  0.87815200  0.50000000  0.87197400  1
  O  O40  1  0.13027550  0.75145950  0.87770100  1
  O  O41  1  0.13027550  0.24854050  0.87770100  1
  O  O42  1  0.87329200  0.75168100  0.87522600  1
  O  O43  1  0.87329200  0.24831900  0.87522600  1
  O  O44  1  0.00189000  0.87614300  0.62298400  1
  O  O45  1  0.00189000  0.12385700  0.62298400  1
  O  O46  1  0.99496950  0.60698250  0.60541700  1
  O  O47  1  0.99496950  0.39301750  0.60541700  1
  O  O48  1  0.23420050  0.61933150  0.61503900  1
  O  O49  1  0.23420050  0.38066850  0.61503900  1
  O  O50  1  0.76495800  0.61655100  0.61774600  1
  O  O51  1  0.76495800  0.38344900  0.61774600  1
  O  O52  1  0.11607350  0.73570650  0.37267900  1
  O  O53  1  0.11607350  0.26429350  0.37267900  1
  O  O54  1  0.88041100  0.73603200  0.38422500  1
  O  O55  1  0.88041100  0.26396800  0.38422500  1
  O  O56  1  0.10469200  0.50000000  0.38895500  1
  O  O57  1  0.88532800  0.50000000  0.37030400  1
  O  O58  1  0.37694100  0.50000000  0.37580200  1
  O  O59  1  0.62280800  0.50000000  0.37481000  1
  O  O60  1  0.24792850  0.63215650  0.12526200  1
  O  O61  1  0.24792850  0.36784350  0.12526200  1
  O  O62  1  0.76020200  0.61620900  0.12136600  1
  O  O63  1  0.76020200  0.38379100  0.12136600  1
  O  O64  1  0.98720150  0.60892450  0.14092400  1
  O  O65  1  0.98720150  0.39107550  0.14092400  1
  O  O66  1  0.61231700  0.00000000  0.85259300  1
  O  O67  1  0.37815200  0.00000000  0.87197400  1
  O  O68  1  0.63027550  0.25145950  0.87770100  1
  O  O69  1  0.63027550  0.74854050  0.87770100  1
  O  O70  1  0.37329200  0.25168100  0.87522600  1
  O  O71  1  0.37329200  0.74831900  0.87522600  1
  O  O72  1  0.50189000  0.37614300  0.62298400  1
  O  O73  1  0.50189000  0.62385700  0.62298400  1
  O  O74  1  0.49496950  0.10698250  0.60541700  1
  O  O75  1  0.49496950  0.89301750  0.60541700  1
  O  O76  1  0.73420050  0.11933150  0.61503900  1
  O  O77  1  0.73420050  0.88066850  0.61503900  1
  O  O78  1  0.26495800  0.11655100  0.61774600  1
  O  O79  1  0.26495800  0.88344900  0.61774600  1
  O  O80  1  0.61607350  0.23570650  0.37267900  1
  O  O81  1  0.61607350  0.76429350  0.37267900  1
  O  O82  1  0.38041100  0.23603200  0.38422500  1
  O  O83  1  0.38041100  0.76396800  0.38422500  1
  O  O84  1  0.60469200  0.00000000  0.38895500  1
  O  O85  1  0.38532800  0.00000000  0.37030400  1
  O  O86  1  0.87694100  0.00000000  0.37580200  1
  O  O87  1  0.12280800  0.00000000  0.37481000  1
  O  O88  1  0.74792850  0.13215650  0.12526200  1
  O  O89  1  0.74792850  0.86784350  0.12526200  1
  O  O90  1  0.26020200  0.11620900  0.12136600  1
  O  O91  1  0.26020200  0.88379100  0.12136600  1
  O  O92  1  0.48720150  0.10892450  0.14092400  1
  O  O93  1  0.48720150  0.89107550  0.14092400  1
