# generated using pymatgen
data_NdAl3(BO3)4
_symmetry_space_group_name_H-M   'P 1'
_cell_length_a   9.41214273
_cell_length_b   9.41214273
_cell_length_c   7.39099993
_cell_angle_alpha   90.00000000
_cell_angle_beta   90.00000000
_cell_angle_gamma   120.00000000
_symmetry_Int_Tables_number   1
_chemical_formula_structural   NdAl3(BO3)4
_chemical_formula_sum   'Nd3 Al9 B12 O36'
_cell_volume   567.03626915
_cell_formula_units_Z   3
loop_
 _symmetry_equiv_pos_site_id
 _symmetry_equiv_pos_as_xyz
  1  'x, y, z'
loop_
 _atom_site_type_symbol
 _atom_site_label
 _atom_site_symmetry_multiplicity
 _atom_site_fract_x
 _atom_site_fract_y
 _atom_site_fract_z
 _atom_site_occupancy
  Nd  Nd0  1  0.00000000  0.00000000  0.00000000  1
  Nd  Nd1  1  0.66666667  0.33333333  0.33333333  1
  Nd  Nd2  1  0.33333333  0.66666667  0.66666667  1
  Al  Al3  1  0.11103167  0.33333333  0.33333333  1
  Al  Al4  1  0.66666667  0.77769833  0.33333333  1
  Al  Al5  1  0.22230167  0.88896833  0.33333333  1
  Al  Al6  1  0.77769833  0.66666667  0.66666667  1
  Al  Al7  1  0.33333333  0.11103167  0.66666667  1
  Al  Al8  1  0.88896833  0.22230167  0.66666667  1
  Al  Al9  1  0.44436500  0.00000000  0.00000000  1
  Al  Al10  1  0.00000000  0.44436500  0.00000000  1
  Al  Al11  1  0.55563500  0.55563500  0.00000000  1
  B  B12  1  0.55819300  0.00000000  0.50000000  1
  B  B13  1  0.00000000  0.55819300  0.50000000  1
  B  B14  1  0.44180700  0.44180700  0.50000000  1
  B  B15  1  0.00000000  0.00000000  0.50000000  1
  B  B16  1  0.22485967  0.33333333  0.83333333  1
  B  B17  1  0.66666667  0.89152633  0.83333333  1
  B  B18  1  0.10847367  0.77514033  0.83333333  1
  B  B19  1  0.66666667  0.33333333  0.83333333  1
  B  B20  1  0.89152633  0.66666667  0.16666667  1
  B  B21  1  0.33333333  0.22485967  0.16666667  1
  B  B22  1  0.77514033  0.10847367  0.16666667  1
  B  B23  1  0.33333333  0.66666667  0.16666667  1
  O  O24  1  0.69979367  0.14684733  0.52589133  1
  O  O25  1  0.30020633  0.44705367  0.47410867  1
  O  O26  1  0.14684733  0.69979367  0.47410867  1
  O  O27  1  0.55294633  0.85315267  0.47410867  1
  O  O28  1  0.85144500  0.85144500  0.50000000  1
  O  O29  1  0.00000000  0.14855500  0.50000000  1
  O  O30  1  0.14855500  0.00000000  0.50000000  1
  O  O31  1  0.59046000  0.59046000  0.50000000  1
  O  O32  1  0.00000000  0.40954000  0.50000000  1
  O  O33  1  0.40954000  0.00000000  0.50000000  1
  O  O34  1  0.44705367  0.30020633  0.52589133  1
  O  O35  1  0.85315267  0.55294633  0.52589133  1
  O  O36  1  0.36646033  0.48018067  0.85922467  1
  O  O37  1  0.96687300  0.78038700  0.80744200  1
  O  O38  1  0.81351400  0.03312700  0.80744200  1
  O  O39  1  0.21961300  0.18648600  0.80744200  1
  O  O40  1  0.51811167  0.18477833  0.83333333  1
  O  O41  1  0.66666667  0.48188833  0.83333333  1
  O  O42  1  0.81522167  0.33333333  0.83333333  1
  O  O43  1  0.25712667  0.92379333  0.83333333  1
  O  O44  1  0.66666667  0.74287333  0.83333333  1
  O  O45  1  0.07620667  0.33333333  0.83333333  1
  O  O46  1  0.11372033  0.63353967  0.85922467  1
  O  O47  1  0.51981933  0.88627967  0.85922467  1
  O  O48  1  0.03312700  0.81351400  0.19255800  1
  O  O49  1  0.63353967  0.11372033  0.14077533  1
  O  O50  1  0.48018067  0.36646033  0.14077533  1
  O  O51  1  0.88627967  0.51981933  0.14077533  1
  O  O52  1  0.18477833  0.51811167  0.16666667  1
  O  O53  1  0.33333333  0.81522167  0.16666667  1
  O  O54  1  0.48188833  0.66666667  0.16666667  1
  O  O55  1  0.92379333  0.25712667  0.16666667  1
  O  O56  1  0.33333333  0.07620667  0.16666667  1
  O  O57  1  0.74287333  0.66666667  0.16666667  1
  O  O58  1  0.78038700  0.96687300  0.19255800  1
  O  O59  1  0.18648600  0.21961300  0.19255800  1
