# generated using pymatgen
data_Li3Mo4P5O24
_symmetry_space_group_name_H-M   'P 1'
_cell_length_a   16.70189000
_cell_length_b   8.59481800
_cell_length_c   15.41986539
_cell_angle_alpha   90.00000000
_cell_angle_beta   118.13991904
_cell_angle_gamma   90.00000000
_symmetry_Int_Tables_number   1
_chemical_formula_structural   Li3Mo4P5O24
_chemical_formula_sum   'Li12 Mo16 P20 O96'
_cell_volume   1951.87605588
_cell_formula_units_Z   4
loop_
 _symmetry_equiv_pos_site_id
 _symmetry_equiv_pos_as_xyz
  1  'x, y, z'
loop_
 _atom_site_type_symbol
 _atom_site_label
 _atom_site_symmetry_multiplicity
 _atom_site_fract_x
 _atom_site_fract_y
 _atom_site_fract_z
 _atom_site_occupancy
  Li  Li0  1  0.03700750  0.01448350  0.02944500  1
  Li  Li1  1  0.34097150  0.98461950  0.26335200  1
  Li  Li2  1  0.16049650  0.47634750  0.24847000  1
  Li  Li3  1  0.66049650  0.02365250  0.74847000  1
  Li  Li4  1  0.84097150  0.51538050  0.76335200  1
  Li  Li5  1  0.53700750  0.48551650  0.52944500  1
  Li  Li6  1  0.53700750  0.51448350  0.02944500  1
  Li  Li7  1  0.84097150  0.48461950  0.26335200  1
  Li  Li8  1  0.66049650  0.97634750  0.24847000  1
  Li  Li9  1  0.16049650  0.52365250  0.74847000  1
  Li  Li10  1  0.34097150  0.01538050  0.76335200  1
  Li  Li11  1  0.03700750  0.98551650  0.52944500  1
  Mo  Mo12  1  0.16857050  0.81611050  0.32083500  1
  Mo  Mo13  1  0.82998900  0.18039900  0.68070400  1
  Mo  Mo14  1  0.39977200  0.19331000  0.52176600  1
  Mo  Mo15  1  0.59480300  0.19528200  0.97760800  1
  Mo  Mo16  1  0.32998900  0.31960100  0.18070400  1
  Mo  Mo17  1  0.59480300  0.80471800  0.47760800  1
  Mo  Mo18  1  0.66857050  0.68388950  0.82083500  1
  Mo  Mo19  1  0.39977200  0.80669000  0.02176600  1
  Mo  Mo20  1  0.66857050  0.31611050  0.32083500  1
  Mo  Mo21  1  0.32998900  0.68039900  0.68070400  1
  Mo  Mo22  1  0.89977200  0.69331000  0.52176600  1
  Mo  Mo23  1  0.09480300  0.69528200  0.97760800  1
  Mo  Mo24  1  0.82998900  0.81960100  0.18070400  1
  Mo  Mo25  1  0.09480300  0.30471800  0.47760800  1
  Mo  Mo26  1  0.16857050  0.18388950  0.82083500  1
  Mo  Mo27  1  0.89977200  0.30669000  0.02176600  1
  P  P28  1  0.49133200  0.17705600  0.10799100  1
  P  P29  1  0.25782150  0.49637650  0.46077000  1
  P  P30  1  0.49133200  0.82294400  0.60799100  1
  P  P31  1  0.50720800  0.17514500  0.39519900  1
  P  P32  1  0.75782150  0.00362350  0.96077000  1
  P  P33  1  0.49906700  0.60225600  0.24851300  1
  P  P34  1  0.23944850  0.99903350  0.04230700  1
  P  P35  1  0.49906700  0.39774400  0.74851300  1
  P  P36  1  0.73944850  0.50096650  0.54230700  1
  P  P37  1  0.50720800  0.82485500  0.89519900  1
  P  P38  1  0.99133200  0.67705600  0.10799100  1
  P  P39  1  0.75782150  0.99637650  0.46077000  1
  P  P40  1  0.99133200  0.32294400  0.60799100  1
  P  P41  1  0.00720800  0.67514500  0.39519900  1
  P  P42  1  0.25782150  0.50362350  0.96077000  1
  P  P43  1  0.99906700  0.10225600  0.24851300  1
  P  P44  1  0.73944850  0.49903350  0.04230700  1
  P  P45  1  0.99906700  0.89774400  0.74851300  1
  P  P46  1  0.23944850  0.00096650  0.54230700  1
  P  P47  1  0.00720800  0.32485500  0.89519900  1
  O  O48  1  0.14524550  0.92725450  0.01660300  1
  O  O49  1  0.47707100  0.00388100  0.07958600  1
  O  O50  1  0.51501100  0.99844900  0.41686200  1
  O  O51  1  0.48551400  0.70650300  0.16130200  1
  O  O52  1  0.66794250  0.87525150  0.59154600  1
  O  O53  1  0.83052150  0.37621350  0.90585100  1
  O  O54  1  0.47707100  0.99611900  0.57958600  1
  O  O55  1  0.49745700  0.26724400  0.47782700  1
  O  O56  1  0.48551400  0.29349700  0.66130200  1
  O  O57  1  0.58270100  0.17395900  0.20728100  1
  O  O58  1  0.25787000  0.37577600  0.22782600  1
  O  O59  1  0.25718150  0.41397250  0.04594100  1
  O  O60  1  0.31327650  0.13121550  0.57724200  1
  O  O61  1  0.23727000  0.60629800  0.37228400  1
  O  O62  1  0.31327650  0.86878450  0.07724200  1
  O  O63  1  0.41319300  0.50687000  0.22610400  1
  O  O64  1  0.76372450  0.39461250  0.63124600  1
  O  O65  1  0.41395000  0.75551100  0.61923200  1
  O  O66  1  0.33052150  0.12378650  0.40585100  1
  O  O67  1  0.49745700  0.73275600  0.97782700  1
  O  O68  1  0.64524550  0.57274550  0.51660300  1
  O  O69  1  0.67953500  0.87458100  0.41994500  1
  O  O70  1  0.41319300  0.49313000  0.72610400  1
  O  O71  1  0.50516200  0.72842200  0.52976000  1
  O  O72  1  0.16794250  0.62474850  0.09154600  1
  O  O73  1  0.74087900  0.62948600  0.77540900  1
  O  O74  1  0.41642200  0.81896800  0.79681600  1
  O  O75  1  0.41395000  0.24448900  0.11923200  1
  O  O76  1  0.51819300  0.70179000  0.33932500  1
  O  O77  1  0.73727000  0.89370200  0.87228400  1
  O  O78  1  0.23824750  0.91515750  0.45502700  1
  O  O79  1  0.67953500  0.12541900  0.91994500  1
  O  O80  1  0.58750200  0.24115300  0.38711800  1
  O  O81  1  0.35010150  0.41835850  0.49072500  1
  O  O82  1  0.57935200  0.49361300  0.26670400  1
  O  O83  1  0.41642200  0.18103200  0.29681600  1
  O  O84  1  0.57935200  0.50638700  0.76670400  1
  O  O85  1  0.26372450  0.10538750  0.13124600  1
  O  O86  1  0.58270100  0.82604100  0.70728100  1
  O  O87  1  0.51819300  0.29821000  0.83932500  1
  O  O88  1  0.75787000  0.12422400  0.72782600  1
  O  O89  1  0.24087900  0.87051400  0.27540900  1
  O  O90  1  0.75718150  0.08602750  0.54594100  1
  O  O91  1  0.51501100  0.00155100  0.91686200  1
  O  O92  1  0.58750200  0.75884700  0.88711800  1
  O  O93  1  0.50516200  0.27157800  0.02976000  1
  O  O94  1  0.85010150  0.08164150  0.99072500  1
  O  O95  1  0.73824750  0.58484250  0.95502700  1
  O  O96  1  0.64524550  0.42725450  0.01660300  1
  O  O97  1  0.97707100  0.50388100  0.07958600  1
  O  O98  1  0.01501100  0.49844900  0.41686200  1
  O  O99  1  0.98551400  0.20650300  0.16130200  1
  O  O100  1  0.16794250  0.37525150  0.59154600  1
  O  O101  1  0.33052150  0.87621350  0.90585100  1
  O  O102  1  0.97707100  0.49611900  0.57958600  1
  O  O103  1  0.99745700  0.76724400  0.47782700  1
  O  O104  1  0.98551400  0.79349700  0.66130200  1
  O  O105  1  0.08270100  0.67395900  0.20728100  1
  O  O106  1  0.75787000  0.87577600  0.22782600  1
  O  O107  1  0.75718150  0.91397250  0.04594100  1
  O  O108  1  0.81327650  0.63121550  0.57724200  1
  O  O109  1  0.73727000  0.10629800  0.37228400  1
  O  O110  1  0.81327650  0.36878450  0.07724200  1
  O  O111  1  0.91319300  0.00687000  0.22610400  1
  O  O112  1  0.26372450  0.89461250  0.63124600  1
  O  O113  1  0.91395000  0.25551100  0.61923200  1
  O  O114  1  0.83052150  0.62378650  0.40585100  1
  O  O115  1  0.99745700  0.23275600  0.97782700  1
  O  O116  1  0.14524550  0.07274550  0.51660300  1
  O  O117  1  0.17953500  0.37458100  0.41994500  1
  O  O118  1  0.91319300  0.99313000  0.72610400  1
  O  O119  1  0.00516200  0.22842200  0.52976000  1
  O  O120  1  0.66794250  0.12474850  0.09154600  1
  O  O121  1  0.24087900  0.12948600  0.77540900  1
  O  O122  1  0.91642200  0.31896800  0.79681600  1
  O  O123  1  0.91395000  0.74448900  0.11923200  1
  O  O124  1  0.01819300  0.20179000  0.33932500  1
  O  O125  1  0.23727000  0.39370200  0.87228400  1
  O  O126  1  0.73824750  0.41515750  0.45502700  1
  O  O127  1  0.17953500  0.62541900  0.91994500  1
  O  O128  1  0.08750200  0.74115300  0.38711800  1
  O  O129  1  0.85010150  0.91835850  0.49072500  1
  O  O130  1  0.07935200  0.99361300  0.26670400  1
  O  O131  1  0.91642200  0.68103200  0.29681600  1
  O  O132  1  0.07935200  0.00638700  0.76670400  1
  O  O133  1  0.76372450  0.60538750  0.13124600  1
  O  O134  1  0.08270100  0.32604100  0.70728100  1
  O  O135  1  0.01819300  0.79821000  0.83932500  1
  O  O136  1  0.25787000  0.62422400  0.72782600  1
  O  O137  1  0.74087900  0.37051400  0.27540900  1
  O  O138  1  0.25718150  0.58602750  0.54594100  1
  O  O139  1  0.01501100  0.50155100  0.91686200  1
  O  O140  1  0.08750200  0.25884700  0.88711800  1
  O  O141  1  0.00516200  0.77157800  0.02976000  1
  O  O142  1  0.35010150  0.58164150  0.99072500  1
  O  O143  1  0.23824750  0.08484250  0.95502700  1
