# generated using pymatgen
data_Na3Ni2P2(CO7)2
_symmetry_space_group_name_H-M   'P 1'
_cell_length_a   8.27328100
_cell_length_b   8.28453790
_cell_length_c   9.00944988
_cell_angle_alpha   90.97385725
_cell_angle_beta   91.10684160
_cell_angle_gamma   102.89364966
_symmetry_Int_Tables_number   1
_chemical_formula_structural   Na3Ni2P2(CO7)2
_chemical_formula_sum   'Na6 Ni4 P4 C4 O28'
_cell_volume   601.68438675
_cell_formula_units_Z   2
loop_
 _symmetry_equiv_pos_site_id
 _symmetry_equiv_pos_as_xyz
  1  'x, y, z'
loop_
 _atom_site_type_symbol
 _atom_site_label
 _atom_site_symmetry_multiplicity
 _atom_site_fract_x
 _atom_site_fract_y
 _atom_site_fract_z
 _atom_site_occupancy
  Na  Na0  1  0.38113800  0.36813300  0.24718000  1
  Na  Na1  1  0.63077100  0.12936000  0.23686000  1
  Na  Na2  1  0.10864000  0.65873900  0.25620600  1
  Na  Na3  1  0.37739600  0.86599500  0.75326900  1
  Na  Na4  1  0.61915200  0.61938900  0.76018600  1
  Na  Na5  1  0.09188600  0.14111000  0.74836900  1
  Ni  Ni6  1  0.98370300  0.22994300  0.35050100  1
  Ni  Ni7  1  0.48670100  0.73019700  0.34744400  1
  Ni  Ni8  1  0.01726000  0.76417000  0.64725400  1
  Ni  Ni9  1  0.52233500  0.26566200  0.65397000  1
  P  P10  1  0.76486300  0.50907400  0.42956100  1
  P  P11  1  0.27161200  0.02265800  0.42574500  1
  P  P12  1  0.73224200  0.97836100  0.57226400  1
  P  P13  1  0.23546700  0.48535300  0.57211200  1
  C  C14  1  0.51626400  0.76241600  0.07930900  1
  C  C15  1  0.01619000  0.27274100  0.08236900  1
  C  C16  1  0.98714600  0.73458000  0.91771300  1
  C  C17  1  0.47946400  0.23368400  0.92059300  1
  O  O18  1  0.96890500  0.71728500  0.05385700  1
  O  O19  1  0.46136300  0.21395900  0.05704800  1
  O  O20  1  0.40206500  0.65088400  0.13985900  1
  O  O21  1  0.90502800  0.15558100  0.13644300  1
  O  O22  1  0.61328100  0.85399500  0.17717500  1
  O  O23  1  0.10559800  0.37012500  0.18302200  1
  O  O24  1  0.32800900  0.89060700  0.32922700  1
  O  O25  1  0.81854200  0.37685200  0.33049900  1
  O  O26  1  0.63024400  0.56094000  0.33198800  1
  O  O27  1  0.15087500  0.09033900  0.32477500  1
  O  O28  1  0.80195000  0.05490100  0.42725200  1
  O  O29  1  0.30258200  0.55468400  0.42111600  1
  O  O30  1  0.91518200  0.65558000  0.46164500  1
  O  O31  1  0.42482600  0.16878800  0.46193900  1
  O  O32  1  0.58515800  0.82602300  0.53729900  1
  O  O33  1  0.09017200  0.33400900  0.53815300  1
  O  O34  1  0.19469500  0.95362200  0.57232400  1
  O  O35  1  0.69697900  0.44213400  0.57964300  1
  O  O36  1  0.86336700  0.92141100  0.67067300  1
  O  O37  1  0.18259600  0.62066900  0.66658700  1
  O  O38  1  0.66569500  0.09804400  0.67543300  1
  O  O39  1  0.36900700  0.43182300  0.66971400  1
  O  O40  1  0.89349700  0.63892600  0.82051900  1
  O  O41  1  0.38427200  0.14229500  0.81943600  1
  O  O42  1  0.59470600  0.34498900  0.86365500  1
  O  O43  1  0.10038300  0.84923600  0.86062500  1
  O  O44  1  0.52976900  0.77889900  0.94207100  1
  O  O45  1  0.03917900  0.29167900  0.94711900  1
