# generated using pymatgen
data_Li6Ti2O7
_symmetry_space_group_name_H-M   'P 1'
_cell_length_a   10.07393200
_cell_length_b   5.79745200
_cell_length_c   9.78877338
_cell_angle_alpha   90.00000000
_cell_angle_beta   101.27858191
_cell_angle_gamma   90.00000000
_symmetry_Int_Tables_number   1
_chemical_formula_structural   Li6Ti2O7
_chemical_formula_sum   'Li24 Ti8 O28'
_cell_volume   560.65440688
_cell_formula_units_Z   4
loop_
 _symmetry_equiv_pos_site_id
 _symmetry_equiv_pos_as_xyz
  1  'x, y, z'
loop_
 _atom_site_type_symbol
 _atom_site_label
 _atom_site_symmetry_multiplicity
 _atom_site_fract_x
 _atom_site_fract_y
 _atom_site_fract_z
 _atom_site_occupancy
  Li  Li0  1  0.79590350  0.12581050  0.61322600  1
  Li  Li1  1  0.79590350  0.87418950  0.11322600  1
  Li  Li2  1  0.56429350  0.35722950  0.59665800  1
  Li  Li3  1  0.57090350  0.90005450  0.61043500  1
  Li  Li4  1  0.56429350  0.64277050  0.09665800  1
  Li  Li5  1  0.57090350  0.09994550  0.11043500  1
  Li  Li6  1  0.92909650  0.40005450  0.88956500  1
  Li  Li7  1  0.93570650  0.85722950  0.90334200  1
  Li  Li8  1  0.92909650  0.59994550  0.38956500  1
  Li  Li9  1  0.93570650  0.14277050  0.40334200  1
  Li  Li10  1  0.70409650  0.62581050  0.88677400  1
  Li  Li11  1  0.70409650  0.37418950  0.38677400  1
  Li  Li12  1  0.29590350  0.62581050  0.61322600  1
  Li  Li13  1  0.29590350  0.37418950  0.11322600  1
  Li  Li14  1  0.06429350  0.85722950  0.59665800  1
  Li  Li15  1  0.07090350  0.40005450  0.61043500  1
  Li  Li16  1  0.06429350  0.14277050  0.09665800  1
  Li  Li17  1  0.07090350  0.59994550  0.11043500  1
  Li  Li18  1  0.42909650  0.90005450  0.88956500  1
  Li  Li19  1  0.43570650  0.35722950  0.90334200  1
  Li  Li20  1  0.42909650  0.09994550  0.38956500  1
  Li  Li21  1  0.43570650  0.64277050  0.40334200  1
  Li  Li22  1  0.20409650  0.12581050  0.88677400  1
  Li  Li23  1  0.20409650  0.87418950  0.38677400  1
  Ti  Ti24  1  0.68395250  0.11241750  0.86906800  1
  Ti  Ti25  1  0.68395250  0.88758250  0.36906800  1
  Ti  Ti26  1  0.81604750  0.61241750  0.63093200  1
  Ti  Ti27  1  0.81604750  0.38758250  0.13093200  1
  Ti  Ti28  1  0.18395250  0.61241750  0.86906800  1
  Ti  Ti29  1  0.18395250  0.38758250  0.36906800  1
  Ti  Ti30  1  0.31604750  0.11241750  0.63093200  1
  Ti  Ti31  1  0.31604750  0.88758250  0.13093200  1
  O  O32  1  0.75170700  0.89319500  0.75045600  1
  O  O33  1  0.63645700  0.63516700  0.50218700  1
  O  O34  1  0.75170700  0.10680500  0.25045600  1
  O  O35  1  0.63645700  0.36483300  0.00218700  1
  O  O36  1  0.62189050  0.88269350  0.97286300  1
  O  O37  1  0.00000000  0.65382100  0.75000000  1
  O  O38  1  0.62189050  0.11730650  0.47286300  1
  O  O39  1  0.87810950  0.38269350  0.52713700  1
  O  O40  1  0.00000000  0.34617900  0.25000000  1
  O  O41  1  0.87810950  0.61730650  0.02713700  1
  O  O42  1  0.86354300  0.13516700  0.99781300  1
  O  O43  1  0.74829300  0.39319500  0.74954400  1
  O  O44  1  0.86354300  0.86483300  0.49781300  1
  O  O45  1  0.74829300  0.60680500  0.24954400  1
  O  O46  1  0.25170700  0.39319500  0.75045600  1
  O  O47  1  0.13645700  0.13516700  0.50218700  1
  O  O48  1  0.25170700  0.60680500  0.25045600  1
  O  O49  1  0.13645700  0.86483300  0.00218700  1
  O  O50  1  0.12189050  0.38269350  0.97286300  1
  O  O51  1  0.50000000  0.15382100  0.75000000  1
  O  O52  1  0.12189050  0.61730650  0.47286300  1
  O  O53  1  0.37810950  0.88269350  0.52713700  1
  O  O54  1  0.50000000  0.84617900  0.25000000  1
  O  O55  1  0.37810950  0.11730650  0.02713700  1
  O  O56  1  0.36354300  0.63516700  0.99781300  1
  O  O57  1  0.24829300  0.89319500  0.74954400  1
  O  O58  1  0.36354300  0.36483300  0.49781300  1
  O  O59  1  0.24829300  0.10680500  0.24954400  1
