# generated using pymatgen
data_RbBrO4
_symmetry_space_group_name_H-M   'P 1'
_cell_length_a   5.81500600
_cell_length_b   5.81500600
_cell_length_c   13.87728800
_cell_angle_alpha   90.00000000
_cell_angle_beta   90.00000000
_cell_angle_gamma   90.00000000
_symmetry_Int_Tables_number   1
_chemical_formula_structural   RbBrO4
_chemical_formula_sum   'Rb4 Br4 O16'
_cell_volume   469.25070718
_cell_formula_units_Z   4
loop_
 _symmetry_equiv_pos_site_id
 _symmetry_equiv_pos_as_xyz
  1  'x, y, z'
loop_
 _atom_site_type_symbol
 _atom_site_label
 _atom_site_symmetry_multiplicity
 _atom_site_fract_x
 _atom_site_fract_y
 _atom_site_fract_z
 _atom_site_occupancy
  Rb  Rb0  1  0.00000000  0.00000000  0.00000000  1
  Rb  Rb1  1  0.00000000  0.50000000  0.25000000  1
  Rb  Rb2  1  0.50000000  0.50000000  0.50000000  1
  Rb  Rb3  1  0.50000000  0.00000000  0.75000000  1
  Br  Br4  1  0.50000000  0.50000000  0.00000000  1
  Br  Br5  1  0.50000000  0.00000000  0.25000000  1
  Br  Br6  1  0.00000000  0.00000000  0.50000000  1
  Br  Br7  1  0.00000000  0.50000000  0.75000000  1
  O  O8  1  0.57689150  0.22028950  0.31765950  1
  O  O9  1  0.07689150  0.22028950  0.43234050  1
  O  O10  1  0.72028950  0.42310850  0.06765950  1
  O  O11  1  0.72028950  0.92310850  0.18234050  1
  O  O12  1  0.27971050  0.07689150  0.18234050  1
  O  O13  1  0.27971050  0.57689150  0.06765950  1
  O  O14  1  0.92310850  0.77971050  0.43234050  1
  O  O15  1  0.42310850  0.77971050  0.31765950  1
  O  O16  1  0.07689150  0.72028950  0.81765950  1
  O  O17  1  0.57689150  0.72028950  0.93234050  1
  O  O18  1  0.22028950  0.92310850  0.56765950  1
  O  O19  1  0.22028950  0.42310850  0.68234050  1
  O  O20  1  0.77971050  0.57689150  0.68234050  1
  O  O21  1  0.77971050  0.07689150  0.56765950  1
  O  O22  1  0.42310850  0.27971050  0.93234050  1
  O  O23  1  0.92310850  0.27971050  0.81765950  1
