# generated using pymatgen
data_LiCuS
_symmetry_space_group_name_H-M   'P 1'
_cell_length_a   8.57375708
_cell_length_b   8.60796248
_cell_length_c   6.96750604
_cell_angle_alpha   90.00000000
_cell_angle_beta   127.80044448
_cell_angle_gamma   90.00000000
_symmetry_Int_Tables_number   1
_chemical_formula_structural   LiCuS
_chemical_formula_sum   'Li8 Cu8 S8'
_cell_volume   406.31099964
_cell_formula_units_Z   8
loop_
 _symmetry_equiv_pos_site_id
 _symmetry_equiv_pos_as_xyz
  1  'x, y, z'
loop_
 _atom_site_type_symbol
 _atom_site_label
 _atom_site_symmetry_multiplicity
 _atom_site_fract_x
 _atom_site_fract_y
 _atom_site_fract_z
 _atom_site_occupancy
  Li  Li0  1  0.35917848  0.37462266  0.97209818  1
  Li  Li1  1  0.35917848  0.62537734  0.47209818  1
  Li  Li2  1  0.14434044  0.87780581  0.53412329  1
  Li  Li3  1  0.14434044  0.12219419  0.03412329  1
  Li  Li4  1  0.85917848  0.87462266  0.97209818  1
  Li  Li5  1  0.85917848  0.12537734  0.47209818  1
  Li  Li6  1  0.64434044  0.37780581  0.53412329  1
  Li  Li7  1  0.64434044  0.62219419  0.03412329  1
  Cu  Cu8  1  0.49507780  0.99925639  0.49697161  1
  Cu  Cu9  1  0.75357450  0.25235645  0.00306752  1
  Cu  Cu10  1  0.25357450  0.24764355  0.50306752  1
  Cu  Cu11  1  0.49507780  0.00074361  0.99697161  1
  Cu  Cu12  1  0.99507780  0.49925639  0.49697161  1
  Cu  Cu13  1  0.25357450  0.75235645  0.00306752  1
  Cu  Cu14  1  0.75357450  0.74764355  0.50306752  1
  Cu  Cu15  1  0.99507780  0.50074361  0.99697161  1
  S  S16  1  0.50201907  0.39778593  0.75343070  1
  S  S17  1  0.00204398  0.35256447  0.75426722  1
  S  S18  1  0.00201907  0.10221407  0.25343070  1
  S  S19  1  0.50204398  0.14743553  0.25426722  1
  S  S20  1  0.00201907  0.89778593  0.75343070  1
  S  S21  1  0.50204398  0.85256447  0.75426722  1
  S  S22  1  0.50201907  0.60221407  0.25343070  1
  S  S23  1  0.00204398  0.64743553  0.25426722  1
