# generated using pymatgen
data_Mn6OF11
_symmetry_space_group_name_H-M   'P 1'
_cell_length_a   5.26070400
_cell_length_b   5.28476500
_cell_length_c   15.76515735
_cell_angle_alpha   90.00000000
_cell_angle_beta   92.81483385
_cell_angle_gamma   90.00000000
_symmetry_Int_Tables_number   1
_chemical_formula_structural   Mn6OF11
_chemical_formula_sum   'Mn12 O2 F22'
_cell_volume   437.76752858
_cell_formula_units_Z   2
loop_
 _symmetry_equiv_pos_site_id
 _symmetry_equiv_pos_as_xyz
  1  'x, y, z'
loop_
 _atom_site_type_symbol
 _atom_site_label
 _atom_site_symmetry_multiplicity
 _atom_site_fract_x
 _atom_site_fract_y
 _atom_site_fract_z
 _atom_site_occupancy
  Mn  Mn0  1  0.00000000  0.95386100  0.00000000  1
  Mn  Mn1  1  0.51504900  0.01587300  0.83264000  1
  Mn  Mn2  1  0.00479500  0.01714500  0.66776100  1
  Mn  Mn3  1  0.50000000  0.00708500  0.50000000  1
  Mn  Mn4  1  0.99520500  0.01714500  0.33223900  1
  Mn  Mn5  1  0.48495100  0.01587300  0.16736000  1
  Mn  Mn6  1  0.02479500  0.50993900  0.84046600  1
  Mn  Mn7  1  0.50000000  0.54211600  0.00000000  1
  Mn  Mn8  1  0.49434600  0.52766100  0.33230700  1
  Mn  Mn9  1  0.00000000  0.50313900  0.50000000  1
  Mn  Mn10  1  0.50565400  0.52766100  0.66769300  1
  Mn  Mn11  1  0.97520500  0.50993900  0.15953400  1
  O  O12  1  0.21608600  0.74176500  0.93942800  1
  O  O13  1  0.78391400  0.74176500  0.06057200  1
  F  F14  1  0.77773900  0.78138900  0.73950600  1
  F  F15  1  0.76828600  0.77705400  0.40794100  1
  F  F16  1  0.23171400  0.77705400  0.59205900  1
  F  F17  1  0.22226100  0.78138900  0.26049400  1
  F  F18  1  0.69621900  0.68597400  0.89358000  1
  F  F19  1  0.28147200  0.73521700  0.76225100  1
  F  F20  1  0.27354000  0.72545600  0.42753900  1
  F  F21  1  0.30378100  0.68597400  0.10642000  1
  F  F22  1  0.71852800  0.73521700  0.23774900  1
  F  F23  1  0.72646000  0.72545600  0.57246100  1
  F  F24  1  0.65495800  0.26925000  0.07286900  1
  F  F25  1  0.73147100  0.27699300  0.41094400  1
  F  F26  1  0.71734700  0.28108100  0.75065700  1
  F  F27  1  0.34504200  0.26925000  0.92713100  1
  F  F28  1  0.26852900  0.27699300  0.58905600  1
  F  F29  1  0.28265300  0.28108100  0.24934300  1
  F  F30  1  0.77000800  0.23038800  0.57913000  1
  F  F31  1  0.84593900  0.18634000  0.90910300  1
  F  F32  1  0.78398600  0.23537400  0.23854300  1
  F  F33  1  0.22999200  0.23038800  0.42087000  1
  F  F34  1  0.15406100  0.18634000  0.09089700  1
  F  F35  1  0.21601400  0.23537400  0.76145700  1
