# generated using pymatgen
data_K3SiTe3
_symmetry_space_group_name_H-M   'P 1'
_cell_length_a   9.79072000
_cell_length_b   13.91127400
_cell_length_c   8.98214734
_cell_angle_alpha   90.00000000
_cell_angle_beta   117.34209584
_cell_angle_gamma   90.00000000
_symmetry_Int_Tables_number   1
_chemical_formula_structural   K3SiTe3
_chemical_formula_sum   'K12 Si4 Te12'
_cell_volume   1086.70484339
_cell_formula_units_Z   4
loop_
 _symmetry_equiv_pos_site_id
 _symmetry_equiv_pos_as_xyz
  1  'x, y, z'
loop_
 _atom_site_type_symbol
 _atom_site_label
 _atom_site_symmetry_multiplicity
 _atom_site_fract_x
 _atom_site_fract_y
 _atom_site_fract_z
 _atom_site_occupancy
  K  K0  1  0.20610000  0.00000000  0.67595200  1
  K  K1  1  0.25000000  0.25000000  0.00000000  1
  K  K2  1  0.50000000  0.84198200  0.50000000  1
  K  K3  1  0.50000000  0.15801800  0.50000000  1
  K  K4  1  0.25000000  0.75000000  0.00000000  1
  K  K5  1  0.79390000  0.00000000  0.32404800  1
  K  K6  1  0.70610000  0.50000000  0.67595200  1
  K  K7  1  0.75000000  0.75000000  0.00000000  1
  K  K8  1  0.00000000  0.34198200  0.50000000  1
  K  K9  1  0.00000000  0.65801800  0.50000000  1
  K  K10  1  0.75000000  0.25000000  0.00000000  1
  K  K11  1  0.29390000  0.50000000  0.32404800  1
  Si  Si12  1  0.10722900  0.00000000  0.13875700  1
  Si  Si13  1  0.89277100  0.00000000  0.86124300  1
  Si  Si14  1  0.60722900  0.50000000  0.13875700  1
  Si  Si15  1  0.39277100  0.50000000  0.86124300  1
  Te  Te16  1  0.63986000  0.00000000  0.87890000  1
  Te  Te17  1  0.36014000  0.00000000  0.12110000  1
  Te  Te18  1  0.40148200  0.64904000  0.70231400  1
  Te  Te19  1  0.59851800  0.64904000  0.29768600  1
  Te  Te20  1  0.59851800  0.35096000  0.29768600  1
  Te  Te21  1  0.40148200  0.35096000  0.70231400  1
  Te  Te22  1  0.13986000  0.50000000  0.87890000  1
  Te  Te23  1  0.86014000  0.50000000  0.12110000  1
  Te  Te24  1  0.90148200  0.14904000  0.70231400  1
  Te  Te25  1  0.09851800  0.14904000  0.29768600  1
  Te  Te26  1  0.09851800  0.85096000  0.29768600  1
  Te  Te27  1  0.90148200  0.85096000  0.70231400  1
