# generated using pymatgen
data_SrPHO4
_symmetry_space_group_name_H-M   'P 1'
_cell_length_a   8.19401200
_cell_length_b   9.42839400
_cell_length_c   18.27578000
_cell_angle_alpha   90.00000000
_cell_angle_beta   90.00000000
_cell_angle_gamma   90.00000000
_symmetry_Int_Tables_number   1
_chemical_formula_structural   SrPHO4
_chemical_formula_sum   'Sr16 P16 H16 O64'
_cell_volume   1411.92048709
_cell_formula_units_Z   16
loop_
 _symmetry_equiv_pos_site_id
 _symmetry_equiv_pos_as_xyz
  1  'x, y, z'
loop_
 _atom_site_type_symbol
 _atom_site_label
 _atom_site_symmetry_multiplicity
 _atom_site_fract_x
 _atom_site_fract_y
 _atom_site_fract_z
 _atom_site_occupancy
  Sr  Sr0  1  0.62154000  0.32105900  0.37486300  1
  Sr  Sr1  1  0.12154000  0.17894100  0.62513700  1
  Sr  Sr2  1  0.37846000  0.82105900  0.12513700  1
  Sr  Sr3  1  0.87846000  0.67894100  0.87486300  1
  Sr  Sr4  1  0.37846000  0.67894100  0.62513700  1
  Sr  Sr5  1  0.87846000  0.82105900  0.37486300  1
  Sr  Sr6  1  0.62154000  0.17894100  0.87486300  1
  Sr  Sr7  1  0.12154000  0.32105900  0.12513700  1
  Sr  Sr8  1  0.36942500  0.68249000  0.38256700  1
  Sr  Sr9  1  0.86942500  0.81751000  0.61743300  1
  Sr  Sr10  1  0.63057500  0.18249000  0.11743300  1
  Sr  Sr11  1  0.13057500  0.31751000  0.88256700  1
  Sr  Sr12  1  0.63057500  0.31751000  0.61743300  1
  Sr  Sr13  1  0.13057500  0.18249000  0.38256700  1
  Sr  Sr14  1  0.36942500  0.81751000  0.88256700  1
  Sr  Sr15  1  0.86942500  0.68249000  0.11743300  1
  P  P16  1  0.75168500  0.07939800  0.49584100  1
  P  P17  1  0.25168500  0.42060200  0.50415900  1
  P  P18  1  0.24831500  0.57939800  0.00415900  1
  P  P19  1  0.74831500  0.92060200  0.99584100  1
  P  P20  1  0.24831500  0.92060200  0.50415900  1
  P  P21  1  0.74831500  0.57939800  0.49584100  1
  P  P22  1  0.75168500  0.42060200  0.99584100  1
  P  P23  1  0.25168500  0.07939800  0.00415900  1
  P  P24  1  0.01784100  0.47860600  0.29420600  1
  P  P25  1  0.51784100  0.02139400  0.70579400  1
  P  P26  1  0.98215900  0.97860600  0.20579400  1
  P  P27  1  0.48215900  0.52139400  0.79420600  1
  P  P28  1  0.98215900  0.52139400  0.70579400  1
  P  P29  1  0.48215900  0.97860600  0.29420600  1
  P  P30  1  0.01784100  0.02139400  0.79420600  1
  P  P31  1  0.51784100  0.47860600  0.20579400  1
  H  H32  1  0.58570200  0.88691500  0.49642500  1
  H  H33  1  0.08570200  0.61308500  0.50357500  1
  H  H34  1  0.41429800  0.38691500  0.00357500  1
  H  H35  1  0.91429800  0.11308500  0.99642500  1
  H  H36  1  0.41429800  0.11308500  0.50357500  1
  H  H37  1  0.91429800  0.38691500  0.49642500  1
  H  H38  1  0.58570200  0.61308500  0.99642500  1
  H  H39  1  0.08570200  0.88691500  0.00357500  1
  H  H40  1  0.28586000  0.42388200  0.28119300  1
  H  H41  1  0.78586000  0.07611800  0.71880700  1
  H  H42  1  0.71414000  0.92388200  0.21880700  1
  H  H43  1  0.21414000  0.57611800  0.78119300  1
  H  H44  1  0.71414000  0.57611800  0.71880700  1
  H  H45  1  0.21414000  0.92388200  0.28119300  1
  H  H46  1  0.28586000  0.07611800  0.78119300  1
  H  H47  1  0.78586000  0.42388200  0.21880700  1
  O  O48  1  0.59020200  0.16417700  0.49651200  1
  O  O49  1  0.09020200  0.33582300  0.50348800  1
  O  O50  1  0.40979800  0.66417700  0.00348800  1
  O  O51  1  0.90979800  0.83582300  0.99651200  1
  O  O52  1  0.40979800  0.83582300  0.50348800  1
  O  O53  1  0.90979800  0.66417700  0.49651200  1
  O  O54  1  0.59020200  0.33582300  0.99651200  1
  O  O55  1  0.09020200  0.16417700  0.00348800  1
  O  O56  1  0.84648800  0.10399000  0.42456300  1
  O  O57  1  0.34648800  0.39601000  0.57543700  1
  O  O58  1  0.15351200  0.60399000  0.07543700  1
  O  O59  1  0.65351200  0.89601000  0.92456300  1
  O  O60  1  0.15351200  0.89601000  0.57543700  1
  O  O61  1  0.65351200  0.60399000  0.42456300  1
  O  O62  1  0.84648800  0.39601000  0.92456300  1
  O  O63  1  0.34648800  0.10399000  0.07543700  1
  O  O64  1  0.84921800  0.10581900  0.56640000  1
  O  O65  1  0.34921800  0.39418100  0.43360000  1
  O  O66  1  0.15078200  0.60581900  0.93360000  1
  O  O67  1  0.65078200  0.89418100  0.06640000  1
  O  O68  1  0.15078200  0.89418100  0.43360000  1
  O  O69  1  0.65078200  0.60581900  0.56640000  1
  O  O70  1  0.84921800  0.39418100  0.06640000  1
  O  O71  1  0.34921800  0.10581900  0.93360000  1
  O  O72  1  0.70864600  0.91194400  0.49744100  1
  O  O73  1  0.20864600  0.58805600  0.50255900  1
  O  O74  1  0.29135400  0.41194400  0.00255900  1
  O  O75  1  0.79135400  0.08805600  0.99744100  1
  O  O76  1  0.29135400  0.08805600  0.50255900  1
  O  O77  1  0.79135400  0.41194400  0.49744100  1
  O  O78  1  0.70864600  0.58805600  0.99744100  1
  O  O79  1  0.20864600  0.91194400  0.00255900  1
  O  O80  1  0.07647400  0.61883700  0.32750900  1
  O  O81  1  0.57647400  0.88116300  0.67249100  1
  O  O82  1  0.92352600  0.11883700  0.17249100  1
  O  O83  1  0.42352600  0.38116300  0.82750900  1
  O  O84  1  0.92352600  0.38116300  0.67249100  1
  O  O85  1  0.42352600  0.11883700  0.32750900  1
  O  O86  1  0.07647400  0.88116300  0.82750900  1
  O  O87  1  0.57647400  0.61883700  0.17249100  1
  O  O88  1  0.17192200  0.37415300  0.27893200  1
  O  O89  1  0.67192200  0.12584700  0.72106800  1
  O  O90  1  0.82807800  0.87415300  0.22106800  1
  O  O91  1  0.32807800  0.62584700  0.77893200  1
  O  O92  1  0.82807800  0.62584700  0.72106800  1
  O  O93  1  0.32807800  0.87415300  0.27893200  1
  O  O94  1  0.17192200  0.12584700  0.77893200  1
  O  O95  1  0.67192200  0.37415300  0.22106800  1
  O  O96  1  0.94159100  0.49932600  0.21663400  1
  O  O97  1  0.44159100  0.00067400  0.78336600  1
  O  O98  1  0.05840900  0.99932600  0.28336600  1
  O  O99  1  0.55840900  0.50067400  0.71663400  1
  O  O100  1  0.05840900  0.50067400  0.78336600  1
  O  O101  1  0.55840900  0.99932600  0.21663400  1
  O  O102  1  0.94159100  0.00067400  0.71663400  1
  O  O103  1  0.44159100  0.49932600  0.28336600  1
  O  O104  1  0.90913100  0.38774600  0.34301400  1
  O  O105  1  0.40913100  0.11225400  0.65698600  1
  O  O106  1  0.09086900  0.88774600  0.15698600  1
  O  O107  1  0.59086900  0.61225400  0.84301400  1
  O  O108  1  0.09086900  0.61225400  0.65698600  1
  O  O109  1  0.59086900  0.88774600  0.34301400  1
  O  O110  1  0.90913100  0.11225400  0.84301400  1
  O  O111  1  0.40913100  0.38774600  0.15698600  1
