# generated using pymatgen
data_HoSO
_symmetry_space_group_name_H-M   'P 1'
_cell_length_a   5.65642000
_cell_length_b   12.46643400
_cell_length_c   5.64854900
_cell_angle_alpha   90.00000000
_cell_angle_beta   90.00000000
_cell_angle_gamma   90.00000000
_symmetry_Int_Tables_number   1
_chemical_formula_structural   HoSO
_chemical_formula_sum   'Ho8 S8 O8'
_cell_volume   398.30961650
_cell_formula_units_Z   8
loop_
 _symmetry_equiv_pos_site_id
 _symmetry_equiv_pos_as_xyz
  1  'x, y, z'
loop_
 _atom_site_type_symbol
 _atom_site_label
 _atom_site_symmetry_multiplicity
 _atom_site_fract_x
 _atom_site_fract_y
 _atom_site_fract_z
 _atom_site_occupancy
  Ho  Ho0  1  0.50000000  0.16431300  0.00000000  1
  Ho  Ho1  1  0.50000000  0.33568700  0.50000000  1
  Ho  Ho2  1  0.00000000  0.16431300  0.50000000  1
  Ho  Ho3  1  0.00000000  0.33568700  0.00000000  1
  Ho  Ho4  1  0.00000000  0.66431300  0.00000000  1
  Ho  Ho5  1  0.00000000  0.83568700  0.50000000  1
  Ho  Ho6  1  0.50000000  0.66431300  0.50000000  1
  Ho  Ho7  1  0.50000000  0.83568700  0.00000000  1
  S  S8  1  0.13129800  0.00000000  0.86818500  1
  S  S9  1  0.63129800  0.00000000  0.63181500  1
  S  S10  1  0.86870200  0.00000000  0.13181500  1
  S  S11  1  0.36870200  0.00000000  0.36818500  1
  S  S12  1  0.63129800  0.50000000  0.86818500  1
  S  S13  1  0.13129800  0.50000000  0.63181500  1
  S  S14  1  0.36870200  0.50000000  0.13181500  1
  S  S15  1  0.86870200  0.50000000  0.36818500  1
  O  O16  1  0.25664400  0.25000000  0.75000000  1
  O  O17  1  0.74335600  0.25000000  0.25000000  1
  O  O18  1  0.24335600  0.25000000  0.25000000  1
  O  O19  1  0.75664400  0.25000000  0.75000000  1
  O  O20  1  0.75664400  0.75000000  0.75000000  1
  O  O21  1  0.24335600  0.75000000  0.25000000  1
  O  O22  1  0.74335600  0.75000000  0.25000000  1
  O  O23  1  0.25664400  0.75000000  0.75000000  1
