# generated using pymatgen
data_Li4Zr3O8
_symmetry_space_group_name_H-M   'P 1'
_cell_length_a   5.46528800
_cell_length_b   6.20755500
_cell_length_c   10.19813364
_cell_angle_alpha   90.00000000
_cell_angle_beta   99.74354201
_cell_angle_gamma   90.00000000
_symmetry_Int_Tables_number   1
_chemical_formula_structural   Li4Zr3O8
_chemical_formula_sum   'Li8 Zr6 O16'
_cell_volume   340.99190438
_cell_formula_units_Z   2
loop_
 _symmetry_equiv_pos_site_id
 _symmetry_equiv_pos_as_xyz
  1  'x, y, z'
loop_
 _atom_site_type_symbol
 _atom_site_label
 _atom_site_symmetry_multiplicity
 _atom_site_fract_x
 _atom_site_fract_y
 _atom_site_fract_z
 _atom_site_occupancy
  Li  Li0  1  0.74333100  0.62734500  0.50763000  1
  Li  Li1  1  0.25666900  0.37265500  0.49237000  1
  Li  Li2  1  0.25666900  0.62734500  0.99237000  1
  Li  Li3  1  0.74333100  0.37265500  0.00763000  1
  Li  Li4  1  0.50000000  0.14252800  0.75000000  1
  Li  Li5  1  0.00000000  0.87708300  0.75000000  1
  Li  Li6  1  0.00000000  0.12291700  0.25000000  1
  Li  Li7  1  0.50000000  0.85747200  0.25000000  1
  Zr  Zr8  1  0.73466700  0.13871300  0.48010000  1
  Zr  Zr9  1  0.00000000  0.39688600  0.75000000  1
  Zr  Zr10  1  0.26533300  0.86128700  0.51990000  1
  Zr  Zr11  1  0.00000000  0.60311400  0.25000000  1
  Zr  Zr12  1  0.26533300  0.13871300  0.01990000  1
  Zr  Zr13  1  0.73466700  0.86128700  0.98010000  1
  O  O14  1  0.89835300  0.62684100  0.87541200  1
  O  O15  1  0.10164700  0.62684100  0.62458800  1
  O  O16  1  0.10910300  0.12434700  0.62148800  1
  O  O17  1  0.89089700  0.87565300  0.37851200  1
  O  O18  1  0.37759900  0.10459300  0.38922000  1
  O  O19  1  0.65826000  0.35823800  0.62057700  1
  O  O20  1  0.89089700  0.12434700  0.87851200  1
  O  O21  1  0.62240100  0.89540700  0.61078000  1
  O  O22  1  0.34174000  0.35823800  0.87942300  1
  O  O23  1  0.65826000  0.64176200  0.12057700  1
  O  O24  1  0.34174000  0.64176200  0.37942300  1
  O  O25  1  0.10910300  0.87565300  0.12148800  1
  O  O26  1  0.89835300  0.37315900  0.37541200  1
  O  O27  1  0.62240100  0.10459300  0.11078000  1
  O  O28  1  0.10164700  0.37315900  0.12458800  1
  O  O29  1  0.37759900  0.89540700  0.88922000  1
