# generated using pymatgen
data_K2Ti8O17
_symmetry_space_group_name_H-M   'P 1'
_cell_length_a   15.91463600
_cell_length_b   3.80722400
_cell_length_c   12.10892504
_cell_angle_alpha   90.00000000
_cell_angle_beta   95.68675497
_cell_angle_gamma   90.00000000
_symmetry_Int_Tables_number   1
_chemical_formula_structural   K2Ti8O17
_chemical_formula_sum   'K4 Ti16 O34'
_cell_volume   730.07600367
_cell_formula_units_Z   2
loop_
 _symmetry_equiv_pos_site_id
 _symmetry_equiv_pos_as_xyz
  1  'x, y, z'
loop_
 _atom_site_type_symbol
 _atom_site_label
 _atom_site_symmetry_multiplicity
 _atom_site_fract_x
 _atom_site_fract_y
 _atom_site_fract_z
 _atom_site_occupancy
  K  K0  1  0.94448200  0.50000000  0.19516100  1
  K  K1  1  0.55551800  0.00000000  0.80483900  1
  K  K2  1  0.44448200  0.00000000  0.19516100  1
  K  K3  1  0.05551800  0.50000000  0.80483900  1
  Ti  Ti4  1  0.89015500  0.00000000  0.92918600  1
  Ti  Ti5  1  0.84875600  0.00000000  0.67244400  1
  Ti  Ti6  1  0.80500600  0.00000000  0.42433900  1
  Ti  Ti7  1  0.75729600  0.00000000  0.16838400  1
  Ti  Ti8  1  0.74270400  0.50000000  0.83161600  1
  Ti  Ti9  1  0.69499400  0.50000000  0.57566100  1
  Ti  Ti10  1  0.65124400  0.50000000  0.32755600  1
  Ti  Ti11  1  0.60984500  0.50000000  0.07081400  1
  Ti  Ti12  1  0.39015500  0.50000000  0.92918600  1
  Ti  Ti13  1  0.34875600  0.50000000  0.67244400  1
  Ti  Ti14  1  0.30500600  0.50000000  0.42433900  1
  Ti  Ti15  1  0.25729600  0.50000000  0.16838400  1
  Ti  Ti16  1  0.24270400  0.00000000  0.83161600  1
  Ti  Ti17  1  0.19499400  0.00000000  0.57566100  1
  Ti  Ti18  1  0.15124400  0.00000000  0.32755600  1
  Ti  Ti19  1  0.10984500  0.00000000  0.07081400  1
  O  O20  1  0.93518000  0.00000000  0.78175300  1
  O  O21  1  0.89183100  0.00000000  0.53731600  1
  O  O22  1  0.84705800  0.00000000  0.28916700  1
  O  O23  1  0.82858200  0.00000000  0.06355200  1
  O  O24  1  0.86359400  0.50000000  0.91517500  1
  O  O25  1  0.81440700  0.50000000  0.67821500  1
  O  O26  1  0.77203500  0.50000000  0.43213700  1
  O  O27  1  0.72740200  0.50000000  0.18115000  1
  O  O28  1  0.77259800  0.00000000  0.81885000  1
  O  O29  1  0.72796500  0.00000000  0.56786300  1
  O  O30  1  0.68559300  0.00000000  0.32178500  1
  O  O31  1  0.63640600  0.00000000  0.08482500  1
  O  O32  1  0.67141800  0.50000000  0.93644800  1
  O  O33  1  0.65294200  0.50000000  0.71083300  1
  O  O34  1  0.60816900  0.50000000  0.46268400  1
  O  O35  1  0.56482000  0.50000000  0.21824700  1
  O  O36  1  0.00000000  0.00000000  0.00000000  1
  O  O37  1  0.43518000  0.50000000  0.78175300  1
  O  O38  1  0.39183100  0.50000000  0.53731600  1
  O  O39  1  0.34705800  0.50000000  0.28916700  1
  O  O40  1  0.32858200  0.50000000  0.06355200  1
  O  O41  1  0.36359400  0.00000000  0.91517500  1
  O  O42  1  0.31440700  0.00000000  0.67821500  1
  O  O43  1  0.27203500  0.00000000  0.43213700  1
  O  O44  1  0.22740200  0.00000000  0.18115000  1
  O  O45  1  0.27259800  0.50000000  0.81885000  1
  O  O46  1  0.22796500  0.50000000  0.56786300  1
  O  O47  1  0.18559300  0.50000000  0.32178500  1
  O  O48  1  0.13640600  0.50000000  0.08482500  1
  O  O49  1  0.17141800  0.00000000  0.93644800  1
  O  O50  1  0.15294200  0.00000000  0.71083300  1
  O  O51  1  0.10816900  0.00000000  0.46268400  1
  O  O52  1  0.06482000  0.00000000  0.21824700  1
  O  O53  1  0.50000000  0.50000000  0.00000000  1
