# generated using pymatgen
data_Li3VO3F
_symmetry_space_group_name_H-M   'P 1'
_cell_length_a   8.48642800
_cell_length_b   8.08560000
_cell_length_c   9.44597265
_cell_angle_alpha   90.00000000
_cell_angle_beta   116.64180785
_cell_angle_gamma   90.00000000
_symmetry_Int_Tables_number   1
_chemical_formula_structural   Li3VO3F
_chemical_formula_sum   'Li24 V8 O24 F8'
_cell_volume   579.34527688
_cell_formula_units_Z   8
loop_
 _symmetry_equiv_pos_site_id
 _symmetry_equiv_pos_as_xyz
  1  'x, y, z'
loop_
 _atom_site_type_symbol
 _atom_site_label
 _atom_site_symmetry_multiplicity
 _atom_site_fract_x
 _atom_site_fract_y
 _atom_site_fract_z
 _atom_site_occupancy
  Li  Li0  1  0.57063800  0.87664600  0.13840900  1
  Li  Li1  1  0.07063800  0.62335400  0.63840900  1
  Li  Li2  1  0.93792700  0.87415600  0.37543000  1
  Li  Li3  1  0.30607600  0.13181800  0.12194600  1
  Li  Li4  1  0.69392400  0.13181800  0.37805400  1
  Li  Li5  1  0.56207300  0.37415600  0.12457000  1
  Li  Li6  1  0.93792700  0.12584400  0.87543000  1
  Li  Li7  1  0.80607600  0.36818200  0.62194600  1
  Li  Li8  1  0.19392400  0.36818200  0.87805400  1
  Li  Li9  1  0.56207300  0.62584400  0.62457000  1
  Li  Li10  1  0.42936200  0.87664600  0.36159100  1
  Li  Li11  1  0.92936200  0.62335400  0.86159100  1
  Li  Li12  1  0.07063800  0.37664600  0.13840900  1
  Li  Li13  1  0.57063800  0.12335400  0.63840900  1
  Li  Li14  1  0.43792700  0.37415600  0.37543000  1
  Li  Li15  1  0.80607600  0.63181800  0.12194600  1
  Li  Li16  1  0.19392400  0.63181800  0.37805400  1
  Li  Li17  1  0.06207300  0.87415600  0.12457000  1
  Li  Li18  1  0.43792700  0.62584400  0.87543000  1
  Li  Li19  1  0.30607600  0.86818200  0.62194600  1
  Li  Li20  1  0.69392400  0.86818200  0.87805400  1
  Li  Li21  1  0.06207300  0.12584400  0.62457000  1
  Li  Li22  1  0.92936200  0.37664600  0.36159100  1
  Li  Li23  1  0.42936200  0.12335400  0.86159100  1
  V  V24  1  0.82315250  0.11675250  0.12192400  1
  V  V25  1  0.82315250  0.88324750  0.62192400  1
  V  V26  1  0.67684750  0.61675250  0.37807600  1
  V  V27  1  0.67684750  0.38324750  0.87807600  1
  V  V28  1  0.32315250  0.61675250  0.12192400  1
  V  V29  1  0.32315250  0.38324750  0.62192400  1
  V  V30  1  0.17684750  0.11675250  0.37807600  1
  V  V31  1  0.17684750  0.88324750  0.87807600  1
  O  O32  1  0.55765450  0.62797850  0.13991000  1
  O  O33  1  0.05765450  0.87202150  0.63991000  1
  O  O34  1  0.80523050  0.89445350  0.11840500  1
  O  O35  1  0.30063950  0.85874650  0.11401700  1
  O  O36  1  0.80523050  0.10554650  0.61840500  1
  O  O37  1  0.80063950  0.64125350  0.61401700  1
  O  O38  1  0.69936050  0.85874650  0.38598300  1
  O  O39  1  0.69476950  0.39445350  0.38159500  1
  O  O40  1  0.19936050  0.64125350  0.88598300  1
  O  O41  1  0.69476950  0.60554650  0.88159500  1
  O  O42  1  0.44234550  0.62797850  0.36009000  1
  O  O43  1  0.94234550  0.87202150  0.86009000  1
  O  O44  1  0.05765450  0.12797850  0.13991000  1
  O  O45  1  0.55765450  0.37202150  0.63991000  1
  O  O46  1  0.30523050  0.39445350  0.11840500  1
  O  O47  1  0.80063950  0.35874650  0.11401700  1
  O  O48  1  0.30523050  0.60554650  0.61840500  1
  O  O49  1  0.30063950  0.14125350  0.61401700  1
  O  O50  1  0.19936050  0.35874650  0.38598300  1
  O  O51  1  0.19476950  0.89445350  0.38159500  1
  O  O52  1  0.69936050  0.14125350  0.88598300  1
  O  O53  1  0.19476950  0.10554650  0.88159500  1
  O  O54  1  0.94234550  0.12797850  0.36009000  1
  O  O55  1  0.44234550  0.37202150  0.86009000  1
  F  F56  1  0.93061950  0.62438750  0.36738400  1
  F  F57  1  0.93061950  0.37561250  0.86738400  1
  F  F58  1  0.56938050  0.12438750  0.13261600  1
  F  F59  1  0.56938050  0.87561250  0.63261600  1
  F  F60  1  0.43061950  0.12438750  0.36738400  1
  F  F61  1  0.43061950  0.87561250  0.86738400  1
  F  F62  1  0.06938050  0.62438750  0.13261600  1
  F  F63  1  0.06938050  0.37561250  0.63261600  1
