# generated using pymatgen
data_Sr3YI9
_symmetry_space_group_name_H-M   'P 1'
_cell_length_a   8.35583800
_cell_length_b   7.71417000
_cell_length_c   32.98526343
_cell_angle_alpha   90.00000000
_cell_angle_beta   91.70165632
_cell_angle_gamma   90.00000000
_symmetry_Int_Tables_number   1
_chemical_formula_structural   Sr3YI9
_chemical_formula_sum   'Sr12 Y4 I36'
_cell_volume   2125.23817520
_cell_formula_units_Z   4
loop_
 _symmetry_equiv_pos_site_id
 _symmetry_equiv_pos_as_xyz
  1  'x, y, z'
loop_
 _atom_site_type_symbol
 _atom_site_label
 _atom_site_symmetry_multiplicity
 _atom_site_fract_x
 _atom_site_fract_y
 _atom_site_fract_z
 _atom_site_occupancy
  Sr  Sr0  1  0.32941400  0.03288200  0.93288300  1
  Sr  Sr1  1  0.29907500  0.99873600  0.69167600  1
  Sr  Sr2  1  0.32941400  0.96711800  0.43288300  1
  Sr  Sr3  1  0.29907500  0.00126400  0.19167600  1
  Sr  Sr4  1  0.67679900  0.01528900  0.56928300  1
  Sr  Sr5  1  0.71122500  0.02026800  0.80971800  1
  Sr  Sr6  1  0.67679900  0.98471100  0.06928300  1
  Sr  Sr7  1  0.71122500  0.97973200  0.30971800  1
  Sr  Sr8  1  0.78992200  0.47299000  0.69176300  1
  Sr  Sr9  1  0.83103400  0.48198500  0.93149500  1
  Sr  Sr10  1  0.78992200  0.52701000  0.19176300  1
  Sr  Sr11  1  0.83103400  0.51801500  0.43149500  1
  Y  Y12  1  0.19886200  0.48068400  0.80683800  1
  Y  Y13  1  0.17116100  0.45327200  0.56655200  1
  Y  Y14  1  0.19886200  0.51931600  0.30683800  1
  Y  Y15  1  0.17116100  0.54672800  0.06655200  1
  I  I16  1  0.01794400  0.20137200  0.86857900  1
  I  I17  1  0.01479700  0.17972300  0.75263100  1
  I  I18  1  0.00851500  0.18411800  0.62742800  1
  I  I19  1  0.01794400  0.79862800  0.36857900  1
  I  I20  1  0.01479700  0.82027700  0.25263100  1
  I  I21  1  0.11317100  0.29473300  0.99302800  1
  I  I22  1  0.00851500  0.81588200  0.12742800  1
  I  I23  1  0.15437400  0.67257000  0.89382100  1
  I  I24  1  0.11317100  0.70526700  0.49302800  1
  I  I25  1  0.15687800  0.60771100  0.70663100  1
  I  I26  1  0.15437400  0.32743000  0.39382100  1
  I  I27  1  0.15687800  0.39228900  0.20663100  1
  I  I28  1  0.35820800  0.83286900  0.79644800  1
  I  I29  1  0.34929600  0.78424300  0.59824200  1
  I  I30  1  0.35820800  0.16713100  0.29644800  1
  I  I31  1  0.34929600  0.21575700  0.09824200  1
  I  I32  1  0.40508100  0.25525300  0.51177300  1
  I  I33  1  0.48829100  0.32279400  0.86679700  1
  I  I34  1  0.48675100  0.30914500  0.75202100  1
  I  I35  1  0.47705000  0.29886200  0.62870900  1
  I  I36  1  0.40508100  0.74474700  0.01177300  1
  I  I37  1  0.48829100  0.67720600  0.36679700  1
  I  I38  1  0.48675100  0.69085500  0.25202100  1
  I  I39  1  0.47705000  0.70113800  0.12870900  1
  I  I40  1  0.61031900  0.23435600  0.98909000  1
  I  I41  1  0.61031900  0.76564400  0.48909000  1
  I  I42  1  0.65771800  0.84213300  0.90083000  1
  I  I43  1  0.67411500  0.88053900  0.69866500  1
  I  I44  1  0.65771800  0.15786700  0.40083000  1
  I  I45  1  0.67411500  0.11946100  0.19866500  1
  I  I46  1  0.85503700  0.61562700  0.79775300  1
  I  I47  1  0.87199800  0.64798200  0.59847600  1
  I  I48  1  0.85503700  0.38437300  0.29775300  1
  I  I49  1  0.87199800  0.35201800  0.09847600  1
  I  I50  1  0.92369900  0.24608100  0.51068600  1
  I  I51  1  0.92369900  0.75391900  0.01068600  1
