# generated using pymatgen
data_Li2FeF4
_symmetry_space_group_name_H-M   'P 1'
_cell_length_a   5.75476800
_cell_length_b   8.69421400
_cell_length_c   6.56963700
_cell_angle_alpha   90.00000000
_cell_angle_beta   90.00000000
_cell_angle_gamma   90.00000000
_symmetry_Int_Tables_number   1
_chemical_formula_structural   Li2FeF4
_chemical_formula_sum   'Li8 Fe4 F16'
_cell_volume   328.69986020
_cell_formula_units_Z   4
loop_
 _symmetry_equiv_pos_site_id
 _symmetry_equiv_pos_as_xyz
  1  'x, y, z'
loop_
 _atom_site_type_symbol
 _atom_site_label
 _atom_site_symmetry_multiplicity
 _atom_site_fract_x
 _atom_site_fract_y
 _atom_site_fract_z
 _atom_site_occupancy
  Li  Li0  1  0.50000000  0.65472100  0.25000000  1
  Li  Li1  1  0.50000000  0.00000000  0.00000000  1
  Li  Li2  1  0.50000000  0.00000000  0.50000000  1
  Li  Li3  1  0.50000000  0.34527900  0.75000000  1
  Li  Li4  1  0.00000000  0.15472100  0.25000000  1
  Li  Li5  1  0.00000000  0.50000000  0.00000000  1
  Li  Li6  1  0.00000000  0.50000000  0.50000000  1
  Li  Li7  1  0.00000000  0.84527900  0.75000000  1
  Fe  Fe8  1  0.50000000  0.66998800  0.75000000  1
  Fe  Fe9  1  0.50000000  0.33001200  0.25000000  1
  Fe  Fe10  1  0.00000000  0.16998800  0.75000000  1
  Fe  Fe11  1  0.00000000  0.83001200  0.25000000  1
  F  F12  1  0.24358400  0.99469300  0.75000000  1
  F  F13  1  0.24358400  0.00530700  0.25000000  1
  F  F14  1  0.50000000  0.77085500  0.01326900  1
  F  F15  1  0.50000000  0.77085500  0.48673100  1
  F  F16  1  0.50000000  0.22914500  0.98673100  1
  F  F17  1  0.50000000  0.22914500  0.51326900  1
  F  F18  1  0.75641600  0.99469300  0.75000000  1
  F  F19  1  0.75641600  0.00530700  0.25000000  1
  F  F20  1  0.74358400  0.49469300  0.75000000  1
  F  F21  1  0.74358400  0.50530700  0.25000000  1
  F  F22  1  0.00000000  0.27085500  0.01326900  1
  F  F23  1  0.00000000  0.27085500  0.48673100  1
  F  F24  1  0.00000000  0.72914500  0.98673100  1
  F  F25  1  0.00000000  0.72914500  0.51326900  1
  F  F26  1  0.25641600  0.49469300  0.75000000  1
  F  F27  1  0.25641600  0.50530700  0.25000000  1
