# generated using pymatgen
data_Mn13Fe11O32
_symmetry_space_group_name_H-M   'P 1'
_cell_length_a   6.12837700
_cell_length_b   6.14732641
_cell_length_c   20.35888167
_cell_angle_alpha   89.95987737
_cell_angle_beta   98.37159253
_cell_angle_gamma   119.80000909
_symmetry_Int_Tables_number   1
_chemical_formula_structural   Mn13Fe11O32
_chemical_formula_sum   'Mn13 Fe11 O32'
_cell_volume   656.17184864
_cell_formula_units_Z   1
loop_
 _symmetry_equiv_pos_site_id
 _symmetry_equiv_pos_as_xyz
  1  'x, y, z'
loop_
 _atom_site_type_symbol
 _atom_site_label
 _atom_site_symmetry_multiplicity
 _atom_site_fract_x
 _atom_site_fract_y
 _atom_site_fract_z
 _atom_site_occupancy
  Mn  Mn0  1  0.18920900  0.59724900  0.28226400  1
  Mn  Mn1  1  0.49954500  0.24785500  0.24962600  1
  Mn  Mn2  1  0.75086300  0.62911200  0.37538900  1
  Mn  Mn3  1  0.31262800  0.66010100  0.46824500  1
  Mn  Mn4  1  0.81081600  0.89805200  0.21798700  1
  Mn  Mn5  1  0.68737200  0.33989900  0.53175500  1
  Mn  Mn6  1  0.50045500  0.75214500  0.75037400  1
  Mn  Mn7  1  0.24913700  0.37088800  0.62461100  1
  Mn  Mn8  1  0.81079100  0.40275100  0.71773600  1
  Mn  Mn9  1  0.69492700  0.84435500  0.03160900  1
  Mn  Mn10  1  0.18918400  0.10194800  0.78201300  1
  Mn  Mn11  1  0.00000000  0.50000000  0.00000000  1
  Mn  Mn12  1  0.30507300  0.15564500  0.96839100  1
  Fe  Fe13  1  0.75393300  0.13023000  0.37522900  1
  Fe  Fe14  1  0.25010200  0.13140800  0.37499600  1
  Fe  Fe15  1  0.24606700  0.86977000  0.62477100  1
  Fe  Fe16  1  0.74989800  0.86859200  0.62500400  1
  Fe  Fe17  1  0.00000000  0.00000000  0.50000000  1
  Fe  Fe18  1  0.24840900  0.63219600  0.87505400  1
  Fe  Fe19  1  0.74844600  0.62752600  0.87511400  1
  Fe  Fe20  1  0.74336000  0.12777800  0.87490200  1
  Fe  Fe21  1  0.25664000  0.87222200  0.12509800  1
  Fe  Fe22  1  0.25155400  0.37247400  0.12488600  1
  Fe  Fe23  1  0.75159100  0.36780400  0.12494600  1
  O  O24  1  0.09545500  0.82411000  0.43212800  1
  O  O25  1  0.66022500  0.82729900  0.43302400  1
  O  O26  1  0.84683100  0.43488800  0.31880300  1
  O  O27  1  0.40657100  0.43930000  0.31995100  1
  O  O28  1  0.39651900  0.98366500  0.31180900  1
  O  O29  1  0.89380500  0.72250700  0.56358400  1
  O  O30  1  0.60274600  0.27885300  0.42913600  1
  O  O31  1  0.10619500  0.27749300  0.43641600  1
  O  O32  1  0.39725400  0.72114700  0.57086400  1
  O  O33  1  0.89751000  0.97536000  0.32036200  1
  O  O34  1  0.59342900  0.56070000  0.68004900  1
  O  O35  1  0.15316900  0.56511200  0.68119700  1
  O  O36  1  0.33977500  0.17270100  0.56697600  1
  O  O37  1  0.90454500  0.17589000  0.56787200  1
  O  O38  1  0.61315300  0.80832200  0.92775800  1
  O  O39  1  0.10249000  0.02464000  0.67963800  1
  O  O40  1  0.39594000  0.48704100  0.81317700  1
  O  O41  1  0.88416800  0.44769100  0.82196900  1
  O  O42  1  0.60348100  0.01633500  0.68819100  1
  O  O43  1  0.09873800  0.77238600  0.93603900  1
  O  O44  1  0.09851600  0.33426100  0.93549300  1
  O  O45  1  0.63661600  0.32467700  0.92863700  1
  O  O46  1  0.84729500  0.92932000  0.81875100  1
  O  O47  1  0.39120700  0.92738000  0.81845000  1
  O  O48  1  0.90148400  0.66573900  0.06450700  1
  O  O49  1  0.36338400  0.67532300  0.07136300  1
  O  O50  1  0.90126200  0.22761400  0.06396100  1
  O  O51  1  0.11583200  0.55230900  0.17803100  1
  O  O52  1  0.60406000  0.51295900  0.18682300  1
  O  O53  1  0.38684700  0.19167800  0.07224200  1
  O  O54  1  0.60879300  0.07262000  0.18155000  1
  O  O55  1  0.15270500  0.07068000  0.18124900  1
