# generated using pymatgen
data_Na6Zn3As4H6O19
_symmetry_space_group_name_H-M   'P 1'
_cell_length_a   12.37328400
_cell_length_b   12.37328400
_cell_length_c   12.37328400
_cell_angle_alpha   90.00000000
_cell_angle_beta   90.00000000
_cell_angle_gamma   90.00000000
_symmetry_Int_Tables_number   1
_chemical_formula_structural   Na6Zn3As4H6O19
_chemical_formula_sum   'Na24 Zn12 As16 H24 O76'
_cell_volume   1894.32697575
_cell_formula_units_Z   4
loop_
 _symmetry_equiv_pos_site_id
 _symmetry_equiv_pos_as_xyz
  1  'x, y, z'
loop_
 _atom_site_type_symbol
 _atom_site_label
 _atom_site_symmetry_multiplicity
 _atom_site_fract_x
 _atom_site_fract_y
 _atom_site_fract_z
 _atom_site_occupancy
  Na  Na0  1  0.00264500  0.25286500  0.57877600  1
  Na  Na1  1  0.00450700  0.74237500  0.32614200  1
  Na  Na2  1  0.07877600  0.49735500  0.74713500  1
  Na  Na3  1  0.17385800  0.99549300  0.24237500  1
  Na  Na4  1  0.24237500  0.17385800  0.99549300  1
  Na  Na5  1  0.24713500  0.42122400  0.50264500  1
  Na  Na6  1  0.25286500  0.57877600  0.00264500  1
  Na  Na7  1  0.25762500  0.82614200  0.49549300  1
  Na  Na8  1  0.32614200  0.00450700  0.74237500  1
  Na  Na9  1  0.42122400  0.50264500  0.24713500  1
  Na  Na10  1  0.49549300  0.25762500  0.82614200  1
  Na  Na11  1  0.49735500  0.74713500  0.07877600  1
  Na  Na12  1  0.50264500  0.24713500  0.42122400  1
  Na  Na13  1  0.50450700  0.75762500  0.67385800  1
  Na  Na14  1  0.57877600  0.00264500  0.25286500  1
  Na  Na15  1  0.67385800  0.50450700  0.75762500  1
  Na  Na16  1  0.74237500  0.32614200  0.00450700  1
  Na  Na17  1  0.74713500  0.07877600  0.49735500  1
  Na  Na18  1  0.75286500  0.92122400  0.99735500  1
  Na  Na19  1  0.75762500  0.67385800  0.50450700  1
  Na  Na20  1  0.82614200  0.49549300  0.25762500  1
  Na  Na21  1  0.92122400  0.99735500  0.75286500  1
  Na  Na22  1  0.99549300  0.24237500  0.17385800  1
  Na  Na23  1  0.99735500  0.75286500  0.92122400  1
  Zn  Zn24  1  0.01023400  0.75224600  0.62501700  1
  Zn  Zn25  1  0.12501700  0.48976600  0.24775400  1
  Zn  Zn26  1  0.24775400  0.12501700  0.48976600  1
  Zn  Zn27  1  0.25224600  0.87498300  0.98976600  1
  Zn  Zn28  1  0.37498300  0.51023400  0.74775400  1
  Zn  Zn29  1  0.48976600  0.24775400  0.12501700  1
  Zn  Zn30  1  0.51023400  0.74775400  0.37498300  1
  Zn  Zn31  1  0.62501700  0.01023400  0.75224600  1
  Zn  Zn32  1  0.74775400  0.37498300  0.51023400  1
  Zn  Zn33  1  0.75224600  0.62501700  0.01023400  1
  Zn  Zn34  1  0.87498300  0.98976600  0.25224600  1
  Zn  Zn35  1  0.98976600  0.25224600  0.87498300  1
  As  As36  1  0.01724500  0.98275500  0.48275500  1
  As  As37  1  0.03173800  0.03173800  0.03173800  1
  As  As38  1  0.22099300  0.27900700  0.72099300  1
  As  As39  1  0.23094200  0.73094200  0.76905800  1
  As  As40  1  0.26905800  0.26905800  0.26905800  1
  As  As41  1  0.27900700  0.72099300  0.22099300  1
  As  As42  1  0.46826200  0.96826200  0.53173800  1
  As  As43  1  0.48275500  0.01724500  0.98275500  1
  As  As44  1  0.51724500  0.51724500  0.51724500  1
  As  As45  1  0.53173800  0.46826200  0.96826200  1
  As  As46  1  0.72099300  0.22099300  0.27900700  1
  As  As47  1  0.73094200  0.76905800  0.23094200  1
  As  As48  1  0.76905800  0.23094200  0.73094200  1
  As  As49  1  0.77900700  0.77900700  0.77900700  1
  As  As50  1  0.96826200  0.53173800  0.46826200  1
  As  As51  1  0.98275500  0.48275500  0.01724500  1
  H  H52  1  0.04028900  0.17874500  0.38028700  1
  H  H53  1  0.06784000  0.30132900  0.37597400  1
  H  H54  1  0.12402600  0.93216000  0.80132900  1
  H  H55  1  0.11971300  0.95971100  0.67874500  1
  H  H56  1  0.17874500  0.38028700  0.04028900  1
  H  H57  1  0.19867100  0.62402600  0.56784000  1
  H  H58  1  0.30132900  0.37597400  0.06784000  1
  H  H59  1  0.32125500  0.61971300  0.54028900  1
  H  H60  1  0.38028700  0.04028900  0.17874500  1
  H  H61  1  0.37597400  0.06784000  0.30132900  1
  H  H62  1  0.43216000  0.69867100  0.87597400  1
  H  H63  1  0.45971100  0.82125500  0.88028700  1
  H  H64  1  0.54028900  0.32125500  0.61971300  1
  H  H65  1  0.56784000  0.19867100  0.62402600  1
  H  H66  1  0.62402600  0.56784000  0.19867100  1
  H  H67  1  0.61971300  0.54028900  0.32125500  1
  H  H68  1  0.67874500  0.11971300  0.95971100  1
  H  H69  1  0.69867100  0.87597400  0.43216000  1
  H  H70  1  0.80132900  0.12402600  0.93216000  1
  H  H71  1  0.82125500  0.88028700  0.45971100  1
  H  H72  1  0.88028700  0.45971100  0.82125500  1
  H  H73  1  0.87597400  0.43216000  0.69867100  1
  H  H74  1  0.93216000  0.80132900  0.12402600  1
  H  H75  1  0.95971100  0.67874500  0.11971300  1
  O  O76  1  0.00525500  0.25106400  0.37915900  1
  O  O77  1  0.00852800  0.54630500  0.33443100  1
  O  O78  1  0.04630500  0.16556900  0.99147200  1
  O  O79  1  0.04731000  0.45269000  0.54731000  1
  O  O80  1  0.05734900  0.41619300  0.11682800  1
  O  O81  1  0.06183200  0.56183200  0.93816800  1
  O  O82  1  0.08380700  0.88317200  0.55734900  1
  O  O83  1  0.09249000  0.30869300  0.77055500  1
  O  O84  1  0.11682800  0.05734900  0.41619300  1
  O  O85  1  0.12084100  0.99474500  0.75106400  1
  O  O86  1  0.12824200  0.66876800  0.69566200  1
  O  O87  1  0.16556900  0.99147200  0.04630500  1
  O  O88  1  0.16876800  0.80433800  0.87175800  1
  O  O89  1  0.19046100  0.19046100  0.19046100  1
  O  O90  1  0.19130700  0.22944500  0.59249000  1
  O  O91  1  0.19566200  0.37175800  0.33123200  1
  O  O92  1  0.19981600  0.80018400  0.30018400  1
  O  O93  1  0.22944500  0.59249000  0.19130700  1
  O  O94  1  0.24893600  0.62084100  0.50525500  1
  O  O95  1  0.25106400  0.37915900  0.00525500  1
  O  O96  1  0.27055500  0.40751000  0.69130700  1
  O  O97  1  0.30018400  0.19981600  0.80018400  1
  O  O98  1  0.30433800  0.62824200  0.83123200  1
  O  O99  1  0.30869300  0.77055500  0.09249000  1
  O  O100  1  0.30953900  0.80953900  0.69046100  1
  O  O101  1  0.33123200  0.19566200  0.37175800  1
  O  O102  1  0.33443100  0.00852800  0.54630500  1
  O  O103  1  0.37175800  0.33123200  0.19566200  1
  O  O104  1  0.37915900  0.00525500  0.25106400  1
  O  O105  1  0.38317200  0.94265100  0.91619300  1
  O  O106  1  0.40751000  0.69130700  0.27055500  1
  O  O107  1  0.41619300  0.11682800  0.05734900  1
  O  O108  1  0.43816800  0.43816800  0.43816800  1
  O  O109  1  0.44265100  0.58380700  0.61682800  1
  O  O110  1  0.45269000  0.54731000  0.04731000  1
  O  O111  1  0.45369500  0.83443100  0.49147200  1
  O  O112  1  0.49147200  0.45369500  0.83443100  1
  O  O113  1  0.49474500  0.74893600  0.87915900  1
  O  O114  1  0.50525500  0.24893600  0.62084100  1
  O  O115  1  0.50852800  0.95369500  0.66556900  1
  O  O116  1  0.54630500  0.33443100  0.00852800  1
  O  O117  1  0.54731000  0.04731000  0.45269000  1
  O  O118  1  0.55734900  0.08380700  0.88317200  1
  O  O119  1  0.56183200  0.93816800  0.06183200  1
  O  O120  1  0.58380700  0.61682800  0.44265100  1
  O  O121  1  0.59249000  0.19130700  0.22944500  1
  O  O122  1  0.61682800  0.44265100  0.58380700  1
  O  O123  1  0.62084100  0.50525500  0.24893600  1
  O  O124  1  0.62824200  0.83123200  0.30433800  1
  O  O125  1  0.66556900  0.50852800  0.95369500  1
  O  O126  1  0.66876800  0.69566200  0.12824200  1
  O  O127  1  0.69046100  0.30953900  0.80953900  1
  O  O128  1  0.69130700  0.27055500  0.40751000  1
  O  O129  1  0.69566200  0.12824200  0.66876800  1
  O  O130  1  0.69981600  0.69981600  0.69981600  1
  O  O131  1  0.72944500  0.90751000  0.80869300  1
  O  O132  1  0.74893600  0.87915900  0.49474500  1
  O  O133  1  0.75106400  0.12084100  0.99474500  1
  O  O134  1  0.77055500  0.09249000  0.30869300  1
  O  O135  1  0.80018400  0.30018400  0.19981600  1
  O  O136  1  0.80433800  0.87175800  0.16876800  1
  O  O137  1  0.80869300  0.72944500  0.90751000  1
  O  O138  1  0.80953900  0.69046100  0.30953900  1
  O  O139  1  0.83123200  0.30433800  0.62824200  1
  O  O140  1  0.83443100  0.49147200  0.45369500  1
  O  O141  1  0.87175800  0.16876800  0.80433800  1
  O  O142  1  0.87915900  0.49474500  0.74893600  1
  O  O143  1  0.88317200  0.55734900  0.08380700  1
  O  O144  1  0.90751000  0.80869300  0.72944500  1
  O  O145  1  0.91619300  0.38317200  0.94265100  1
  O  O146  1  0.93816800  0.06183200  0.56183200  1
  O  O147  1  0.94265100  0.91619300  0.38317200  1
  O  O148  1  0.95269000  0.95269000  0.95269000  1
  O  O149  1  0.95369500  0.66556900  0.50852800  1
  O  O150  1  0.99147200  0.04630500  0.16556900  1
  O  O151  1  0.99474500  0.75106400  0.12084100  1
