# generated using pymatgen
data_Li2CrPHO5
_symmetry_space_group_name_H-M   'P 1'
_cell_length_a   5.54707509
_cell_length_b   5.62224114
_cell_length_c   7.27343099
_cell_angle_alpha   105.34338452
_cell_angle_beta   108.56262357
_cell_angle_gamma   89.03629146
_symmetry_Int_Tables_number   1
_chemical_formula_structural   Li2CrPHO5
_chemical_formula_sum   'Li4 Cr2 P2 H2 O10'
_cell_volume   206.80651611
_cell_formula_units_Z   2
loop_
 _symmetry_equiv_pos_site_id
 _symmetry_equiv_pos_as_xyz
  1  'x, y, z'
loop_
 _atom_site_type_symbol
 _atom_site_label
 _atom_site_symmetry_multiplicity
 _atom_site_fract_x
 _atom_site_fract_y
 _atom_site_fract_z
 _atom_site_occupancy
  Li  Li0  1  0.89762750  0.53226800  0.19275400  1
  Li  Li1  1  0.10237250  0.46773200  0.80724600  1
  Li  Li2  1  0.56477250  0.21252500  0.18318900  1
  Li  Li3  1  0.43522750  0.78747500  0.81681100  1
  Cr  Cr4  1  0.00000000  0.00000000  0.00000000  1
  Cr  Cr5  1  0.00000000  0.00000000  0.50000000  1
  P  P6  1  0.61723200  0.31706950  0.76483500  1
  P  P7  1  0.38276800  0.68293050  0.23516500  1
  H  H8  1  0.89098950  0.70688900  0.63373000  1
  H  H9  1  0.10901050  0.29311100  0.36627000  1
  O  O10  1  0.95445750  0.18970350  0.27265200  1
  O  O11  1  0.04554250  0.81029650  0.72734800  1
  O  O12  1  0.78486000  0.25671950  0.62536800  1
  O  O13  1  0.21514000  0.74328050  0.37463200  1
  O  O14  1  0.66461550  0.65964750  0.34786900  1
  O  O15  1  0.33538450  0.34035250  0.65213100  1
  O  O16  1  0.72911300  0.57096300  0.92096900  1
  O  O17  1  0.27088700  0.42903700  0.07903100  1
  O  O18  1  0.63737850  0.10898000  0.87761700  1
  O  O19  1  0.36262150  0.89102000  0.12238300  1
