# generated using pymatgen
data_La(ClO4)3
_symmetry_space_group_name_H-M   'P 1'
_cell_length_a   9.55605209
_cell_length_b   9.55605209
_cell_length_c   5.96292200
_cell_angle_alpha   90.00000000
_cell_angle_beta   90.00000000
_cell_angle_gamma   120.00000000
_symmetry_Int_Tables_number   1
_chemical_formula_structural   La(ClO4)3
_chemical_formula_sum   'La2 Cl6 O24'
_cell_volume   471.57066054
_cell_formula_units_Z   2
loop_
 _symmetry_equiv_pos_site_id
 _symmetry_equiv_pos_as_xyz
  1  'x, y, z'
loop_
 _atom_site_type_symbol
 _atom_site_label
 _atom_site_symmetry_multiplicity
 _atom_site_fract_x
 _atom_site_fract_y
 _atom_site_fract_z
 _atom_site_occupancy
  La  La0  1  0.66666667  0.33333333  0.25000000  1
  La  La1  1  0.33333333  0.66666667  0.75000000  1
  Cl  Cl2  1  0.71004900  0.61846200  0.75000000  1
  Cl  Cl3  1  0.38153800  0.09158700  0.75000000  1
  Cl  Cl4  1  0.90841300  0.28995100  0.75000000  1
  Cl  Cl5  1  0.09158700  0.71004900  0.25000000  1
  Cl  Cl6  1  0.61846200  0.90841300  0.25000000  1
  Cl  Cl7  1  0.28995100  0.38153800  0.25000000  1
  O  O8  1  0.80875800  0.78930700  0.75000000  1
  O  O9  1  0.46374400  0.43462900  0.25000000  1
  O  O10  1  0.74327100  0.54831100  0.55119500  1
  O  O11  1  0.74327100  0.54831100  0.94880500  1
  O  O12  1  0.97088500  0.53625600  0.25000000  1
  O  O13  1  0.45168900  0.19496000  0.94880500  1
  O  O14  1  0.45168900  0.19496000  0.55119500  1
  O  O15  1  0.21069300  0.01945100  0.75000000  1
  O  O16  1  0.80504000  0.25672900  0.55119500  1
  O  O17  1  0.80504000  0.25672900  0.94880500  1
  O  O18  1  0.01945100  0.80875800  0.25000000  1
  O  O19  1  0.43462900  0.97088500  0.75000000  1
  O  O20  1  0.56537100  0.02911500  0.25000000  1
  O  O21  1  0.98054900  0.19124200  0.75000000  1
  O  O22  1  0.19496000  0.74327100  0.05119500  1
  O  O23  1  0.19496000  0.74327100  0.44880500  1
  O  O24  1  0.78930700  0.98054900  0.25000000  1
  O  O25  1  0.54831100  0.80504000  0.44880500  1
  O  O26  1  0.54831100  0.80504000  0.05119500  1
  O  O27  1  0.02911500  0.46374400  0.75000000  1
  O  O28  1  0.25672900  0.45168900  0.44880500  1
  O  O29  1  0.25672900  0.45168900  0.05119500  1
  O  O30  1  0.53625600  0.56537100  0.75000000  1
  O  O31  1  0.19124200  0.21069300  0.25000000  1
