# generated using pymatgen
data_Li24Mn11CrO36
_symmetry_space_group_name_H-M   'P 1'
_cell_length_a   15.01236600
_cell_length_b   8.64625800
_cell_length_c   9.72499424
_cell_angle_alpha   90.00000000
_cell_angle_beta   99.59539846
_cell_angle_gamma   90.00000000
_symmetry_Int_Tables_number   1
_chemical_formula_structural   Li24Mn11CrO36
_chemical_formula_sum   'Li48 Mn22 Cr2 O72'
_cell_volume   1244.65146448
_cell_formula_units_Z   2
loop_
 _symmetry_equiv_pos_site_id
 _symmetry_equiv_pos_as_xyz
  1  'x, y, z'
loop_
 _atom_site_type_symbol
 _atom_site_label
 _atom_site_symmetry_multiplicity
 _atom_site_fract_x
 _atom_site_fract_y
 _atom_site_fract_z
 _atom_site_occupancy
  Li  Li0  1  0.91968900  0.08412900  0.74938700  1
  Li  Li1  1  0.00000000  0.24868400  0.00000000  1
  Li  Li2  1  0.91598500  0.24657700  0.25118000  1
  Li  Li3  1  0.83399600  0.24887500  0.50122800  1
  Li  Li4  1  0.91746650  0.40698250  0.75076400  1
  Li  Li5  1  0.75068650  0.25336750  0.74970200  1
  Li  Li6  1  0.75223850  0.41268450  0.24949800  1
  Li  Li7  1  0.91528200  0.58754400  0.24622000  1
  Li  Li8  1  0.00000000  0.74856800  0.50000000  1
  Li  Li9  1  0.75264300  0.59028100  0.75014100  1
  Li  Li10  1  0.91862750  0.74666450  0.74883200  1
  Li  Li11  1  0.83516500  0.75010400  0.00134400  1
  Li  Li12  1  0.92017850  0.91126050  0.25184100  1
  Li  Li13  1  0.74931350  0.75336750  0.25029800  1
  Li  Li14  1  0.58031100  0.58412900  0.25061300  1
  Li  Li15  1  0.66600400  0.74887500  0.49877200  1
  Li  Li16  1  0.74776150  0.91268450  0.75050200  1
  Li  Li17  1  0.58401500  0.74657700  0.74882000  1
  Li  Li18  1  0.58253350  0.90698250  0.24923600  1
  Li  Li19  1  0.74735700  0.09028100  0.24985900  1
  Li  Li20  1  0.58471800  0.08754400  0.75378000  1
  Li  Li21  1  0.66483500  0.25010400  0.99865600  1
  Li  Li22  1  0.58137250  0.24666450  0.25116800  1
  Li  Li23  1  0.57982150  0.41126050  0.74815900  1
  Li  Li24  1  0.41968900  0.58412900  0.74938700  1
  Li  Li25  1  0.50000000  0.74868400  0.00000000  1
  Li  Li26  1  0.41598500  0.74657700  0.25118000  1
  Li  Li27  1  0.33399600  0.74887500  0.50122800  1
  Li  Li28  1  0.41746650  0.90698250  0.75076400  1
  Li  Li29  1  0.25068650  0.75336750  0.74970200  1
  Li  Li30  1  0.25223850  0.91268450  0.24949800  1
  Li  Li31  1  0.41528200  0.08754400  0.24622000  1
  Li  Li32  1  0.50000000  0.24856800  0.50000000  1
  Li  Li33  1  0.25264300  0.09028100  0.75014100  1
  Li  Li34  1  0.41862750  0.24666450  0.74883200  1
  Li  Li35  1  0.33516500  0.25010400  0.00134400  1
  Li  Li36  1  0.42017850  0.41126050  0.25184100  1
  Li  Li37  1  0.24931350  0.25336750  0.25029800  1
  Li  Li38  1  0.08031100  0.08412900  0.25061300  1
  Li  Li39  1  0.16600400  0.24887500  0.49877200  1
  Li  Li40  1  0.24776150  0.41268450  0.75050200  1
  Li  Li41  1  0.08401500  0.24657700  0.74882000  1
  Li  Li42  1  0.08253350  0.40698250  0.24923600  1
  Li  Li43  1  0.24735700  0.59028100  0.24985900  1
  Li  Li44  1  0.08471800  0.58754400  0.75378000  1
  Li  Li45  1  0.16483500  0.75010400  0.99865600  1
  Li  Li46  1  0.08137250  0.74666450  0.25116800  1
  Li  Li47  1  0.07982150  0.91126050  0.74815900  1
  Mn  Mn48  1  0.00000000  0.08139500  0.50000000  1
  Mn  Mn49  1  0.00000000  0.58189500  0.00000000  1
  Mn  Mn50  1  0.83438750  0.41618850  0.99955000  1
  Mn  Mn51  1  0.83296850  0.58292450  0.49781500  1
  Mn  Mn52  1  0.66715300  0.41679100  0.49906500  1
  Mn  Mn53  1  0.00000000  0.91626600  0.00000000  1
  Mn  Mn54  1  0.66777900  0.58298000  0.99875700  1
  Mn  Mn55  1  0.83284700  0.91679100  0.50093500  1
  Mn  Mn56  1  0.83222100  0.08298000  0.00124300  1
  Mn  Mn57  1  0.66561250  0.91618850  0.00045000  1
  Mn  Mn58  1  0.66703150  0.08292450  0.50218500  1
  Mn  Mn59  1  0.50000000  0.58139500  0.50000000  1
  Mn  Mn60  1  0.50000000  0.08189500  0.00000000  1
  Mn  Mn61  1  0.33438750  0.91618850  0.99955000  1
  Mn  Mn62  1  0.33296850  0.08292450  0.49781500  1
  Mn  Mn63  1  0.16715300  0.91679100  0.49906500  1
  Mn  Mn64  1  0.50000000  0.41626600  0.00000000  1
  Mn  Mn65  1  0.16777900  0.08298000  0.99875700  1
  Mn  Mn66  1  0.33284700  0.41679100  0.50093500  1
  Mn  Mn67  1  0.33222100  0.58298000  0.00124300  1
  Mn  Mn68  1  0.16561250  0.41618850  0.00045000  1
  Mn  Mn69  1  0.16703150  0.58292450  0.50218500  1
  Cr  Cr70  1  0.00000000  0.41895700  0.50000000  1
  Cr  Cr71  1  0.50000000  0.91895700  0.50000000  1
  O  O72  1  0.95378850  0.06993850  0.11219800  1
  O  O73  1  0.96607000  0.24748000  0.61391300  1
  O  O74  1  0.86919550  0.24895450  0.88612200  1
  O  O75  1  0.79897700  0.24869700  0.11356800  1
  O  O76  1  0.95392850  0.42742650  0.11151900  1
  O  O77  1  0.87972250  0.42958050  0.38566000  1
  O  O78  1  0.88175550  0.57039350  0.88692300  1
  O  O79  1  0.95231750  0.56871650  0.61140900  1
  O  O80  1  0.71517200  0.42852500  0.88723300  1
  O  O81  1  0.78659100  0.42800300  0.61089900  1
  O  O82  1  0.96666250  0.74874050  0.11361500  1
  O  O83  1  0.78741900  0.57181100  0.11095000  1
  O  O84  1  0.62077150  0.42871250  0.11138400  1
  O  O85  1  0.71382050  0.57221250  0.38669200  1
  O  O86  1  0.86927900  0.74993700  0.38471300  1
  O  O87  1  0.54621150  0.56993850  0.88780200  1
  O  O88  1  0.79870350  0.74927550  0.61280400  1
  O  O89  1  0.61963550  0.57037150  0.61145000  1
  O  O90  1  0.87922850  0.92871250  0.88861600  1
  O  O91  1  0.70102300  0.74869700  0.88643200  1
  O  O92  1  0.95360100  0.92513300  0.61084700  1
  O  O93  1  0.63080450  0.74895450  0.11387800  1
  O  O94  1  0.78482800  0.92852500  0.11276700  1
  O  O95  1  0.88036450  0.07037150  0.38855000  1
  O  O96  1  0.71340900  0.92800300  0.38910100  1
  O  O97  1  0.53393000  0.74748000  0.38608700  1
  O  O98  1  0.71258100  0.07181100  0.88905000  1
  O  O99  1  0.78617950  0.07221250  0.61330800  1
  O  O100  1  0.54607150  0.92742650  0.88848100  1
  O  O101  1  0.62027750  0.92958050  0.61434000  1
  O  O102  1  0.61824450  0.07039350  0.11307700  1
  O  O103  1  0.54768250  0.06871650  0.38859100  1
  O  O104  1  0.70129650  0.24927550  0.38719600  1
  O  O105  1  0.63072100  0.24993700  0.61528700  1
  O  O106  1  0.53333750  0.24874050  0.88638500  1
  O  O107  1  0.54639900  0.42513300  0.38915300  1
  O  O108  1  0.45378850  0.56993850  0.11219800  1
  O  O109  1  0.46607000  0.74748000  0.61391300  1
  O  O110  1  0.36919550  0.74895450  0.88612200  1
  O  O111  1  0.29897700  0.74869700  0.11356800  1
  O  O112  1  0.45392850  0.92742650  0.11151900  1
  O  O113  1  0.37972250  0.92958050  0.38566000  1
  O  O114  1  0.38175550  0.07039350  0.88692300  1
  O  O115  1  0.45231750  0.06871650  0.61140900  1
  O  O116  1  0.21517200  0.92852500  0.88723300  1
  O  O117  1  0.28659100  0.92800300  0.61089900  1
  O  O118  1  0.46666250  0.24874050  0.11361500  1
  O  O119  1  0.28741900  0.07181100  0.11095000  1
  O  O120  1  0.12077150  0.92871250  0.11138400  1
  O  O121  1  0.21382050  0.07221250  0.38669200  1
  O  O122  1  0.36927900  0.24993700  0.38471300  1
  O  O123  1  0.04621150  0.06993850  0.88780200  1
  O  O124  1  0.29870350  0.24927550  0.61280400  1
  O  O125  1  0.11963550  0.07037150  0.61145000  1
  O  O126  1  0.37922850  0.42871250  0.88861600  1
  O  O127  1  0.20102300  0.24869700  0.88643200  1
  O  O128  1  0.45360100  0.42513300  0.61084700  1
  O  O129  1  0.13080450  0.24895450  0.11387800  1
  O  O130  1  0.28482800  0.42852500  0.11276700  1
  O  O131  1  0.38036450  0.57037150  0.38855000  1
  O  O132  1  0.21340900  0.42800300  0.38910100  1
  O  O133  1  0.03393000  0.24748000  0.38608700  1
  O  O134  1  0.21258100  0.57181100  0.88905000  1
  O  O135  1  0.28617950  0.57221250  0.61330800  1
  O  O136  1  0.04607150  0.42742650  0.88848100  1
  O  O137  1  0.12027750  0.42958050  0.61434000  1
  O  O138  1  0.11824450  0.57039350  0.11307700  1
  O  O139  1  0.04768250  0.56871650  0.38859100  1
  O  O140  1  0.20129650  0.74927550  0.38719600  1
  O  O141  1  0.13072100  0.74993700  0.61528700  1
  O  O142  1  0.03333750  0.74874050  0.88638500  1
  O  O143  1  0.04639900  0.92513300  0.38915300  1
