# generated using pymatgen
data_Na2CuP2O7
_symmetry_space_group_name_H-M   'P 1'
_cell_length_a   16.89542800
_cell_length_b   5.16028000
_cell_length_c   9.00653904
_cell_angle_alpha   90.00000000
_cell_angle_beta   114.92972347
_cell_angle_gamma   90.00000000
_symmetry_Int_Tables_number   1
_chemical_formula_structural   Na2CuP2O7
_chemical_formula_sum   'Na8 Cu4 P8 O28'
_cell_volume   712.07233131
_cell_formula_units_Z   4
loop_
 _symmetry_equiv_pos_site_id
 _symmetry_equiv_pos_as_xyz
  1  'x, y, z'
loop_
 _atom_site_type_symbol
 _atom_site_label
 _atom_site_symmetry_multiplicity
 _atom_site_fract_x
 _atom_site_fract_y
 _atom_site_fract_z
 _atom_site_occupancy
  Na  Na0  1  0.30708450  0.86197650  0.43238400  1
  Na  Na1  1  0.30708450  0.13802350  0.93238400  1
  Na  Na2  1  0.19291550  0.36197650  0.06761600  1
  Na  Na3  1  0.19291550  0.63802350  0.56761600  1
  Na  Na4  1  0.80708450  0.36197650  0.43238400  1
  Na  Na5  1  0.80708450  0.63802350  0.93238400  1
  Na  Na6  1  0.69291550  0.86197650  0.06761600  1
  Na  Na7  1  0.69291550  0.13802350  0.56761600  1
  Cu  Cu8  1  0.00000000  0.50000000  0.50000000  1
  Cu  Cu9  1  0.00000000  0.50000000  0.00000000  1
  Cu  Cu10  1  0.50000000  0.00000000  0.50000000  1
  Cu  Cu11  1  0.50000000  0.00000000  0.00000000  1
  P  P12  1  0.40804000  0.64540700  0.18790600  1
  P  P13  1  0.40804000  0.35459300  0.68790600  1
  P  P14  1  0.09196000  0.14540700  0.31209400  1
  P  P15  1  0.09196000  0.85459300  0.81209400  1
  P  P16  1  0.90804000  0.14540700  0.18790600  1
  P  P17  1  0.90804000  0.85459300  0.68790600  1
  P  P18  1  0.59196000  0.64540700  0.31209400  1
  P  P19  1  0.59196000  0.35459300  0.81209400  1
  O  O20  1  0.33377550  0.45228050  0.12228100  1
  O  O21  1  0.33377550  0.54771950  0.62228100  1
  O  O22  1  0.40883250  0.83669650  0.05719300  1
  O  O23  1  0.40849300  0.78791200  0.34023900  1
  O  O24  1  0.40883250  0.16330350  0.55719300  1
  O  O25  1  0.40849300  0.21208800  0.84023900  1
  O  O26  1  0.00000000  0.98478700  0.25000000  1
  O  O27  1  0.00000000  0.01521300  0.75000000  1
  O  O28  1  0.09150700  0.28791200  0.15976100  1
  O  O29  1  0.09116750  0.33669650  0.44280700  1
  O  O30  1  0.09150700  0.71208800  0.65976100  1
  O  O31  1  0.09116750  0.66330350  0.94280700  1
  O  O32  1  0.16622450  0.95228050  0.37771900  1
  O  O33  1  0.16622450  0.04771950  0.87771900  1
  O  O34  1  0.83377550  0.95228050  0.12228100  1
  O  O35  1  0.83377550  0.04771950  0.62228100  1
  O  O36  1  0.90883250  0.33669650  0.05719300  1
  O  O37  1  0.90849300  0.28791200  0.34023900  1
  O  O38  1  0.90883250  0.66330350  0.55719300  1
  O  O39  1  0.90849300  0.71208800  0.84023900  1
  O  O40  1  0.50000000  0.48478700  0.25000000  1
  O  O41  1  0.50000000  0.51521300  0.75000000  1
  O  O42  1  0.59150700  0.78791200  0.15976100  1
  O  O43  1  0.59116750  0.83669650  0.44280700  1
  O  O44  1  0.59150700  0.21208800  0.65976100  1
  O  O45  1  0.59116750  0.16330350  0.94280700  1
  O  O46  1  0.66622450  0.45228050  0.37771900  1
  O  O47  1  0.66622450  0.54771950  0.87771900  1
