# generated using pymatgen
data_KH(IO3)2
_symmetry_space_group_name_H-M   'P 1'
_cell_length_a   8.71933400
_cell_length_b   7.53855400
_cell_length_c   10.69137455
_cell_angle_alpha   90.00000000
_cell_angle_beta   112.04374701
_cell_angle_gamma   90.00000000
_symmetry_Int_Tables_number   1
_chemical_formula_structural   KH(IO3)2
_chemical_formula_sum   'K4 H4 I8 O24'
_cell_volume   651.38334206
_cell_formula_units_Z   4
loop_
 _symmetry_equiv_pos_site_id
 _symmetry_equiv_pos_as_xyz
  1  'x, y, z'
loop_
 _atom_site_type_symbol
 _atom_site_label
 _atom_site_symmetry_multiplicity
 _atom_site_fract_x
 _atom_site_fract_y
 _atom_site_fract_z
 _atom_site_occupancy
  K  K0  1  0.16004400  0.75245500  0.79832300  1
  K  K1  1  0.66004400  0.74754500  0.79832300  1
  K  K2  1  0.33995600  0.25245500  0.20167700  1
  K  K3  1  0.83995600  0.24754500  0.20167700  1
  H  H4  1  0.50000000  0.00000000  0.00000000  1
  H  H5  1  0.00000000  0.50000000  0.00000000  1
  H  H6  1  0.50000000  0.00000000  0.50000000  1
  H  H7  1  0.00000000  0.50000000  0.50000000  1
  I  I8  1  0.42724600  0.30293100  0.87386700  1
  I  I9  1  0.92724600  0.19706900  0.87386700  1
  I  I10  1  0.20447900  0.06526000  0.50605400  1
  I  I11  1  0.29552100  0.56526000  0.49394600  1
  I  I12  1  0.70447900  0.43474000  0.50605400  1
  I  I13  1  0.79552100  0.93474000  0.49394600  1
  I  I14  1  0.07275400  0.80293100  0.12613300  1
  I  I15  1  0.57275400  0.69706900  0.12613300  1
  O  O16  1  0.31467600  0.45259400  0.94183900  1
  O  O17  1  0.48806900  0.84263400  0.97185000  1
  O  O18  1  0.81467600  0.04740600  0.94183900  1
  O  O19  1  0.26569300  0.15320600  0.77009900  1
  O  O20  1  0.98806900  0.65736600  0.97185000  1
  O  O21  1  0.35016700  0.54307500  0.67623500  1
  O  O22  1  0.76569300  0.34679400  0.77009900  1
  O  O23  1  0.11420100  0.85821700  0.53986900  1
  O  O24  1  0.41990300  0.97146000  0.56959500  1
  O  O25  1  0.85016700  0.95692500  0.67623500  1
  O  O26  1  0.08009700  0.47146000  0.43040500  1
  O  O27  1  0.61420100  0.64178300  0.53986900  1
  O  O28  1  0.38579900  0.35821700  0.46013100  1
  O  O29  1  0.91990300  0.52854000  0.56959500  1
  O  O30  1  0.14983300  0.04307500  0.32376500  1
  O  O31  1  0.58009700  0.02854000  0.43040500  1
  O  O32  1  0.88579900  0.14178300  0.46013100  1
  O  O33  1  0.23430700  0.65320600  0.22990100  1
  O  O34  1  0.64983300  0.45692500  0.32376500  1
  O  O35  1  0.01193100  0.34263400  0.02815000  1
  O  O36  1  0.73430700  0.84679400  0.22990100  1
  O  O37  1  0.18532400  0.95259400  0.05816100  1
  O  O38  1  0.51193100  0.15736600  0.02815000  1
  O  O39  1  0.68532400  0.54740600  0.05816100  1
