# generated using pymatgen
data_Tl2Ge2O7
_symmetry_space_group_name_H-M   'P 1'
_cell_length_a   10.06656200
_cell_length_b   10.06656200
_cell_length_c   10.06656200
_cell_angle_alpha   90.00000000
_cell_angle_beta   90.00000000
_cell_angle_gamma   90.00000000
_symmetry_Int_Tables_number   1
_chemical_formula_structural   Tl2Ge2O7
_chemical_formula_sum   'Tl16 Ge16 O56'
_cell_volume   1020.10180990
_cell_formula_units_Z   8
loop_
 _symmetry_equiv_pos_site_id
 _symmetry_equiv_pos_as_xyz
  1  'x, y, z'
loop_
 _atom_site_type_symbol
 _atom_site_label
 _atom_site_symmetry_multiplicity
 _atom_site_fract_x
 _atom_site_fract_y
 _atom_site_fract_z
 _atom_site_occupancy
  Tl  Tl0  1  0.12500000  0.62500000  0.12500000  1
  Tl  Tl1  1  0.12500000  0.87500000  0.37500000  1
  Tl  Tl2  1  0.37500000  0.62500000  0.37500000  1
  Tl  Tl3  1  0.37500000  0.87500000  0.12500000  1
  Tl  Tl4  1  0.12500000  0.12500000  0.62500000  1
  Tl  Tl5  1  0.12500000  0.37500000  0.87500000  1
  Tl  Tl6  1  0.37500000  0.12500000  0.87500000  1
  Tl  Tl7  1  0.37500000  0.37500000  0.62500000  1
  Tl  Tl8  1  0.62500000  0.62500000  0.62500000  1
  Tl  Tl9  1  0.62500000  0.87500000  0.87500000  1
  Tl  Tl10  1  0.87500000  0.62500000  0.87500000  1
  Tl  Tl11  1  0.87500000  0.87500000  0.62500000  1
  Tl  Tl12  1  0.62500000  0.12500000  0.12500000  1
  Tl  Tl13  1  0.62500000  0.37500000  0.37500000  1
  Tl  Tl14  1  0.87500000  0.12500000  0.37500000  1
  Tl  Tl15  1  0.87500000  0.37500000  0.12500000  1
  Ge  Ge16  1  0.37500000  0.12500000  0.37500000  1
  Ge  Ge17  1  0.87500000  0.87500000  0.12500000  1
  Ge  Ge18  1  0.62500000  0.87500000  0.37500000  1
  Ge  Ge19  1  0.12500000  0.12500000  0.12500000  1
  Ge  Ge20  1  0.37500000  0.62500000  0.87500000  1
  Ge  Ge21  1  0.87500000  0.37500000  0.62500000  1
  Ge  Ge22  1  0.62500000  0.37500000  0.87500000  1
  Ge  Ge23  1  0.12500000  0.62500000  0.62500000  1
  Ge  Ge24  1  0.87500000  0.12500000  0.87500000  1
  Ge  Ge25  1  0.37500000  0.87500000  0.62500000  1
  Ge  Ge26  1  0.12500000  0.87500000  0.87500000  1
  Ge  Ge27  1  0.62500000  0.12500000  0.62500000  1
  Ge  Ge28  1  0.87500000  0.62500000  0.37500000  1
  Ge  Ge29  1  0.37500000  0.37500000  0.12500000  1
  Ge  Ge30  1  0.12500000  0.37500000  0.37500000  1
  Ge  Ge31  1  0.62500000  0.62500000  0.12500000  1
  O  O32  1  0.25000000  0.75000000  0.25000000  1
  O  O33  1  0.30051900  0.00000000  0.50000000  1
  O  O34  1  0.50000000  0.19948100  0.50000000  1
  O  O35  1  0.50000000  0.00000000  0.30051900  1
  O  O36  1  0.50000000  0.80051900  0.50000000  1
  O  O37  1  0.00000000  0.00000000  0.19948100  1
  O  O38  1  0.05051900  0.25000000  0.25000000  1
  O  O39  1  0.69948100  0.00000000  0.50000000  1
  O  O40  1  0.25000000  0.05051900  0.25000000  1
  O  O41  1  0.25000000  0.25000000  0.05051900  1
  O  O42  1  0.25000000  0.25000000  0.44948100  1
  O  O43  1  0.25000000  0.44948100  0.25000000  1
  O  O44  1  0.44948100  0.25000000  0.25000000  1
  O  O45  1  0.00000000  0.00000000  0.50000000  1
  O  O46  1  0.25000000  0.25000000  0.75000000  1
  O  O47  1  0.30051900  0.50000000  0.00000000  1
  O  O48  1  0.50000000  0.69948100  0.00000000  1
  O  O49  1  0.50000000  0.50000000  0.80051900  1
  O  O50  1  0.50000000  0.30051900  0.00000000  1
  O  O51  1  0.00000000  0.50000000  0.69948100  1
  O  O52  1  0.05051900  0.75000000  0.75000000  1
  O  O53  1  0.69948100  0.50000000  0.00000000  1
  O  O54  1  0.25000000  0.55051900  0.75000000  1
  O  O55  1  0.25000000  0.75000000  0.55051900  1
  O  O56  1  0.25000000  0.75000000  0.94948100  1
  O  O57  1  0.25000000  0.94948100  0.75000000  1
  O  O58  1  0.44948100  0.75000000  0.75000000  1
  O  O59  1  0.00000000  0.50000000  0.00000000  1
  O  O60  1  0.75000000  0.75000000  0.75000000  1
  O  O61  1  0.80051900  0.00000000  0.00000000  1
  O  O62  1  0.00000000  0.19948100  0.00000000  1
  O  O63  1  0.00000000  0.00000000  0.80051900  1
  O  O64  1  0.00000000  0.80051900  0.00000000  1
  O  O65  1  0.50000000  0.00000000  0.69948100  1
  O  O66  1  0.55051900  0.25000000  0.75000000  1
  O  O67  1  0.19948100  0.00000000  0.00000000  1
  O  O68  1  0.75000000  0.05051900  0.75000000  1
  O  O69  1  0.75000000  0.25000000  0.55051900  1
  O  O70  1  0.75000000  0.25000000  0.94948100  1
  O  O71  1  0.75000000  0.44948100  0.75000000  1
  O  O72  1  0.94948100  0.25000000  0.75000000  1
  O  O73  1  0.50000000  0.00000000  0.00000000  1
  O  O74  1  0.75000000  0.25000000  0.25000000  1
  O  O75  1  0.80051900  0.50000000  0.50000000  1
  O  O76  1  0.00000000  0.69948100  0.50000000  1
  O  O77  1  0.00000000  0.50000000  0.30051900  1
  O  O78  1  0.00000000  0.30051900  0.50000000  1
  O  O79  1  0.50000000  0.50000000  0.19948100  1
  O  O80  1  0.55051900  0.75000000  0.25000000  1
  O  O81  1  0.19948100  0.50000000  0.50000000  1
  O  O82  1  0.75000000  0.55051900  0.25000000  1
  O  O83  1  0.75000000  0.75000000  0.05051900  1
  O  O84  1  0.75000000  0.75000000  0.44948100  1
  O  O85  1  0.75000000  0.94948100  0.25000000  1
  O  O86  1  0.94948100  0.75000000  0.25000000  1
  O  O87  1  0.50000000  0.50000000  0.50000000  1
