# generated using pymatgen
data_LiV(Si2O5)3
_symmetry_space_group_name_H-M   'P 1'
_cell_length_a   14.35548400
_cell_length_b   17.12169200
_cell_length_c   9.99957900
_cell_angle_alpha   90.00000000
_cell_angle_beta   90.00000000
_cell_angle_gamma   90.00000000
_symmetry_Int_Tables_number   1
_chemical_formula_structural   LiV(Si2O5)3
_chemical_formula_sum   'Li8 V8 Si48 O120'
_cell_volume   2457.79827793
_cell_formula_units_Z   8
loop_
 _symmetry_equiv_pos_site_id
 _symmetry_equiv_pos_as_xyz
  1  'x, y, z'
loop_
 _atom_site_type_symbol
 _atom_site_label
 _atom_site_symmetry_multiplicity
 _atom_site_fract_x
 _atom_site_fract_y
 _atom_site_fract_z
 _atom_site_occupancy
  Li  Li0  1  0.24832900  0.00000000  0.00000000  1
  Li  Li1  1  0.25167100  0.00000000  0.50000000  1
  Li  Li2  1  0.74832900  0.00000000  0.50000000  1
  Li  Li3  1  0.75167100  0.00000000  0.00000000  1
  Li  Li4  1  0.74832900  0.50000000  0.00000000  1
  Li  Li5  1  0.75167100  0.50000000  0.50000000  1
  Li  Li6  1  0.24832900  0.50000000  0.50000000  1
  Li  Li7  1  0.25167100  0.50000000  0.00000000  1
  V  V8  1  0.25000000  0.90657700  0.25000000  1
  V  V9  1  0.25000000  0.09342300  0.75000000  1
  V  V10  1  0.75000000  0.90657700  0.25000000  1
  V  V11  1  0.75000000  0.09342300  0.75000000  1
  V  V12  1  0.75000000  0.40657700  0.25000000  1
  V  V13  1  0.75000000  0.59342300  0.75000000  1
  V  V14  1  0.25000000  0.40657700  0.25000000  1
  V  V15  1  0.25000000  0.59342300  0.75000000  1
  Si  Si16  1  0.39187150  0.63248150  0.49067700  1
  Si  Si17  1  0.39209150  0.68421950  0.95552400  1
  Si  Si18  1  0.11062600  0.93523700  0.80315900  1
  Si  Si19  1  0.60812850  0.63248150  0.49067700  1
  Si  Si20  1  0.39209150  0.81578050  0.45552400  1
  Si  Si21  1  0.60790850  0.68421950  0.95552400  1
  Si  Si22  1  0.39187150  0.86751850  0.99067700  1
  Si  Si23  1  0.11062600  0.06476300  0.19684100  1
  Si  Si24  1  0.38937400  0.93523700  0.69684100  1
  Si  Si25  1  0.60790850  0.81578050  0.45552400  1
  Si  Si26  1  0.60812850  0.86751850  0.99067700  1
  Si  Si27  1  0.38937400  0.06476300  0.30315900  1
  Si  Si28  1  0.61062600  0.93523700  0.69684100  1
  Si  Si29  1  0.39187150  0.13248150  0.00932300  1
  Si  Si30  1  0.39209150  0.18421950  0.54447600  1
  Si  Si31  1  0.61062600  0.06476300  0.30315900  1
  Si  Si32  1  0.88937400  0.93523700  0.80315900  1
  Si  Si33  1  0.60812850  0.13248150  0.00932300  1
  Si  Si34  1  0.39209150  0.31578050  0.04447600  1
  Si  Si35  1  0.60790850  0.18421950  0.54447600  1
  Si  Si36  1  0.39187150  0.36751850  0.50932300  1
  Si  Si37  1  0.88937400  0.06476300  0.19684100  1
  Si  Si38  1  0.60790850  0.31578050  0.04447600  1
  Si  Si39  1  0.60812850  0.36751850  0.50932300  1
  Si  Si40  1  0.89187150  0.13248150  0.49067700  1
  Si  Si41  1  0.89209150  0.18421950  0.95552400  1
  Si  Si42  1  0.61062600  0.43523700  0.80315900  1
  Si  Si43  1  0.10812850  0.13248150  0.49067700  1
  Si  Si44  1  0.89209150  0.31578050  0.45552400  1
  Si  Si45  1  0.10790850  0.18421950  0.95552400  1
  Si  Si46  1  0.89187150  0.36751850  0.99067700  1
  Si  Si47  1  0.61062600  0.56476300  0.19684100  1
  Si  Si48  1  0.88937400  0.43523700  0.69684100  1
  Si  Si49  1  0.10790850  0.31578050  0.45552400  1
  Si  Si50  1  0.10812850  0.36751850  0.99067700  1
  Si  Si51  1  0.88937400  0.56476300  0.30315900  1
  Si  Si52  1  0.11062600  0.43523700  0.69684100  1
  Si  Si53  1  0.89187150  0.63248150  0.00932300  1
  Si  Si54  1  0.89209150  0.68421950  0.54447600  1
  Si  Si55  1  0.11062600  0.56476300  0.30315900  1
  Si  Si56  1  0.38937400  0.43523700  0.80315900  1
  Si  Si57  1  0.10812850  0.63248150  0.00932300  1
  Si  Si58  1  0.89209150  0.81578050  0.04447600  1
  Si  Si59  1  0.10790850  0.68421950  0.54447600  1
  Si  Si60  1  0.89187150  0.86751850  0.50932300  1
  Si  Si61  1  0.38937400  0.56476300  0.19684100  1
  Si  Si62  1  0.10790850  0.81578050  0.04447600  1
  Si  Si63  1  0.10812850  0.86751850  0.50932300  1
  O  O64  1  0.82564100  0.16609800  0.82614600  1
  O  O65  1  0.50000000  0.54314900  0.19107000  1
  O  O66  1  0.50000000  0.60961400  0.52201000  1
  O  O67  1  0.13630350  0.87272550  0.92120500  1
  O  O68  1  0.13616000  0.89519800  0.66019700  1
  O  O69  1  0.37693050  0.72618550  0.50442900  1
  O  O70  1  0.50000000  0.67012700  0.91086900  1
  O  O71  1  0.32564100  0.83390200  0.32614600  1
  O  O72  1  0.17676450  0.91525950  0.40863800  1
  O  O73  1  0.37693050  0.77381450  0.00442900  1
  O  O74  1  0.17546050  0.98899050  0.16864300  1
  O  O75  1  0.36369650  0.87272550  0.57879500  1
  O  O76  1  0.17546050  0.01100950  0.83135700  1
  O  O77  1  0.36384000  0.89519800  0.83980300  1
  O  O78  1  0.32323550  0.91525950  0.09136200  1
  O  O79  1  0.62306950  0.72618550  0.50442900  1
  O  O80  1  0.17435900  0.16609800  0.82614600  1
  O  O81  1  0.50000000  0.82987300  0.41086900  1
  O  O82  1  0.17676450  0.08474050  0.59136200  1
  O  O83  1  0.62306950  0.77381450  0.00442900  1
  O  O84  1  0.13616000  0.10480200  0.33980300  1
  O  O85  1  0.32453950  0.98899050  0.33135700  1
  O  O86  1  0.13630350  0.12727450  0.07879500  1
  O  O87  1  0.32453950  0.01100950  0.66864300  1
  O  O88  1  0.50000000  0.89038600  0.02201000  1
  O  O89  1  0.50000000  0.95685100  0.69107000  1
  O  O90  1  0.67435900  0.83390200  0.32614600  1
  O  O91  1  0.32323550  0.08474050  0.90863800  1
  O  O92  1  0.63630350  0.87272550  0.57879500  1
  O  O93  1  0.63616000  0.89519800  0.83980300  1
  O  O94  1  0.36384000  0.10480200  0.16019700  1
  O  O95  1  0.36369650  0.12727450  0.42120500  1
  O  O96  1  0.67676450  0.91525950  0.09136200  1
  O  O97  1  0.32564100  0.16609800  0.67385400  1
  O  O98  1  0.50000000  0.04314900  0.30893000  1
  O  O99  1  0.50000000  0.10961400  0.97799000  1
  O  O100  1  0.67546050  0.98899050  0.33135700  1
  O  O101  1  0.86369650  0.87272550  0.92120500  1
  O  O102  1  0.67546050  0.01100950  0.66864300  1
  O  O103  1  0.86384000  0.89519800  0.66019700  1
  O  O104  1  0.37693050  0.22618550  0.99557100  1
  O  O105  1  0.82323550  0.91525950  0.40863800  1
  O  O106  1  0.50000000  0.17012700  0.58913100  1
  O  O107  1  0.82564100  0.83390200  0.17385400  1
  O  O108  1  0.37693050  0.27381450  0.49557100  1
  O  O109  1  0.67676450  0.08474050  0.90863800  1
  O  O110  1  0.63616000  0.10480200  0.16019700  1
  O  O111  1  0.82453950  0.98899050  0.16864300  1
  O  O112  1  0.63630350  0.12727450  0.42120500  1
  O  O113  1  0.82453950  0.01100950  0.83135700  1
  O  O114  1  0.62306950  0.22618550  0.99557100  1
  O  O115  1  0.82323550  0.08474050  0.59136200  1
  O  O116  1  0.67435900  0.16609800  0.67385400  1
  O  O117  1  0.50000000  0.32987300  0.08913100  1
  O  O118  1  0.62306950  0.27381450  0.49557100  1
  O  O119  1  0.86384000  0.10480200  0.33980300  1
  O  O120  1  0.86369650  0.12727450  0.07879500  1
  O  O121  1  0.50000000  0.39038600  0.47799000  1
  O  O122  1  0.50000000  0.45685100  0.80893000  1
  O  O123  1  0.17435900  0.83390200  0.17385400  1
  O  O124  1  0.32564100  0.66609800  0.82614600  1
  O  O125  1  0.00000000  0.04314900  0.19107000  1
  O  O126  1  0.00000000  0.10961400  0.52201000  1
  O  O127  1  0.63630350  0.37272550  0.92120500  1
  O  O128  1  0.63616000  0.39519800  0.66019700  1
  O  O129  1  0.87693050  0.22618550  0.50442900  1
  O  O130  1  0.00000000  0.17012700  0.91086900  1
  O  O131  1  0.82564100  0.33390200  0.32614600  1
  O  O132  1  0.67676450  0.41525950  0.40863800  1
  O  O133  1  0.87693050  0.27381450  0.00442900  1
  O  O134  1  0.67546050  0.48899050  0.16864300  1
  O  O135  1  0.86369650  0.37272550  0.57879500  1
  O  O136  1  0.67546050  0.51100950  0.83135700  1
  O  O137  1  0.86384000  0.39519800  0.83980300  1
  O  O138  1  0.82323550  0.41525950  0.09136200  1
  O  O139  1  0.12306950  0.22618550  0.50442900  1
  O  O140  1  0.67435900  0.66609800  0.82614600  1
  O  O141  1  0.00000000  0.32987300  0.41086900  1
  O  O142  1  0.67676450  0.58474050  0.59136200  1
  O  O143  1  0.12306950  0.27381450  0.00442900  1
  O  O144  1  0.63616000  0.60480200  0.33980300  1
  O  O145  1  0.82453950  0.48899050  0.33135700  1
  O  O146  1  0.63630350  0.62727450  0.07879500  1
  O  O147  1  0.82453950  0.51100950  0.66864300  1
  O  O148  1  0.00000000  0.39038600  0.02201000  1
  O  O149  1  0.00000000  0.45685100  0.69107000  1
  O  O150  1  0.17435900  0.33390200  0.32614600  1
  O  O151  1  0.82323550  0.58474050  0.90863800  1
  O  O152  1  0.13630350  0.37272550  0.57879500  1
  O  O153  1  0.13616000  0.39519800  0.83980300  1
  O  O154  1  0.86384000  0.60480200  0.16019700  1
  O  O155  1  0.86369650  0.62727450  0.42120500  1
  O  O156  1  0.17676450  0.41525950  0.09136200  1
  O  O157  1  0.82564100  0.66609800  0.67385400  1
  O  O158  1  0.00000000  0.54314900  0.30893000  1
  O  O159  1  0.00000000  0.60961400  0.97799000  1
  O  O160  1  0.17546050  0.48899050  0.33135700  1
  O  O161  1  0.36369650  0.37272550  0.92120500  1
  O  O162  1  0.17546050  0.51100950  0.66864300  1
  O  O163  1  0.36384000  0.39519800  0.66019700  1
  O  O164  1  0.87693050  0.72618550  0.99557100  1
  O  O165  1  0.32323550  0.41525950  0.40863800  1
  O  O166  1  0.00000000  0.67012700  0.58913100  1
  O  O167  1  0.32564100  0.33390200  0.17385400  1
  O  O168  1  0.87693050  0.77381450  0.49557100  1
  O  O169  1  0.17676450  0.58474050  0.90863800  1
  O  O170  1  0.13616000  0.60480200  0.16019700  1
  O  O171  1  0.32453950  0.48899050  0.16864300  1
  O  O172  1  0.13630350  0.62727450  0.42120500  1
  O  O173  1  0.32453950  0.51100950  0.83135700  1
  O  O174  1  0.12306950  0.72618550  0.99557100  1
  O  O175  1  0.32323550  0.58474050  0.59136200  1
  O  O176  1  0.17435900  0.66609800  0.67385400  1
  O  O177  1  0.00000000  0.82987300  0.08913100  1
  O  O178  1  0.12306950  0.77381450  0.49557100  1
  O  O179  1  0.36384000  0.60480200  0.33980300  1
  O  O180  1  0.36369650  0.62727450  0.07879500  1
  O  O181  1  0.00000000  0.89038600  0.47799000  1
  O  O182  1  0.00000000  0.95685100  0.80893000  1
  O  O183  1  0.67435900  0.33390200  0.17385400  1
